REMARK  Name = ZINC00579315
REMARK                            x       y       z     vdW  Elec       q    Type
REMARK                         _______ _______ _______ _____ _____    ______ ____
ROOT
ATOM      1  C   LIG    1       -0.070   5.323   0.028  0.00  0.00    +0.249 C 
ATOM      2  N   LIG    1        1.088   6.012   0.022  0.00  0.00    -0.266 N 
ATOM      3  H   LIG    1        1.933   5.541   0.086  0.00  0.00    +0.157 HD
ATOM      4  O   LIG    1       -1.131   5.916   0.041  0.00  0.00    -0.270 OA
ENDROOT
BRANCH   1  10
ATOM      5  C   LIG    1       -2.513   0.972   0.010  0.00  0.00    +0.044 C 
ATOM      6  C   LIG    1       -1.222   1.748   0.010  0.00  0.00    -0.050 A 
ATOM      7  C   LIG    1       -0.012   1.076   0.000  0.00  0.00    +0.003 A 
ATOM      8  C   LIG    1        1.178   1.781  -0.006  0.00  0.00    +0.001 A 
ATOM      9  C   LIG    1        1.166   3.160   0.003  0.00  0.00    +0.013 A 
ATOM     10  C   LIG    1       -0.050   3.845   0.018  0.00  0.00    +0.037 A 
ATOM     11  C   LIG    1       -1.248   3.127   0.024  0.00  0.00    +0.016 A 
ENDBRANCH   1  10
BRANCH   2  12
ATOM     12  C   LIG    1        1.070   7.402  -0.077  0.00  0.00    +0.125 A 
ATOM     13  C   LIG    1        2.268   8.100  -0.189  0.00  0.00    +0.044 A 
ATOM     14  C   LIG    1        2.236   9.479  -0.291  0.00  0.00    +0.005 A 
ATOM     15  C   LIG    1        1.002  10.117  -0.266  0.00  0.00    +0.023 A 
ATOM     16  C   LIG    1       -0.147   9.361  -0.147  0.00  0.00    +0.040 A 
ATOM     17  C   LIG    1       -1.489  10.047  -0.119  0.00  0.00    +0.065 C 
ATOM     18  N   LIG    1       -0.086   8.046  -0.057  0.00  0.00    -0.237 NA
ENDBRANCH   2  12
TORSDOF 2
