REMARK  Name = ZINC00601874
REMARK                            x       y       z     vdW  Elec       q    Type
REMARK                         _______ _______ _______ _____ _____    ______ ____
ROOT
ATOM      1  C   LIG    1        1.468  -3.053   4.687  0.00  0.00    +0.048 A 
ATOM      2  C   LIG    1        2.801  -3.429   4.631  0.00  0.00    +0.042 A 
ATOM      3  C   LIG    1        3.458  -3.819   5.809  0.00  0.00    +0.072 A 
ATOM      4  N   LIG    1        2.840  -3.836   6.972  0.00  0.00    -0.247 NA
ATOM      5  C   LIG    1        1.558  -3.485   7.092  0.00  0.00    +0.072 A 
ATOM      6  C   LIG    1        0.916  -3.511   8.345  0.00  0.00    +0.028 A 
ATOM      7  C   LIG    1       -0.387  -3.132   8.443  0.00  0.00    +0.002 A 
ATOM      8  C   LIG    1       -1.106  -2.733   7.319  0.00  0.00    +0.001 A 
ATOM      9  C   LIG    1       -0.519  -2.701   6.089  0.00  0.00    +0.011 A 
ATOM     10  C   LIG    1        0.824  -3.074   5.952  0.00  0.00    +0.013 A 
ENDROOT
BRANCH   3  11
ATOM     11  C   LIG    1        4.884  -4.221   5.741  0.00  0.00    +0.000 A 
ATOM     12  C   LIG    1        5.559  -4.205   4.521  0.00  0.00    +0.010 A 
ATOM     13  C   LIG    1        6.886  -4.580   4.465  0.00  0.00    +0.001 A 
ATOM     14  C   LIG    1        7.546  -4.972   5.615  0.00  0.00    +0.000 A 
ATOM     15  C   LIG    1        6.881  -4.991   6.829  0.00  0.00    +0.001 A 
ATOM     16  C   LIG    1        5.556  -4.611   6.898  0.00  0.00    +0.010 A 
ENDBRANCH   3  11
BRANCH   1  19
ATOM     17  N   LIG    1        1.403  -2.505   2.301  0.00  0.00    -0.295 N 
ATOM     18  H   LIG    1        2.356  -2.683   2.261  0.00  0.00    +0.150 HD
ATOM     19  C   LIG    1        0.741  -2.637   3.468  0.00  0.00    +0.246 C 
ATOM     20  O   LIG    1       -0.452  -2.413   3.518  0.00  0.00    -0.270 OA
BRANCH  17  21
ATOM     21  C   LIG    1        0.683  -2.092   1.093  0.00  0.00    +0.213 C 
BRANCH  21  22
ATOM     22  C   LIG    1        1.419  -2.590  -0.124  0.00  0.00    -0.016 A 
ATOM     23  C   LIG    1        2.800  -2.553  -0.161  0.00  0.00    +0.006 A 
ATOM     24  C   LIG    1        3.475  -3.009  -1.278  0.00  0.00    +0.000 A 
ATOM     25  C   LIG    1        2.768  -3.504  -2.358  0.00  0.00    +0.000 A 
ATOM     26  C   LIG    1        1.387  -3.543  -2.321  0.00  0.00    +0.000 A 
ATOM     27  C   LIG    1        0.712  -3.090  -1.202  0.00  0.00    +0.006 A 
ENDBRANCH  21  22
BRANCH  21  28
ATOM     28  C   LIG    1        0.598  -0.589   1.048  0.00  0.00    +0.332 C 
ATOM     29  O   LIG    1        1.088   0.071   1.934  0.00  0.00    -0.248 OA
BRANCH  28  31
ATOM     30  C   LIG    1       -0.066   1.446   0.046  0.00  0.00    +0.280 C 
ATOM     31  O   LIG    1       -0.023   0.018   0.024  0.00  0.00    -0.466 OA
ENDBRANCH  28  31
ENDBRANCH  21  28
ENDBRANCH  17  21
ENDBRANCH   1  19
TORSDOF 6
