REMARK  Name = ZINC00602716
REMARK                            x       y       z     vdW  Elec       q    Type
REMARK                         _______ _______ _______ _____ _____    ______ ____
ROOT
ATOM      1  C   LIG    1       -3.743   1.749   7.983  0.00  0.00    +0.043 A 
ATOM      2  C   LIG    1       -3.547   2.611   6.906  0.00  0.00    +0.018 A 
ATOM      3  C   LIG    1       -2.993   2.145   5.748  0.00  0.00    +0.009 A 
ATOM      4  C   LIG    1       -2.620   0.798   5.644  0.00  0.00    -0.023 A 
ATOM      5  C   LIG    1       -2.824  -0.066   6.728  0.00  0.00    +0.041 A 
ATOM      6  C   LIG    1       -3.374   0.409   7.884  0.00  0.00    +0.136 A 
ENDROOT
BRANCH   4   7
ATOM      7  C   LIG    1       -2.024   0.293   4.401  0.00  0.00    +0.013 C 
ATOM      8  C   LIG    1       -1.834   1.127   3.355  0.00  0.00    +0.068 C 
BRANCH   8   9
ATOM      9  C   LIG    1       -1.241   0.624   2.118  0.00  0.00    +0.240 C 
ATOM     10  N   LIG    1       -0.959   1.474   1.111  0.00  0.00    -0.295 N 
ATOM     11  C   LIG    1       -0.259   1.004  -0.092  0.00  0.00    +0.127 C 
ATOM     12  C   LIG    1       -1.102   1.355  -1.323  0.00  0.00    +0.126 C 
ATOM     13  N   LIG    1       -1.490   2.770  -1.238  0.00  0.00    -0.299 N 
ATOM     14  C   LIG    1       -1.206   3.621  -2.244  0.00  0.00    +0.213 C 
ATOM     15  C   LIG    1       -1.610   5.069  -2.143  0.00  0.00    +0.109 C 
ATOM     16  O   LIG    1       -0.624   3.222  -3.230  0.00  0.00    -0.276 OA
ATOM     17  C   LIG    1       -2.194   3.240  -0.037  0.00  0.00    +0.126 C 
ATOM     18  C   LIG    1       -1.351   2.889   1.194  0.00  0.00    +0.127 C 
ATOM     19  O   LIG    1       -1.001  -0.564   1.997  0.00  0.00    -0.271 OA
ENDBRANCH   8   9
ENDBRANCH   4   7
BRANCH   6  20
ATOM     20  N   LIG    1       -3.584  -0.502   9.032  0.00  0.00    +0.007 N 
ATOM     21  O   LIG    1       -3.261  -1.673   8.946  0.00  0.00    -0.130 OA
BRANCH  20  22
ATOM     22  O   LIG    1       -4.079  -0.080  10.062  0.00  0.00    -0.396 OA
ATOM     23  H   LIG    1       -4.327   0.821  10.127  0.00  0.00    +0.329 HD
ENDBRANCH  20  22
ENDBRANCH   6  20
BRANCH   1  24
ATOM     24  S   LIG    1       -4.459   2.355   9.475  0.00  0.00    -0.087 S 
BRANCH  24  30
ATOM     25  C   LIG    1       -6.970   1.982  10.496  0.00  0.00    -0.031 A 
ATOM     26  C   LIG    1       -8.274   1.531  10.444  0.00  0.00    +0.005 A 
ATOM     27  C   LIG    1       -8.738   0.880   9.315  0.00  0.00    +0.000 A 
ATOM     28  C   LIG    1       -7.898   0.679   8.234  0.00  0.00    +0.001 A 
ATOM     29  C   LIG    1       -6.595   1.132   8.277  0.00  0.00    +0.015 A 
ATOM     30  C   LIG    1       -6.123   1.781   9.412  0.00  0.00    +0.016 A 
BRANCH  25  32
ATOM     31  C   LIG    1       -7.301   3.949  11.969  0.00  0.00    +0.012 C 
ATOM     32  C   LIG    1       -6.466   2.690  11.726  0.00  0.00    +0.014 C 
ATOM     33  C   LIG    1       -6.583   1.760  12.935  0.00  0.00    +0.012 C 
ENDBRANCH  25  32
ENDBRANCH  24  30
ENDBRANCH   1  24
TORSDOF 7
