REMARK  Name = ZINC00407231
REMARK                            x       y       z     vdW  Elec       q    Type
REMARK                         _______ _______ _______ _____ _____    ______ ____
ROOT
ATOM      1  C   LIG    1       -1.199  -0.637   0.010  0.00  0.00    +0.127 A 
ATOM      2  C   LIG    1       -1.245  -2.022   0.009  0.00  0.00    +0.092 A 
ATOM      3  C   LIG    1       -2.467  -2.676   0.018  0.00  0.00    +0.146 A 
ATOM      4  C   LIG    1       -3.654  -1.922   0.027  0.00  0.00    +0.106 A 
ATOM      5  C   LIG    1       -3.600  -0.523   0.028  0.00  0.00    +0.138 A 
ATOM      6  C   LIG    1       -4.940  -2.638   0.036  0.00  0.00    +0.197 A 
ATOM      7  C   LIG    1       -4.898  -4.054   0.034  0.00  0.00    +0.098 A 
ATOM      8  C   LIG    1       -3.696  -4.688   0.025  0.00  0.00    +0.139 A 
ATOM      9  O   LIG    1       -6.001  -2.036   0.045  0.00  0.00    -0.287 OA
ATOM     10  O   LIG    1       -2.529  -4.024   0.016  0.00  0.00    -0.454 OA
ATOM     11  C   LIG    1       -2.371   0.111   0.025  0.00  0.00    +0.092 A 
ENDROOT
BRANCH   8  12
ATOM     12  C   LIG    1       -3.672  -6.165   0.022  0.00  0.00    +0.017 A 
ATOM     13  C   LIG    1       -4.869  -6.886   0.025  0.00  0.00    +0.011 A 
ATOM     14  C   LIG    1       -4.840  -8.265   0.022  0.00  0.00    +0.001 A 
ATOM     15  C   LIG    1       -3.629  -8.934   0.018  0.00  0.00    +0.000 A 
ATOM     16  C   LIG    1       -2.439  -8.226   0.016  0.00  0.00    +0.001 A 
ATOM     17  C   LIG    1       -2.454  -6.847   0.012  0.00  0.00    +0.011 A 
ENDBRANCH   8  12
BRANCH   1  19
ATOM     18  C   LIG    1       -0.017   1.425   0.010  0.00  0.00    +0.277 C 
ATOM     19  O   LIG    1        0.002  -0.004   0.002  0.00  0.00    -0.495 OA
ENDBRANCH   1  19
BRANCH   5  20
ATOM     20  O   LIG    1       -4.745   0.205   0.037  0.00  0.00    -0.494 OA
ATOM     21  C   LIG    1       -4.609   1.628   0.038  0.00  0.00    +0.277 C 
ENDBRANCH   5  20
TORSDOF 3
