REMARK  Name = ZINC00404004
REMARK                            x       y       z     vdW  Elec       q    Type
REMARK                         _______ _______ _______ _____ _____    ______ ____
ROOT
ATOM      1  C   LIG    1       -0.359   2.779   1.818  0.00  0.00    +0.007 A 
ATOM      2  C   LIG    1       -1.009   3.228   2.953  0.00  0.00    +0.038 A 
ATOM      3  C   LIG    1       -2.012   2.463   3.524  0.00  0.00    +0.123 A 
ATOM      4  F   LIG    1       -2.644   2.899   4.635  0.00  0.00    -0.205 F 
ATOM      5  C   LIG    1       -2.367   1.252   2.955  0.00  0.00    +0.038 A 
ATOM      6  C   LIG    1       -1.719   0.807   1.817  0.00  0.00    +0.007 A 
ATOM      7  C   LIG    1       -0.718   1.572   1.248  0.00  0.00    -0.038 A 
ENDROOT
BRANCH   7   8
ATOM      8  C   LIG    1       -0.013   1.086   0.008  0.00  0.00    +0.100 C 
BRANCH   8   9
ATOM      9  S   LIG    1       -0.890   1.687  -1.462  0.00  0.00    -0.174 S 
ATOM     10  H   LIG    1       -0.176   1.195  -2.490  0.00  0.00    +0.102 HD
ENDBRANCH   8   9
ENDBRANCH   7   8
TORSDOF 2
