REMARK  Name = ZINC00402896
REMARK                            x       y       z     vdW  Elec       q    Type
REMARK                         _______ _______ _______ _____ _____    ______ ____
ROOT
ATOM      1  N   LIG    1        3.608  -0.489  -0.035  0.00  0.00    -0.315 N 
ATOM      2  C   LIG    1        4.387   0.630  -0.036  0.00  0.00    +0.201 A 
ATOM      3  N   LIG    1        3.638   1.694  -0.024  0.00  0.00    -0.231 NA
ATOM      4  C   LIG    1        2.334   1.327  -0.013  0.00  0.00    +0.147 A 
ATOM      5  C   LIG    1        1.112   2.020   0.002  0.00  0.00    +0.147 A 
ATOM      6  N   LIG    1       -0.016   1.316   0.009  0.00  0.00    -0.219 NA
ATOM      7  C   LIG    1        0.002  -0.004   0.002  0.00  0.00    +0.225 A 
ATOM      8  N   LIG    1        1.122  -0.696  -0.012  0.00  0.00    -0.216 NA
ATOM      9  C   LIG    1        2.299  -0.078  -0.020  0.00  0.00    +0.165 A 
ENDROOT
BRANCH   5  10
ATOM     10  N   LIG    1        1.083   3.404   0.009  0.00  0.00    -0.341 N 
ATOM     11  H   LIG    1        1.913   3.906   0.004  0.00  0.00    +0.144 HD
ATOM     12  H   LIG    1        0.597   3.731  -0.801  0.00  0.00    +0.144 HD
ENDBRANCH   5  10
BRANCH   1  14
ATOM     13  C   LIG    1        4.114  -2.391  -1.486  0.00  0.00    +0.027 C 
ATOM     14  C   LIG    1        4.082  -1.875  -0.046  0.00  0.00    +0.121 C 
ENDBRANCH   1  14
TORSDOF 2
