REMARK  Name = ZINC00597434
REMARK                            x       y       z     vdW  Elec       q    Type
REMARK                         _______ _______ _______ _____ _____    ______ ____
ROOT
ATOM      1  C   LIG    1       -4.291  -2.855  -1.705  0.00  0.00    +0.122 A 
ATOM      2  C   LIG    1       -5.029  -2.360  -2.771  0.00  0.00    +0.052 A 
ATOM      3  C   LIG    1       -5.831  -3.232  -3.492  0.00  0.00    -0.010 A 
ATOM      4  C   LIG    1       -5.893  -4.609  -3.142  0.00  0.00    -0.018 A 
ATOM      5  C   LIG    1       -5.144  -5.002  -2.067  0.00  0.00    +0.047 A 
ATOM      6  C   LIG    1       -5.096  -6.399  -1.496  0.00  0.00    +0.056 C 
ATOM      7  C   LIG    1       -4.287  -7.340  -2.365  0.00  0.00    +0.006 C 
ATOM      8  C   LIG    1       -4.318  -6.983  -3.842  0.00  0.00    +0.000 C 
ATOM      9  C   LIG    1       -5.606  -7.580  -4.363  0.00  0.00    +0.000 C 
ATOM     10  C   LIG    1       -6.844  -6.899  -3.788  0.00  0.00    +0.005 C 
ATOM     11  C   LIG    1       -6.797  -5.405  -4.050  0.00  0.00    +0.037 C 
ATOM     12  N   LIG    1       -4.379  -4.132  -1.402  0.00  0.00    -0.237 NA
ENDROOT
BRANCH   1  17
ATOM     13  N   LIG    1       -1.163  -0.727  -0.050  0.00  0.00    +0.382 N 
ATOM     14  H   LIG    1       -1.658  -0.174   0.634  0.00  0.00    -0.082 HD
ATOM     15  C   LIG    1       -1.677  -0.416  -1.390  0.00  0.00    -0.060 C 
ATOM     16  C   LIG    1       -3.193  -0.639  -1.419  0.00  0.00    +0.088 C 
ATOM     17  N   LIG    1       -3.471  -2.010  -0.966  0.00  0.00    -0.319 N 
ATOM     18  C   LIG    1       -2.859  -2.462   0.293  0.00  0.00    +0.088 C 
ATOM     19  C   LIG    1       -1.359  -2.153   0.242  0.00  0.00    -0.060 C 
BRANCH  13  21
ATOM     20  C   LIG    1        0.466   1.097  -0.171  0.00  0.00    -0.017 C 
ATOM     21  C   LIG    1        0.270  -0.409   0.009  0.00  0.00    -0.082 C 
ENDBRANCH  13  21
ENDBRANCH   1  17
BRANCH   3  22
ATOM     22  C   LIG    1       -6.622  -2.699  -4.628  0.00  0.00    -0.017 A 
ATOM     23  C   LIG    1       -8.007  -2.856  -4.649  0.00  0.00    +0.011 A 
ATOM     24  C   LIG    1       -8.740  -2.358  -5.707  0.00  0.00    +0.039 A 
ATOM     25  C   LIG    1       -8.101  -1.705  -6.748  0.00  0.00    +0.123 A 
ATOM     26  F   LIG    1       -8.822  -1.220  -7.783  0.00  0.00    -0.205 F 
ATOM     27  C   LIG    1       -6.724  -1.548  -6.732  0.00  0.00    +0.039 A 
ATOM     28  C   LIG    1       -5.984  -2.036  -5.674  0.00  0.00    +0.011 A 
ENDBRANCH   3  22
TORSDOF 3
