REMARK  Name = ZINC00398741
REMARK                            x       y       z     vdW  Elec       q    Type
REMARK                         _______ _______ _______ _____ _____    ______ ____
ROOT
ATOM      1  C   LIG    1       -1.221   1.750   0.017  0.00  0.00    +0.001 A 
ATOM      2  C   LIG    1       -0.013   1.076   0.008  0.00  0.00    +0.000 A 
ATOM      3  C   LIG    1        1.177   1.782   0.000  0.00  0.00    +0.007 A 
ATOM      4  C   LIG    1        1.162   3.162   0.008  0.00  0.00    -0.003 A 
ATOM      5  C   LIG    1       -0.051   3.849   0.022  0.00  0.00    -0.012 A 
ATOM      6  C   LIG    1        0.210   5.311   0.025  0.00  0.00    -0.012 A 
ATOM      7  C   LIG    1       -0.662   6.400   0.037  0.00  0.00    +0.009 A 
ATOM      8  C   LIG    1       -0.161   7.685   0.035  0.00  0.00    +0.001 A 
ATOM      9  C   LIG    1        1.205   7.900   0.021  0.00  0.00    +0.000 A 
ATOM     10  C   LIG    1        2.076   6.825   0.010  0.00  0.00    +0.007 A 
ATOM     11  C   LIG    1        1.586   5.537   0.012  0.00  0.00    -0.003 A 
ATOM     12  C   LIG    1        2.255   4.192   0.004  0.00  0.00    +0.165 C 
ATOM     13  C   LIG    1        3.157   4.033  -1.196  0.00  0.00    +0.253 C 
ATOM     14  N   LIG    1        4.389   3.812  -0.690  0.00  0.00    -0.238 N 
ATOM     15  H   LIG    1        5.183   3.671  -1.230  0.00  0.00    +0.159 HD
ATOM     16  C   LIG    1        4.379   3.811   0.649  0.00  0.00    +0.307 C 
ATOM     17  O   LIG    1        5.369   3.633   1.332  0.00  0.00    -0.252 OA
ATOM     18  O   LIG    1        2.842   4.092  -2.365  0.00  0.00    -0.272 OA
ATOM     19  N   LIG    1        3.149   4.030   1.154  0.00  0.00    -0.278 N 
ATOM     20  H   LIG    1        2.904   4.071   2.091  0.00  0.00    +0.152 HD
ATOM     21  C   LIG    1       -1.246   3.129   0.030  0.00  0.00    +0.009 A 
ENDROOT
TORSDOF 0
