REMARK  Name = ZINC00603710
REMARK                            x       y       z     vdW  Elec       q    Type
REMARK                         _______ _______ _______ _____ _____    ______ ____
ROOT
ATOM      1  C   LIG    1        0.666  -3.275  -0.021  0.00  0.00    +0.136 C 
ATOM      2  C   LIG    1        0.260  -3.652  -1.460  0.00  0.00    +0.091 C 
ATOM      3  C   LIG    1        0.779  -5.062  -1.625  0.00  0.00    +0.141 C 
ATOM      4  N   LIG    1        1.351  -5.437  -0.555  0.00  0.00    -0.179 NA
ATOM      5  N   LIG    1        1.353  -4.483   0.466  0.00  0.00    -0.216 N 
ENDROOT
BRANCH   1  11
ATOM      6  C   LIG    1       -0.017   1.362   0.009  0.00  0.00    +0.001 A 
ATOM      7  C   LIG    1        1.170   2.083   0.002  0.00  0.00    +0.002 A 
ATOM      8  C   LIG    1        2.386   1.436  -0.013  0.00  0.00    +0.026 A 
ATOM      9  C   LIG    1        2.428   0.046  -0.021  0.00  0.00    +0.047 A 
ATOM     10  C   LIG    1        1.223  -0.681  -0.013  0.00  0.00    +0.005 A 
ATOM     11  C   LIG    1        1.604  -2.095  -0.025  0.00  0.00    +0.000 A 
ATOM     12  C   LIG    1        2.945  -2.141  -0.038  0.00  0.00    +0.089 A 
ATOM     13  N   LIG    1        3.455  -0.871  -0.036  0.00  0.00    -0.360 N 
ATOM     14  H   LIG    1        4.399  -0.650  -0.044  0.00  0.00    +0.165 HD
ATOM     15  C   LIG    1        0.002  -0.004   0.002  0.00  0.00    +0.010 A 
ENDBRANCH   1  11
BRANCH   5  16
ATOM     16  C   LIG    1        1.913  -4.645   1.735  0.00  0.00    +0.052 A 
ATOM     17  C   LIG    1        1.843  -3.614   2.664  0.00  0.00    +0.027 A 
ATOM     18  C   LIG    1        2.397  -3.777   3.918  0.00  0.00    +0.030 A 
ATOM     19  C   LIG    1        3.023  -4.965   4.249  0.00  0.00    +0.105 A 
ATOM     20  C   LIG    1        3.095  -5.994   3.327  0.00  0.00    +0.030 A 
ATOM     21  C   LIG    1        2.537  -5.840   2.074  0.00  0.00    +0.027 A 
BRANCH  19  22
ATOM     22  S   LIG    1        3.730  -5.169   5.850  0.00  0.00    +0.056 S 
ATOM     23  O   LIG    1        4.009  -3.865   6.340  0.00  0.00    -0.153 OA
ATOM     24  O   LIG    1        4.734  -6.168   5.727  0.00  0.00    -0.153 OA
BRANCH  22  25
ATOM     25  N   LIG    1        2.553  -5.800   6.829  0.00  0.00    -0.204 NA
ATOM     26  H   LIG    1        2.746  -5.988   7.761  0.00  0.00    +0.144 HD
ATOM     27  H   LIG    1        1.670  -5.983   6.471  0.00  0.00    +0.144 HD
ENDBRANCH  22  25
ENDBRANCH  19  22
ENDBRANCH   5  16
BRANCH   3  28
ATOM     28  C   LIG    1        0.637  -5.898  -2.870  0.00  0.00    +0.432 C 
ATOM     29  F   LIG    1        1.266  -5.252  -3.940  0.00  0.00    -0.165 F 
ATOM     30  F   LIG    1       -0.720  -6.073  -3.164  0.00  0.00    -0.165 F 
ATOM     31  F   LIG    1        1.234  -7.147  -2.664  0.00  0.00    -0.165 F 
ENDBRANCH   3  28
TORSDOF 5
