REMARK  Name = ZINC00519621
REMARK                            x       y       z     vdW  Elec       q    Type
REMARK                         _______ _______ _______ _____ _____    ______ ____
ROOT
ATOM      1  C   LIG    1       -4.856   0.226   0.038  0.00  0.00    +0.139 A 
ATOM      2  C   LIG    1       -6.042  -0.440   0.051  0.00  0.00    +0.098 A 
ATOM      3  C   LIG    1       -7.253   0.293   0.061  0.00  0.00    +0.197 A 
ATOM      4  C   LIG    1       -7.155   1.763   0.057  0.00  0.00    +0.105 A 
ATOM      5  C   LIG    1       -8.301   2.568   0.067  0.00  0.00    +0.135 A 
ATOM      6  C   LIG    1       -8.167   3.944   0.063  0.00  0.00    +0.091 A 
ATOM      7  C   LIG    1       -6.903   4.522   0.049  0.00  0.00    +0.124 A 
ATOM      8  C   LIG    1       -5.764   3.732   0.038  0.00  0.00    +0.092 A 
ATOM      9  C   LIG    1       -5.878   2.350   0.043  0.00  0.00    +0.146 A 
ATOM     10  O   LIG    1       -8.335  -0.270   0.073  0.00  0.00    -0.287 OA
ATOM     11  O   LIG    1       -4.780   1.566   0.040  0.00  0.00    -0.454 OA
ENDROOT
BRANCH   1  14
ATOM     12  C   LIG    1       -1.201  -0.638   0.010  0.00  0.00    +0.162 A 
ATOM     13  C   LIG    1       -2.370   0.099   0.019  0.00  0.00    +0.061 A 
ATOM     14  C   LIG    1       -3.605  -0.556   0.027  0.00  0.00    +0.021 A 
ATOM     15  C   LIG    1       -3.651  -1.953   0.026  0.00  0.00    +0.015 A 
ATOM     16  C   LIG    1       -2.481  -2.681   0.016  0.00  0.00    +0.050 A 
ATOM     17  C   LIG    1       -1.255  -2.031   0.003  0.00  0.00    +0.158 A 
BRANCH  12  19
ATOM     18  C   LIG    1       -0.017   1.425   0.010  0.00  0.00    +0.277 C 
ATOM     19  O   LIG    1        0.002  -0.004   0.002  0.00  0.00    -0.491 OA
ENDBRANCH  12  19
BRANCH  17  20
ATOM     20  O   LIG    1       -0.105  -2.753  -0.011  0.00  0.00    -0.503 OA
ATOM     21  H   LIG    1        0.236  -2.967   0.868  0.00  0.00    +0.292 HD
ENDBRANCH  17  20
ENDBRANCH   1  14
BRANCH   5  22
ATOM     22  O   LIG    1       -9.534   2.001   0.080  0.00  0.00    -0.506 OA
ATOM     23  H   LIG    1       -9.883   1.838   0.967  0.00  0.00    +0.292 HD
ENDBRANCH   5  22
BRANCH   7  24
ATOM     24  O   LIG    1       -6.782   5.875   0.045  0.00  0.00    -0.507 OA
ATOM     25  H   LIG    1       -6.738   6.268   0.927  0.00  0.00    +0.292 HD
ENDBRANCH   7  24
TORSDOF 5
