REMARK  Name = ZINC00402848
REMARK                            x       y       z     vdW  Elec       q    Type
REMARK                         _______ _______ _______ _____ _____    ______ ____
ROOT
ATOM      1  C   LIG    1       -0.018   1.465   0.010  0.00  0.00    -0.096 C 
ATOM      2  N   LIG    1        0.002  -0.004   0.002  0.00  0.00    +0.380 N 
ATOM      3  H   LIG    1       -0.941  -0.345   0.114  0.00  0.00    -0.082 HD
ATOM      4  C   LIG    1        0.523  -0.466  -1.287  0.00  0.00    -0.078 C 
ATOM      5  C   LIG    1        0.561  -1.999  -1.310  0.00  0.00    -0.007 C 
ATOM      6  C   LIG    1        1.498  -2.455  -0.183  0.00  0.00    -0.004 C 
ATOM      7  C   LIG    1        1.650  -3.971  -0.202  0.00  0.00    +0.012 C 
ATOM      8  C   LIG    1        2.559  -4.410   0.950  0.00  0.00    +0.001 C 
ATOM      9  C   LIG    1        1.947  -3.963   2.279  0.00  0.00    +0.000 C 
ATOM     10  C   LIG    1        1.812  -2.439   2.294  0.00  0.00    +0.003 C 
ATOM     11  C   LIG    1        2.834  -1.788  -0.392  0.00  0.00    -0.034 A 
ATOM     12  C   LIG    1        3.756  -2.414  -1.216  0.00  0.00    +0.050 A 
ATOM     13  C   LIG    1        4.991  -1.833  -1.453  0.00  0.00    +0.120 A 
ATOM     14  C   LIG    1        5.301  -0.617  -0.861  0.00  0.00    +0.046 A 
ATOM     15  C   LIG    1        4.383  -0.002  -0.036  0.00  0.00    +0.007 A 
ATOM     16  C   LIG    1        3.146  -0.588   0.208  0.00  0.00    -0.045 A 
ATOM     17  C   LIG    1        2.201   0.132   1.133  0.00  0.00    +0.020 C 
ATOM     18  C   LIG    1        0.898  -1.998   1.149  0.00  0.00    -0.014 C 
ATOM     19  C   LIG    1        0.809  -0.472   1.120  0.00  0.00    -0.061 C 
ENDROOT
BRANCH  13  20
ATOM     20  O   LIG    1        5.894  -2.450  -2.260  0.00  0.00    -0.495 OA
ATOM     21  C   LIG    1        7.146  -1.790  -2.457  0.00  0.00    +0.277 C 
ENDBRANCH  13  20
TORSDOF 1
