REMARK  Name = ZINC00598730
REMARK                            x       y       z     vdW  Elec       q    Type
REMARK                         _______ _______ _______ _____ _____    ______ ____
ROOT
ATOM      1  C   LIG    1        3.696  -0.709  -0.038  0.00  0.00    +0.133 C 
ATOM      2  C   LIG    1        3.818  -1.640   1.183  0.00  0.00    +0.145 C 
ATOM      3  N   LIG    1        3.937  -2.986   0.607  0.00  0.00    -0.196 N 
ATOM      4  C   LIG    1        4.067  -4.127   1.312  0.00  0.00    +0.323 C 
ATOM      5  N   LIG    1        4.168  -5.308   0.671  0.00  0.00    -0.268 N 
ATOM      6  H   LIG    1        4.080  -5.345  -0.294  0.00  0.00    +0.156 HD
ATOM      7  O   LIG    1        4.093  -4.091   2.527  0.00  0.00    -0.251 OA
ATOM      8  N   LIG    1        3.894  -2.899  -0.783  0.00  0.00    -0.229 N 
ATOM      9  H   LIG    1        3.956  -3.669  -1.370  0.00  0.00    +0.173 HD
ATOM     10  C   LIG    1        3.760  -1.638  -1.228  0.00  0.00    +0.239 C 
ATOM     11  O   LIG    1        3.699  -1.300  -2.392  0.00  0.00    -0.274 OA
ENDROOT
BRANCH   5  12
ATOM     12  C   LIG    1        4.400  -6.482   1.398  0.00  0.00    +0.035 A 
ATOM     13  C   LIG    1        5.193  -7.488   0.861  0.00  0.00    +0.024 A 
ATOM     14  C   LIG    1        5.420  -8.644   1.580  0.00  0.00    +0.017 A 
ATOM     15  C   LIG    1        4.859  -8.802   2.835  0.00  0.00    +0.018 A 
ATOM     16 BR   LIG    1        5.172 -10.387   3.817  0.00  0.00    -0.050 Br
ATOM     17  C   LIG    1        4.069  -7.801   3.373  0.00  0.00    +0.017 A 
ATOM     18  C   LIG    1        3.843  -6.640   2.660  0.00  0.00    +0.024 A 
ENDBRANCH   5  12
BRANCH   1  22
ATOM     19  C   LIG    1       -0.036   1.368   0.034  0.00  0.00    +0.000 A 
ATOM     20  C   LIG    1        1.149   2.078   0.018  0.00  0.00    +0.000 A 
ATOM     21  C   LIG    1        2.357   1.406  -0.005  0.00  0.00    +0.004 A 
ATOM     22  C   LIG    1        2.379   0.024  -0.012  0.00  0.00    -0.033 A 
ATOM     23  C   LIG    1        1.193  -0.686   0.006  0.00  0.00    +0.004 A 
ATOM     24  C   LIG    1       -0.015  -0.014   0.027  0.00  0.00    +0.000 A 
ENDBRANCH   1  22
BRANCH   2  25
ATOM     25  C   LIG    1        5.047  -1.297   1.985  0.00  0.00    -0.024 A 
ATOM     26  C   LIG    1        6.289  -1.744   1.571  0.00  0.00    +0.005 A 
ATOM     27  C   LIG    1        7.416  -1.429   2.307  0.00  0.00    +0.000 A 
ATOM     28  C   LIG    1        7.302  -0.668   3.455  0.00  0.00    +0.000 A 
ATOM     29  C   LIG    1        6.061  -0.221   3.868  0.00  0.00    +0.000 A 
ATOM     30  C   LIG    1        4.934  -0.532   3.130  0.00  0.00    +0.005 A 
ENDBRANCH   2  25
TORSDOF 3
