REMARK  Name = ZINC00608008
REMARK                            x       y       z     vdW  Elec       q    Type
REMARK                         _______ _______ _______ _____ _____    ______ ____
ROOT
ATOM      1  C   LIG    1        1.701  -0.592  -2.527  0.00  0.00    +0.064 C 
ATOM      2  C   LIG    1        2.170  -0.744  -1.103  0.00  0.00    +0.028 A 
ATOM      3  C   LIG    1        1.428  -0.488  -0.017  0.00  0.00    -0.010 A 
ATOM      4  C   LIG    1        2.264  -0.771   1.155  0.00  0.00    +0.008 A 
ATOM      5  C   LIG    1        2.053  -0.700   2.533  0.00  0.00    +0.056 A 
ATOM      6  C   LIG    1        3.073  -1.045   3.398  0.00  0.00    +0.121 A 
ATOM      7  C   LIG    1        4.304  -1.460   2.900  0.00  0.00    +0.048 A 
ATOM      8  C   LIG    1        4.522  -1.534   1.541  0.00  0.00    +0.030 A 
ATOM      9  C   LIG    1        3.508  -1.191   0.655  0.00  0.00    +0.057 A 
ATOM     10  N   LIG    1        3.423  -1.161  -0.726  0.00  0.00    -0.280 N 
ATOM     11  C   LIG    1        4.417  -1.497  -1.572  0.00  0.00    +0.263 C 
ATOM     12  O   LIG    1        4.583  -2.660  -1.884  0.00  0.00    -0.267 OA
ENDROOT
BRANCH  11  13
ATOM     13  C   LIG    1        5.304  -0.451  -2.121  0.00  0.00    +0.040 A 
ATOM     14  C   LIG    1        5.179   0.871  -1.689  0.00  0.00    +0.015 A 
ATOM     15  C   LIG    1        6.013   1.842  -2.201  0.00  0.00    +0.021 A 
ATOM     16  C   LIG    1        6.966   1.510  -3.151  0.00  0.00    +0.041 A 
ATOM     17 CL   LIG    1        8.009   2.739  -3.796  0.00  0.00    -0.084 Cl
ATOM     18  C   LIG    1        7.091   0.201  -3.587  0.00  0.00    +0.021 A 
ATOM     19  C   LIG    1        6.266  -0.780  -3.078  0.00  0.00    +0.015 A 
ENDBRANCH  11  13
BRANCH   6  20
ATOM     20  O   LIG    1        2.873  -0.978   4.741  0.00  0.00    -0.495 OA
ATOM     21  C   LIG    1        3.970  -1.349   5.579  0.00  0.00    +0.277 C 
ENDBRANCH   6  20
BRANCH   3  22
ATOM     22  C   LIG    1       -0.000  -0.007  -0.002  0.00  0.00    +0.135 C 
BRANCH  22  23
ATOM     23  C   LIG    1       -0.022   1.500   0.004  0.00  0.00    +0.240 C 
ATOM     24  N   LIG    1       -1.200   2.157   0.011  0.00  0.00    -0.197 N 
ATOM     25  H   LIG    1       -2.032   1.659   0.013  0.00  0.00    +0.182 HD
ATOM     26  O   LIG    1        1.019   2.122  -0.003  0.00  0.00    -0.273 OA
BRANCH  24  27
ATOM     27  O   LIG    1       -1.220   3.573   0.017  0.00  0.00    -0.295 OA
ATOM     28  H   LIG    1       -2.109   3.953   0.022  0.00  0.00    +0.241 HD
ENDBRANCH  24  27
ENDBRANCH  22  23
ENDBRANCH   3  22
TORSDOF 5
