REMARK  Name = ZINC00392003
REMARK                            x       y       z     vdW  Elec       q    Type
REMARK                         _______ _______ _______ _____ _____    ______ ____
ROOT
ATOM      1  C   LIG    1       -0.017   1.389   0.010  0.00  0.00    +0.000 A 
ATOM      2  C   LIG    1        1.043   2.271   0.004  0.00  0.00    +0.004 A 
ATOM      3  C   LIG    1        2.408   1.999  -0.010  0.00  0.00    +0.049 A 
ATOM      4  C   LIG    1        3.042   0.771  -0.023  0.00  0.00    +0.164 A 
ATOM      5  C   LIG    1        2.454  -0.519  -0.025  0.00  0.00    +0.220 A 
ATOM      6  C   LIG    1        1.087  -0.852  -0.013  0.00  0.00    +0.054 A 
ATOM      7  O   LIG    1        3.233  -1.462  -0.038  0.00  0.00    -0.284 OA
ATOM      8  C   LIG    1        0.002  -0.004   0.002  0.00  0.00    +0.004 A 
ENDROOT
BRANCH   4   9
ATOM      9  O   LIG    1        4.396   0.804  -0.036  0.00  0.00    -0.503 OA
ATOM     10  H   LIG    1        4.811  -0.070  -0.045  0.00  0.00    +0.292 HD
ENDBRANCH   4   9
TORSDOF 1
