REMARK  Name = ZINC00403368
REMARK                            x       y       z     vdW  Elec       q    Type
REMARK                         _______ _______ _______ _____ _____    ______ ____
ROOT
ATOM      1  C   LIG    1       -0.013   1.076   0.008  0.00  0.00    +0.020 A 
ATOM      2  C   LIG    1        1.174   1.794   0.001  0.00  0.00    +0.006 A 
ATOM      3  C   LIG    1        1.107   3.179   0.009  0.00  0.00    -0.031 A 
ATOM      4  C   LIG    1       -0.132   3.793   0.024  0.00  0.00    +0.114 A 
ATOM      5  N   LIG    1       -1.239   3.078   0.030  0.00  0.00    -0.263 NA
ATOM      6  C   LIG    1       -1.214   1.759   0.017  0.00  0.00    +0.111 A 
ENDROOT
BRANCH   3   7
ATOM      7  C   LIG    1        2.368   4.004   0.002  0.00  0.00    +0.017 C 
BRANCH   7   8
ATOM      8  C   LIG    1        2.781   4.291  -1.443  0.00  0.00    -0.082 C 
BRANCH   8   9
ATOM      9  N   LIG    1        4.026   5.079  -1.439  0.00  0.00    +0.378 N 
ATOM     10  H   LIG    1        4.770   4.532  -0.990  0.00  0.00    -0.090 HD
ATOM     11  H   LIG    1        3.890   5.944  -0.918  0.00  0.00    -0.090 HD
ATOM     12  H   LIG    1        4.304   5.298  -2.394  0.00  0.00    -0.090 HD
ENDBRANCH   8   9
ENDBRANCH   7   8
ENDBRANCH   3   7
TORSDOF 3
