REMARK  Name = ZINC00538275
REMARK                            x       y       z     vdW  Elec       q    Type
REMARK                         _______ _______ _______ _____ _____    ______ ____
ROOT
ATOM      1  C   LIG    1       -1.886  -2.167  -1.162  0.00  0.00    +0.031 A 
ATOM      2  C   LIG    1       -1.478  -2.747   0.032  0.00  0.00    +0.045 A 
ATOM      3  C   LIG    1       -2.208  -2.391   1.252  0.00  0.00    +0.001 A 
ATOM      4  C   LIG    1       -1.981  -2.848   2.570  0.00  0.00    +0.013 A 
ATOM      5  C   LIG    1       -2.764  -2.413   3.607  0.00  0.00    +0.046 A 
ATOM      6  C   LIG    1       -3.803  -1.512   3.397  0.00  0.00    +0.118 A 
ATOM      7  C   LIG    1       -4.050  -1.046   2.116  0.00  0.00    +0.061 A 
ATOM      8  C   LIG    1       -3.265  -1.480   1.068  0.00  0.00    +0.024 A 
ATOM      9  S   LIG    1       -3.250  -1.131  -0.672  0.00  0.00    -0.087 S 
ENDROOT
BRANCH   1  15
ATOM     10  C   LIG    1       -1.056  -3.647  -2.983  0.00  0.00    +0.012 A 
ATOM     11  C   LIG    1       -0.529  -3.821  -4.244  0.00  0.00    +0.046 A 
ATOM     12  C   LIG    1       -0.262  -2.718  -5.046  0.00  0.00    +0.117 A 
ATOM     13  C   LIG    1       -0.524  -1.435  -4.580  0.00  0.00    +0.046 A 
ATOM     14  C   LIG    1       -1.051  -1.252  -3.321  0.00  0.00    +0.012 A 
ATOM     15  C   LIG    1       -1.321  -2.358  -2.511  0.00  0.00    -0.010 A 
BRANCH  12  16
ATOM     16  O   LIG    1        0.258  -2.894  -6.288  0.00  0.00    -0.507 OA
ATOM     17  H   LIG    1       -0.408  -2.991  -6.983  0.00  0.00    +0.292 HD
ENDBRANCH  12  16
ENDBRANCH   1  15
BRANCH   2  18
ATOM     18  C   LIG    1       -0.355  -3.684   0.072  0.00  0.00    +0.195 C 
ATOM     19  O   LIG    1       -0.560  -4.883   0.011  0.00  0.00    -0.287 OA
BRANCH  18  20
ATOM     20  C   LIG    1        1.027  -3.175   0.185  0.00  0.00    +0.023 A 
ATOM     21  C   LIG    1        1.258  -1.808   0.359  0.00  0.00    +0.015 A 
ATOM     22  C   LIG    1        2.549  -1.338   0.464  0.00  0.00    +0.046 A 
ATOM     23  C   LIG    1        3.620  -2.221   0.398  0.00  0.00    +0.120 A 
ATOM     24  C   LIG    1        3.394  -3.582   0.225  0.00  0.00    +0.046 A 
ATOM     25  C   LIG    1        2.106  -4.061   0.125  0.00  0.00    +0.015 A 
BRANCH  23  26
ATOM     26  O   LIG    1        4.890  -1.754   0.502  0.00  0.00    -0.494 OA
BRANCH  26  27
ATOM     27  C   LIG    1        5.943  -2.717   0.426  0.00  0.00    +0.210 C 
BRANCH  27  28
ATOM     28  C   LIG    1        7.292  -2.008   0.562  0.00  0.00    -0.037 C 
BRANCH  28  29
ATOM     29  N   LIG    1        7.393  -1.399   1.895  0.00  0.00    +0.382 N 
ATOM     30  H   LIG    1        6.593  -0.805   2.054  0.00  0.00    -0.082 HD
ATOM     31  C   LIG    1        8.618  -0.594   1.973  0.00  0.00    -0.079 C 
ATOM     32  C   LIG    1        8.687   0.108   3.330  0.00  0.00    -0.019 C 
ATOM     33  C   LIG    1        8.694  -0.944   4.443  0.00  0.00    -0.004 C 
ATOM     34  C   LIG    1        7.448  -1.825   4.308  0.00  0.00    -0.019 C 
ATOM     35  C   LIG    1        7.425  -2.455   2.913  0.00  0.00    -0.079 C 
ENDBRANCH  28  29
ENDBRANCH  27  28
ENDBRANCH  26  27
ENDBRANCH  23  26
ENDBRANCH  18  20
ENDBRANCH   2  18
BRANCH   6  36
ATOM     36  O   LIG    1       -4.569  -1.093   4.439  0.00  0.00    -0.507 OA
ATOM     37  H   LIG    1       -4.236  -0.299   4.878  0.00  0.00    +0.292 HD
ENDBRANCH   6  36
TORSDOF 9
