REMARK  Name = ZINC00608368
REMARK                            x       y       z     vdW  Elec       q    Type
REMARK                         _______ _______ _______ _____ _____    ______ ____
ROOT
ATOM      1  C   LIG    1        5.219  -2.759  -2.449  0.00  0.00    +0.022 C 
ATOM      2  C   LIG    1        5.921  -2.800  -1.278  0.00  0.00    +0.021 C 
ATOM      3  C   LIG    1        7.245  -2.368  -1.245  0.00  0.00    +0.081 C 
ATOM      4  N   LIG    1        7.849  -1.915  -2.317  0.00  0.00    -0.313 NA
ATOM      5  H   LIG    1        8.772  -1.623  -2.255  0.00  0.00    +0.122 HD
ATOM      6  C   LIG    1        7.220  -1.848  -3.494  0.00  0.00    +0.057 C 
ATOM      7  C   LIG    1        7.875  -1.361  -4.639  0.00  0.00    +0.021 C 
ATOM      8  C   LIG    1        7.216  -1.318  -5.828  0.00  0.00    +0.033 C 
ATOM      9  C   LIG    1        5.885  -1.737  -5.930  0.00  0.00    +0.119 C 
ATOM     10  C   LIG    1        5.216  -2.210  -4.837  0.00  0.00    +0.037 C 
ATOM     11  C   LIG    1        5.873  -2.277  -3.599  0.00  0.00    +0.014 C 
ENDROOT
BRANCH   1  12
ATOM     12  C   LIG    1        3.786  -3.221  -2.509  0.00  0.00    +0.105 C 
BRANCH  12  19
ATOM     13  C   LIG    1        0.598  -0.354  -2.395  0.00  0.00    -0.025 C 
ATOM     14  C   LIG    1        0.593  -1.553  -1.445  0.00  0.00    -0.075 C 
ATOM     15  N   LIG    1        1.491  -2.595  -1.948  0.00  0.00    +0.383 N 
ATOM     16  H   LIG    1        1.466  -3.375  -1.307  0.00  0.00    -0.081 HD
ATOM     17  C   LIG    1        1.044  -3.072  -3.259  0.00  0.00    -0.078 C 
ATOM     18  C   LIG    1        1.064  -1.923  -4.269  0.00  0.00    -0.015 C 
ATOM     19  C   LIG    1        2.867  -2.099  -2.021  0.00  0.00    -0.039 C 
ATOM     20  C   LIG    1        2.948  -0.915  -2.991  0.00  0.00    -0.009 C 
ATOM     21  C   LIG    1        1.550  -0.648  -3.562  0.00  0.00    -0.013 C 
BRANCH  13  23
ATOM     22  C   LIG    1       -1.737   0.289  -1.781  0.00  0.00    +0.004 C 
ATOM     23  C   LIG    1       -0.815  -0.119  -2.932  0.00  0.00    -0.002 C 
ENDBRANCH  13  23
ENDBRANCH  12  19
BRANCH  12  24
ATOM     24  O   LIG    1        3.620  -4.370  -1.675  0.00  0.00    -0.393 OA
ATOM     25  H   LIG    1        3.745  -4.192  -0.733  0.00  0.00    +0.210 HD
ENDBRANCH  12  24
ENDBRANCH   1  12
BRANCH   9  26
ATOM     26  O   LIG    1        5.251  -1.672  -7.130  0.00  0.00    -0.377 OA
BRANCH  26  27
ATOM     27  C   LIG    1        6.003  -1.167  -8.235  0.00  0.00    +0.160 C 
BRANCH  27  28
ATOM     28  C   LIG    1        5.129  -1.169  -9.491  0.00  0.00    +0.031 C 
BRANCH  28  29
ATOM     29  C   LIG    1        5.934  -0.629 -10.674  0.00  0.00    -0.015 C 
ATOM     30  C   LIG    1        5.025  -0.514 -11.900  0.00  0.00    +0.007 C 
ATOM     31  C   LIG    1        7.088  -1.585 -10.984  0.00  0.00    +0.007 C 
ENDBRANCH  28  29
ENDBRANCH  27  28
ENDBRANCH  26  27
ENDBRANCH   9  26
TORSDOF 8
