REMARK  Name = ZINC00537744
REMARK                            x       y       z     vdW  Elec       q    Type
REMARK                         _______ _______ _______ _____ _____    ______ ____
ROOT
ATOM      1  N   LIG    1        1.238  -2.079  -0.021  0.00  0.00    -0.281 N 
ATOM      2  H   LIG    1        2.081  -2.550  -0.109  0.00  0.00    +0.155 HD
ATOM      3  C   LIG    1        0.087  -2.772   0.089  0.00  0.00    +0.252 C 
ATOM      4  O   LIG    1       -0.978  -2.185   0.102  0.00  0.00    -0.270 OA
ENDROOT
BRANCH   3   5
ATOM      5  C   LIG    1        0.119  -4.243   0.192  0.00  0.00    +0.080 A 
ATOM      6  C   LIG    1        1.341  -4.922   0.182  0.00  0.00    +0.032 A 
ATOM      7  C   LIG    1        1.364  -6.297   0.279  0.00  0.00    +0.020 A 
ATOM      8 BR   LIG    1        3.018  -7.213   0.266  0.00  0.00    -0.050 Br
ATOM      9  C   LIG    1        0.180  -7.010   0.386  0.00  0.00    +0.034 A 
ATOM     10  C   LIG    1       -1.034  -6.352   0.396  0.00  0.00    +0.061 A 
ATOM     11 BR   LIG    1       -2.641  -7.337   0.542  0.00  0.00    -0.046 Br
ATOM     12  C   LIG    1       -1.075  -4.968   0.306  0.00  0.00    +0.143 A 
BRANCH  12  13
ATOM     13  O   LIG    1       -2.267  -4.319   0.321  0.00  0.00    -0.505 OA
ATOM     14  H   LIG    1       -2.292  -3.384   0.260  0.00  0.00    +0.292 HD
ENDBRANCH  12  13
ENDBRANCH   3   5
BRANCH   1  19
ATOM     15  C   LIG    1        2.115   1.418  -0.741  0.00  0.00    +0.002 A 
ATOM     16  C   LIG    1        1.172   2.086   0.020  0.00  0.00    +0.012 A 
ATOM     17  C   LIG    1        0.253   1.374   0.768  0.00  0.00    +0.057 A 
ATOM     18  C   LIG    1        0.272  -0.007   0.756  0.00  0.00    +0.035 A 
ATOM     19  C   LIG    1        1.216  -0.681  -0.007  0.00  0.00    +0.034 A 
ATOM     20  C   LIG    1        2.139   0.037  -0.757  0.00  0.00    +0.023 A 
BRANCH  17  21
ATOM     21  C   LIG    1       -0.771   2.106   1.596  0.00  0.00    +0.417 C 
ATOM     22  F   LIG    1       -0.617   1.758   2.943  0.00  0.00    -0.166 F 
ATOM     23  F   LIG    1       -2.056   1.754   1.168  0.00  0.00    -0.166 F 
ATOM     24  F   LIG    1       -0.592   3.486   1.448  0.00  0.00    -0.166 F 
ENDBRANCH  17  21
ENDBRANCH   1  19
TORSDOF 4
