REMARK  Name = ZINC00598220
REMARK                            x       y       z     vdW  Elec       q    Type
REMARK                         _______ _______ _______ _____ _____    ______ ____
ROOT
ATOM      1  C   LIG    1        0.032  -3.778  -5.317  0.00  0.00    +0.023 C 
ATOM      2  C   LIG    1       -1.291  -3.077  -5.637  0.00  0.00    -0.012 C 
ATOM      3  C   LIG    1       -1.330  -2.727  -7.126  0.00  0.00    -0.078 C 
ATOM      4  N   LIG    1       -1.219  -3.955  -7.924  0.00  0.00    +0.381 N 
ATOM      5  H   LIG    1       -1.960  -4.589  -7.667  0.00  0.00    -0.082 HD
ATOM      6  C   LIG    1        0.079  -4.595  -7.675  0.00  0.00    -0.078 C 
ATOM      7  C   LIG    1        0.171  -5.016  -6.207  0.00  0.00    -0.012 C 
ENDROOT
BRANCH   1   8
ATOM      8  C   LIG    1        0.044  -4.201  -3.846  0.00  0.00    +0.235 C 
BRANCH   8   9
ATOM      9  O   LIG    1        0.032  -3.038  -3.016  0.00  0.00    -0.461 OA
BRANCH   9  10
ATOM     10  C   LIG    1        0.040  -3.238  -1.683  0.00  0.00    +0.341 C 
ATOM     11  O   LIG    1        0.058  -4.369  -1.238  0.00  0.00    -0.245 OA
BRANCH  10  15
ATOM     12  C   LIG    1       -0.018   1.461   0.010  0.00  0.00    +0.149 C 
ATOM     13  N   LIG    1        0.002  -0.004   0.002  0.00  0.00    -0.349 N 
ATOM     14  C   LIG    1        0.008  -0.770  -1.114  0.00  0.00    +0.101 A 
ATOM     15  C   LIG    1        0.028  -2.090  -0.768  0.00  0.00    +0.084 A 
ATOM     16  C   LIG    1        0.035  -2.135   0.706  0.00  0.00    +0.014 A 
ATOM     17  C   LIG    1        0.054  -3.165   1.642  0.00  0.00    +0.011 A 
ATOM     18  C   LIG    1        0.070  -2.865   2.987  0.00  0.00    +0.001 A 
ATOM     19  C   LIG    1        0.055  -1.544   3.409  0.00  0.00    +0.002 A 
ATOM     20  C   LIG    1        0.032  -0.514   2.493  0.00  0.00    +0.026 A 
ATOM     21  C   LIG    1        0.024  -0.797   1.131  0.00  0.00    +0.050 A 
ENDBRANCH  10  15
ENDBRANCH   9  10
ENDBRANCH   8   9
ENDBRANCH   1   8
BRANCH   4  22
ATOM     22  C   LIG    1       -1.334  -3.623  -9.350  0.00  0.00    -0.062 C 
BRANCH  22  23
ATOM     23  C   LIG    1       -1.344  -4.911 -10.175  0.00  0.00    +0.087 C 
BRANCH  23  24
ATOM     24  N   LIG    1       -1.459  -4.580 -11.597  0.00  0.00    -0.197 NA
ATOM     25  H   LIG    1       -1.731  -3.689 -11.867  0.00  0.00    +0.148 HD
BRANCH  24  26
ATOM     26  S   LIG    1       -1.125  -5.727 -12.744  0.00  0.00    +0.026 S 
ATOM     27  C   LIG    1       -2.399  -6.998 -12.516  0.00  0.00    +0.214 C 
ATOM     28  O   LIG    1        0.149  -6.240 -12.383  0.00  0.00    -0.158 OA
ATOM     29  O   LIG    1       -1.313  -5.063 -13.986  0.00  0.00    -0.158 OA
ENDBRANCH  24  26
ENDBRANCH  23  24
ENDBRANCH  22  23
ENDBRANCH   4  22
TORSDOF 8
