REMARK  Name = ZINC00620463
REMARK                            x       y       z     vdW  Elec       q    Type
REMARK                         _______ _______ _______ _____ _____    ______ ____
ROOT
ATOM      1  C   LIG    1       -1.094   1.629  -0.016  0.00  0.00    +0.033 A 
ATOM      2  C   LIG    1       -1.365   2.806  -0.706  0.00  0.00    +0.024 A 
ATOM      3  C   LIG    1       -2.599   3.405  -0.590  0.00  0.00    +0.015 A 
ATOM      4  C   LIG    1       -3.577   2.834   0.229  0.00  0.00    +0.037 A 
ATOM      5  C   LIG    1       -3.300   1.654   0.925  0.00  0.00    +0.015 A 
ATOM      6  C   LIG    1       -2.065   1.058   0.801  0.00  0.00    +0.024 A 
ENDROOT
BRANCH   4   7
ATOM      7  C   LIG    1       -4.899   3.476   0.358  0.00  0.00    +0.251 C 
ATOM      8  N   LIG    1       -5.026   4.803   0.165  0.00  0.00    -0.267 N 
ATOM      9  C   LIG    1       -3.838   5.647  -0.029  0.00  0.00    +0.114 C 
ATOM     10  C   LIG    1       -4.008   6.906   0.823  0.00  0.00    +0.024 C 
ATOM     11  C   LIG    1       -5.225   7.684   0.323  0.00  0.00    +0.038 C 
ATOM     12  C   LIG    1       -6.426   6.781   0.228  0.00  0.00    -0.026 A 
ATOM     13  C   LIG    1       -7.690   7.346   0.216  0.00  0.00    +0.005 A 
ATOM     14  C   LIG    1       -8.812   6.544   0.125  0.00  0.00    +0.000 A 
ATOM     15  C   LIG    1       -8.678   5.170   0.045  0.00  0.00    +0.002 A 
ATOM     16  C   LIG    1       -7.422   4.599   0.058  0.00  0.00    +0.024 A 
ATOM     17  C   LIG    1       -6.292   5.403   0.150  0.00  0.00    +0.040 A 
ATOM     18  O   LIG    1       -5.875   2.807   0.640  0.00  0.00    -0.270 OA
ENDBRANCH   4   7
BRANCH   1  20
ATOM     19  C   LIG    1        0.694   0.369   0.910  0.00  0.00    +0.217 C 
ATOM     20  N   LIG    1        0.156   1.022  -0.139  0.00  0.00    -0.285 N 
ATOM     21  H   LIG    1        0.639   1.073  -0.978  0.00  0.00    +0.155 HD
ATOM     22  O   LIG    1        0.137   0.389   1.988  0.00  0.00    -0.275 OA
BRANCH  19  23
ATOM     23  C   LIG    1        1.988  -0.385   0.745  0.00  0.00    +0.096 C 
BRANCH  23  25
ATOM     24  C   LIG    1        3.690  -1.796   1.909  0.00  0.00    +0.004 C 
ATOM     25  C   LIG    1        2.376  -1.030   2.077  0.00  0.00    +0.006 C 
ENDBRANCH  23  25
ENDBRANCH  19  23
ENDBRANCH   1  20
TORSDOF 4
