REMARK  Name = ZINC00597013
REMARK                            x       y       z     vdW  Elec       q    Type
REMARK                         _______ _______ _______ _____ _____    ______ ____
ROOT
ATOM      1  C   LIG    1        2.299  -0.981  -6.577  0.00  0.00    +0.015 C 
ENDROOT
BRANCH   1   7
ATOM      2  C   LIG    1        0.605  -0.606  -1.054  0.00  0.00    +0.162 A 
ATOM      3  C   LIG    1        1.172   0.163  -2.061  0.00  0.00    +0.053 A 
ATOM      4  C   LIG    1        1.787  -0.441  -3.139  0.00  0.00    -0.033 A 
ATOM      5  C   LIG    1        1.842  -1.834  -3.222  0.00  0.00    +0.025 A 
ATOM      6  C   LIG    1        2.539  -2.253  -4.446  0.00  0.00    +0.167 C 
ATOM      7  C   LIG    1        2.958  -1.013  -5.197  0.00  0.00    +0.065 C 
ATOM      8  O   LIG    1        2.742  -3.398  -4.792  0.00  0.00    -0.292 OA
ATOM      9  C   LIG    1        1.266  -2.611  -2.201  0.00  0.00    +0.061 A 
ATOM     10  C   LIG    1        2.467   0.165  -4.343  0.00  0.00    +0.047 C 
ATOM     11  C   LIG    1        0.660  -1.998  -1.125  0.00  0.00    +0.162 A 
BRANCH   2  13
ATOM     12  C   LIG    1       -0.017   1.425   0.010  0.00  0.00    +0.277 C 
ATOM     13  O   LIG    1        0.002  -0.004   0.002  0.00  0.00    -0.491 OA
ENDBRANCH   2  13
BRANCH  11  14
ATOM     14  O   LIG    1        0.109  -2.752  -0.136  0.00  0.00    -0.491 OA
ATOM     15  C   LIG    1        0.201  -4.171  -0.274  0.00  0.00    +0.277 C 
ENDBRANCH  11  14
ENDBRANCH   1   7
BRANCH   1  16
ATOM     16  C   LIG    1        2.848  -2.126  -7.431  0.00  0.00    -0.014 C 
ATOM     17  C   LIG    1        4.338  -1.897  -7.698  0.00  0.00    -0.015 C 
ATOM     18  C   LIG    1        4.861  -3.003  -8.617  0.00  0.00    -0.078 C 
ATOM     19  N   LIG    1        4.125  -2.978  -9.887  0.00  0.00    +0.382 N 
ATOM     20  H   LIG    1        4.214  -2.065 -10.308  0.00  0.00    -0.081 HD
ATOM     21  C   LIG    1        2.707  -3.268  -9.646  0.00  0.00    -0.078 C 
ATOM     22  C   LIG    1        2.100  -2.172  -8.767  0.00  0.00    -0.015 C 
BRANCH  19  23
ATOM     23  C   LIG    1        4.683  -3.989 -10.795  0.00  0.00    -0.043 C 
BRANCH  23  24
ATOM     24  C   LIG    1        4.011  -3.882 -12.140  0.00  0.00    -0.064 A 
ATOM     25  C   LIG    1        2.864  -4.608 -12.399  0.00  0.00    +0.002 A 
ATOM     26  C   LIG    1        2.248  -4.510 -13.633  0.00  0.00    +0.000 A 
ATOM     27  C   LIG    1        2.779  -3.685 -14.607  0.00  0.00    +0.000 A 
ATOM     28  C   LIG    1        3.926  -2.958 -14.347  0.00  0.00    +0.000 A 
ATOM     29  C   LIG    1        4.539  -3.053 -13.112  0.00  0.00    +0.002 A 
ENDBRANCH  23  24
ENDBRANCH  19  23
ENDBRANCH   1  16
TORSDOF 6
