REMARK  Name = ZINC00404160
REMARK                            x       y       z     vdW  Elec       q    Type
REMARK                         _______ _______ _______ _____ _____    ______ ____
ROOT
ATOM      1  C   LIG    1       -1.187   1.624   0.017  0.00  0.00    +0.248 C 
ATOM      2  N   LIG    1       -0.011   0.966   0.007  0.00  0.00    -0.306 N 
ATOM      3  H   LIG    1        0.002  -0.004   0.002  0.00  0.00    +0.149 HD
ATOM      4  O   LIG    1       -1.204   2.840   0.023  0.00  0.00    -0.270 OA
ENDROOT
BRANCH   2   5
ATOM      5  C   LIG    1        1.248   1.716  -0.001  0.00  0.00    +0.098 C 
ATOM      6  C   LIG    1        1.609   2.093  -1.440  0.00  0.00    +0.006 C 
ATOM      7  C   LIG    1        1.822   0.818  -2.259  0.00  0.00    -0.081 C 
ATOM      8  N   LIG    1        2.910   0.020  -1.662  0.00  0.00    +0.381 N 
ATOM      9  H   LIG    1        3.070  -0.817  -2.236  0.00  0.00    -0.086 HD
ATOM     10  H   LIG    1        3.768   0.584  -1.635  0.00  0.00    -0.086 HD
ATOM     11  C   LIG    1        2.555  -0.392  -0.291  0.00  0.00    -0.049 C 
ATOM     12  C   LIG    1        2.364   0.848   0.587  0.00  0.00    +0.121 C 
BRANCH  12  13
ATOM     13  O   LIG    1        2.008   0.444   1.911  0.00  0.00    -0.380 OA
ATOM     14  C   LIG    1        3.126   0.247   2.779  0.00  0.00    +0.194 C 
ENDBRANCH  12  13
ENDBRANCH   2   5
BRANCH   1  21
ATOM     15  C   LIG    1       -3.678   1.553   0.028  0.00  0.00    +0.134 A 
ATOM     16  C   LIG    1       -4.862   0.836   0.030  0.00  0.00    +0.070 A 
ATOM     17  C   LIG    1       -4.830  -0.553   0.022  0.00  0.00    +0.047 A 
ATOM     18  C   LIG    1       -3.609  -1.227   0.013  0.00  0.00    +0.062 A 
ATOM     19 CL   LIG    1       -3.581  -2.963   0.003  0.00  0.00    -0.082 Cl
ATOM     20  C   LIG    1       -2.436  -0.529   0.005  0.00  0.00    +0.038 A 
ATOM     21  C   LIG    1       -2.452   0.870   0.018  0.00  0.00    +0.080 A 
BRANCH  17  22
ATOM     22  N   LIG    1       -6.020  -1.274   0.023  0.00  0.00    -0.357 N 
ATOM     23  H   LIG    1       -6.000  -2.243   0.018  0.00  0.00    +0.142 HD
ATOM     24  H   LIG    1       -6.870  -0.806   0.030  0.00  0.00    +0.142 HD
ENDBRANCH  17  22
BRANCH  15  26
ATOM     25  C   LIG    1       -4.988   3.535   0.045  0.00  0.00    +0.277 C 
ATOM     26  O   LIG    1       -3.703   2.910   0.036  0.00  0.00    -0.494 OA
ENDBRANCH  15  26
ENDBRANCH   1  21
TORSDOF 5
