REMARK  Name = ZINC00613611
REMARK                            x       y       z     vdW  Elec       q    Type
REMARK                         _______ _______ _______ _____ _____    ______ ____
ROOT
ATOM      1  C   LIG    1        4.982  -2.714  -0.061  0.00  0.00    +0.080 A 
ATOM      2  C   LIG    1        5.011  -4.050   0.227  0.00  0.00    +0.076 A 
ATOM      3  S   LIG    1        6.774  -4.328   0.339  0.00  0.00    -0.060 S 
ATOM      4  C   LIG    1        7.290  -2.652  -0.007  0.00  0.00    +0.163 A 
ATOM      5  N   LIG    1        6.128  -2.047  -0.176  0.00  0.00    -0.225 NA
ENDROOT
BRANCH   1  11
ATOM      6  C   LIG    1       -0.006   1.244  -1.067  0.00  0.00    +0.001 A 
ATOM      7  C   LIG    1        1.180   1.965  -1.192  0.00  0.00    +0.001 A 
ATOM      8  C   LIG    1        2.388   1.360  -1.027  0.00  0.00    +0.008 A 
ATOM      9  C   LIG    1        2.444  -0.012  -0.724  0.00  0.00    -0.017 A 
ATOM     10  C   LIG    1        3.673  -0.667  -0.547  0.00  0.00    +0.018 A 
ATOM     11  C   LIG    1        3.687  -2.017  -0.250  0.00  0.00    +0.002 A 
ATOM     12  C   LIG    1        2.485  -2.734  -0.127  0.00  0.00    +0.010 A 
ATOM     13  C   LIG    1        1.287  -2.119  -0.295  0.00  0.00    +0.009 A 
ATOM     14  C   LIG    1        1.238  -0.746  -0.597  0.00  0.00    -0.018 A 
ATOM     15  C   LIG    1        0.010  -0.086  -0.775  0.00  0.00    +0.008 A 
ENDBRANCH   1  11
BRANCH   4  16
ATOM     16  N   LIG    1        8.570  -2.127  -0.082  0.00  0.00    -0.294 N 
ATOM     17  H   LIG    1        8.697  -1.172  -0.196  0.00  0.00    +0.154 HD
BRANCH  16  18
ATOM     18  C   LIG    1        9.681  -2.975   0.008  0.00  0.00    +0.033 A 
ATOM     19  C   LIG    1        9.652  -4.223  -0.600  0.00  0.00    +0.027 A 
ATOM     20  C   LIG    1       10.748  -5.059  -0.511  0.00  0.00    +0.047 A 
ATOM     21  C   LIG    1       11.877  -4.651   0.185  0.00  0.00    +0.117 A 
ATOM     22  C   LIG    1       11.906  -3.405   0.793  0.00  0.00    +0.047 A 
ATOM     23  C   LIG    1       10.813  -2.565   0.700  0.00  0.00    +0.027 A 
BRANCH  21  24
ATOM     24  O   LIG    1       12.955  -5.475   0.273  0.00  0.00    -0.507 OA
ATOM     25  H   LIG    1       13.597  -5.361  -0.442  0.00  0.00    +0.292 HD
ENDBRANCH  21  24
ENDBRANCH  16  18
ENDBRANCH   4  16
TORSDOF 4
