REMARK  Name = ZINC00398657
REMARK                            x       y       z     vdW  Elec       q    Type
REMARK                         _______ _______ _______ _____ _____    ______ ____
ROOT
ATOM      1  C   LIG    1        0.176  -4.767   1.160  0.00  0.00    +0.406 C 
ATOM      2  N   LIG    1        0.300  -6.108   1.192  0.00  0.00    -0.278 N 
ATOM      3  H   LIG    1        0.304  -6.615   0.365  0.00  0.00    +0.152 HD
ATOM      4  O   LIG    1        0.172  -4.132   2.196  0.00  0.00    -0.226 OA
ENDROOT
BRANCH   2   5
ATOM      5  C   LIG    1        0.429  -6.801   2.476  0.00  0.00    +0.076 C 
ATOM      6  C   LIG    1       -0.963  -7.063   3.057  0.00  0.00    +0.022 C 
ATOM      7  C   LIG    1       -0.829  -7.787   4.398  0.00  0.00    +0.002 C 
ATOM      8  C   LIG    1       -0.105  -9.118   4.188  0.00  0.00    +0.000 C 
ATOM      9  C   LIG    1        1.286  -8.857   3.608  0.00  0.00    +0.002 C 
ATOM     10  C   LIG    1        1.152  -8.133   2.267  0.00  0.00    +0.022 C 
ENDBRANCH   2   5
BRANCH   1  11
ATOM     11  O   LIG    1        0.058  -4.129  -0.021  0.00  0.00    -0.412 OA
BRANCH  11  16
ATOM     12  C   LIG    1        0.064   1.503   0.001  0.00  0.00    +0.044 C 
ATOM     13  C   LIG    1        0.062  -0.004  -0.005  0.00  0.00    -0.050 A 
ATOM     14  C   LIG    1        1.224  -0.696   0.283  0.00  0.00    +0.007 A 
ATOM     15  C   LIG    1        1.225  -2.078   0.278  0.00  0.00    +0.047 A 
ATOM     16  C   LIG    1        0.059  -2.770  -0.015  0.00  0.00    +0.133 A 
ATOM     17  C   LIG    1       -1.105  -2.073  -0.303  0.00  0.00    +0.047 A 
ATOM     18  C   LIG    1       -1.102  -0.692  -0.292  0.00  0.00    +0.007 A 
ENDBRANCH  11  16
ENDBRANCH   1  11
TORSDOF 3
