REMARK  Name = ZINC00529763
REMARK                            x       y       z     vdW  Elec       q    Type
REMARK                         _______ _______ _______ _____ _____    ______ ____
ROOT
ATOM      1  C   LIG    1        3.658   2.086  -0.024  0.00  0.00    +0.155 C 
ATOM      2  N   LIG    1        2.373   1.381  -0.014  0.00  0.00    -0.281 N 
ATOM      3  C   LIG    1        1.189   2.100   0.002  0.00  0.00    +0.146 A 
ATOM      4  N   LIG    1        0.906   3.404   0.012  0.00  0.00    -0.325 N 
ATOM      5  H   LIG    1        1.601   4.160   0.009  0.00  0.00    +0.169 HD
ATOM      6  C   LIG    1       -0.404   3.575   0.025  0.00  0.00    +0.118 A 
ATOM      7  N   LIG    1       -1.018   2.359   0.019  0.00  0.00    -0.334 N 
ATOM      8  H   LIG    1       -2.003   2.189   0.021  0.00  0.00    +0.168 HD
ATOM      9  C   LIG    1       -0.017   1.406   0.010  0.00  0.00    +0.147 A 
ATOM     10  C   LIG    1        0.002  -0.004   0.002  0.00  0.00    +0.282 A 
ATOM     11  N   LIG    1        1.188  -0.647  -0.013  0.00  0.00    -0.262 N 
ATOM     12  C   LIG    1        1.214  -2.112  -0.021  0.00  0.00    +0.157 C 
ATOM     13  O   LIG    1       -1.040  -0.634   0.008  0.00  0.00    -0.265 OA
ATOM     14  C   LIG    1        2.346   0.035  -0.021  0.00  0.00    +0.333 A 
ATOM     15  O   LIG    1        3.395  -0.579  -0.034  0.00  0.00    -0.246 OA
ENDROOT
BRANCH   6  16
ATOM     16  C   LIG    1       -1.093   4.881   0.039  0.00  0.00    +0.016 A 
ATOM     17  C   LIG    1       -2.489   4.936   0.048  0.00  0.00    +0.015 A 
ATOM     18  C   LIG    1       -3.128   6.156   0.065  0.00  0.00    +0.046 A 
ATOM     19  C   LIG    1       -2.386   7.331   0.065  0.00  0.00    +0.117 A 
ATOM     20  C   LIG    1       -0.998   7.281   0.051  0.00  0.00    +0.046 A 
ATOM     21  C   LIG    1       -0.351   6.064   0.038  0.00  0.00    +0.015 A 
BRANCH  19  22
ATOM     22  O   LIG    1       -3.020   8.532   0.077  0.00  0.00    -0.507 OA
ATOM     23  H   LIG    1       -3.212   8.884  -0.803  0.00  0.00    +0.292 HD
ENDBRANCH  19  22
ENDBRANCH   6  16
TORSDOF 2
