REMARK  Name = ZINC00537755
REMARK                            x       y       z     vdW  Elec       q    Type
REMARK                         _______ _______ _______ _____ _____    ______ ____
ROOT
ATOM      1  N   LIG    1        1.806  -0.919  -1.552  0.00  0.00    -0.300 N 
ATOM      2  C   LIG    1        2.974  -0.300  -2.194  0.00  0.00    +0.214 C 
ATOM      3  N   LIG    1        3.921  -1.362  -2.531  0.00  0.00    -0.298 N 
ATOM      4  H   LIG    1        4.778  -1.223  -2.965  0.00  0.00    +0.150 HD
ATOM      5  C   LIG    1        3.435  -2.557  -2.155  0.00  0.00    +0.238 C 
ATOM      6  O   LIG    1        3.995  -3.622  -2.302  0.00  0.00    -0.273 OA
ATOM      7  C   LIG    1        2.087  -2.359  -1.514  0.00  0.00    +0.109 C 
ATOM      8  C   LIG    1        1.018  -3.121  -2.299  0.00  0.00    +0.017 C 
ATOM      9  C   LIG    1        1.291  -4.623  -2.195  0.00  0.00    -0.076 C 
ATOM     10  N   LIG    1        1.263  -5.032  -0.785  0.00  0.00    +0.380 N 
ATOM     11  H   LIG    1        0.374  -4.779  -0.381  0.00  0.00    -0.082 HD
ATOM     12  C   LIG    1        2.342  -4.362  -0.049  0.00  0.00    -0.076 C 
ATOM     13  C   LIG    1        2.112  -2.849  -0.066  0.00  0.00    +0.017 C 
ENDROOT
BRANCH   1  17
ATOM     14  C   LIG    1       -1.591   1.016  -0.121  0.00  0.00    +0.000 A 
ATOM     15  C   LIG    1       -0.576   1.748  -0.709  0.00  0.00    +0.002 A 
ATOM     16  C   LIG    1        0.552   1.110  -1.184  0.00  0.00    +0.023 A 
ATOM     17  C   LIG    1        0.667  -0.270  -1.072  0.00  0.00    +0.032 A 
ATOM     18  C   LIG    1       -0.355  -1.003  -0.482  0.00  0.00    +0.023 A 
ATOM     19  C   LIG    1       -1.481  -0.358  -0.008  0.00  0.00    +0.002 A 
ENDBRANCH   1  17
BRANCH  10  20
ATOM     20  C   LIG    1        1.442  -6.487  -0.696  0.00  0.00    -0.079 C 
BRANCH  20  21
ATOM     21  C   LIG    1        1.290  -6.931   0.760  0.00  0.00    -0.018 C 
BRANCH  21  22
ATOM     22  C   LIG    1        1.476  -8.447   0.854  0.00  0.00    +0.011 C 
BRANCH  22  23
ATOM     23  C   LIG    1        1.323  -8.891   2.310  0.00  0.00    +0.049 C 
BRANCH  23  24
ATOM     24  C   LIG    1        2.438  -8.301   3.134  0.00  0.00    -0.040 A 
ATOM     25  C   LIG    1        3.752  -8.457   2.733  0.00  0.00    +0.007 A 
ATOM     26  C   LIG    1        4.775  -7.916   3.488  0.00  0.00    +0.038 A 
ATOM     27  C   LIG    1        4.484  -7.217   4.647  0.00  0.00    +0.123 A 
ATOM     28  F   LIG    1        5.483  -6.688   5.386  0.00  0.00    -0.205 F 
ATOM     29  C   LIG    1        3.168  -7.060   5.048  0.00  0.00    +0.038 A 
ATOM     30  C   LIG    1        2.146  -7.598   4.288  0.00  0.00    +0.007 A 
ENDBRANCH  23  24
BRANCH  23  31
ATOM     31  C   LIG    1        1.385 -10.395   2.385  0.00  0.00    -0.040 A 
ATOM     32  C   LIG    1        2.441 -11.073   1.807  0.00  0.00    +0.007 A 
ATOM     33  C   LIG    1        2.499 -12.452   1.877  0.00  0.00    +0.038 A 
ATOM     34  C   LIG    1        1.497 -13.154   2.525  0.00  0.00    +0.123 A 
ATOM     35  F   LIG    1        1.552 -14.503   2.593  0.00  0.00    -0.205 F 
ATOM     36  C   LIG    1        0.439 -12.474   3.104  0.00  0.00    +0.038 A 
ATOM     37  C   LIG    1        0.387 -11.095   3.038  0.00  0.00    +0.007 A 
ENDBRANCH  23  31
ENDBRANCH  22  23
ENDBRANCH  21  22
ENDBRANCH  20  21
ENDBRANCH  10  20
TORSDOF 7
