REMARK  Name = ZINC00602283
REMARK                            x       y       z     vdW  Elec       q    Type
REMARK                         _______ _______ _______ _____ _____    ______ ____
ROOT
ATOM      1  C   LIG    1       -0.108   1.035   2.334  0.00  0.00    +0.127 A 
ATOM      2  C   LIG    1        0.955   0.176   2.253  0.00  0.00    +0.066 A 
ATOM      3  C   LIG    1        1.502  -0.347   3.424  0.00  0.00    +0.044 A 
ATOM      4  C   LIG    1        2.671  -1.294   3.348  0.00  0.00    +0.066 C 
ATOM      5  N   LIG    1        1.002  -0.017   4.596  0.00  0.00    -0.233 NA
ATOM      6  C   LIG    1       -0.035   0.822   4.692  0.00  0.00    +0.161 A 
ATOM      7  C   LIG    1       -0.745   1.328   5.787  0.00  0.00    +0.024 A 
ATOM      8  C   LIG    1       -1.731   2.183   5.282  0.00  0.00    +0.066 A 
ATOM      9  C   LIG    1       -2.731   2.952   6.107  0.00  0.00    +0.068 C 
ATOM     10  N   LIG    1       -1.649   2.198   3.974  0.00  0.00    -0.168 NA
ATOM     11  N   LIG    1       -0.602   1.364   3.569  0.00  0.00    -0.200 N 
ENDROOT
BRANCH   7  12
ATOM     12  C   LIG    1       -0.490   1.026   7.216  0.00  0.00    +0.041 C 
ATOM     13  C   LIG    1        0.393   1.808   7.956  0.00  0.00    +0.091 C 
ATOM     14  N   LIG    1        0.670   1.593   9.269  0.00  0.00    -0.301 NA
ATOM     15  H   LIG    1        1.320   2.189   9.794  0.00  0.00    +0.123 HD
ATOM     16  C   LIG    1        0.031   0.534   9.847  0.00  0.00    +0.124 C 
ATOM     17  C   LIG    1       -0.860  -0.295   9.171  0.00  0.00    +0.038 C 
ATOM     18  C   LIG    1       -1.129  -0.052   7.838  0.00  0.00    -0.003 C 
ATOM     19  C   LIG    1       -2.087  -0.928   7.073  0.00  0.00    +0.008 C 
BRANCH  16  20
ATOM     20  N   LIG    1        0.307   0.296  11.190  0.00  0.00    -0.293 NA
ATOM     21  C   LIG    1        1.157   1.225  11.939  0.00  0.00    +0.106 C 
ATOM     22  C   LIG    1       -0.252  -0.884  11.854  0.00  0.00    +0.106 C 
ENDBRANCH  16  20
ENDBRANCH   7  12
BRANCH   1  23
ATOM     23  N   LIG    1       -0.667   1.566   1.192  0.00  0.00    -0.315 N 
BRANCH  23  24
ATOM     24  C   LIG    1        0.026   1.080  -0.009  0.00  0.00    +0.106 C 
BRANCH  24  26
ATOM     25  C   LIG    1        0.221  -0.822  -1.617  0.00  0.00    +0.005 C 
ATOM     26  C   LIG    1       -0.407  -0.358  -0.301  0.00  0.00    +0.016 C 
ENDBRANCH  24  26
ENDBRANCH  23  24
BRANCH  23  27
ATOM     27  C   LIG    1       -0.670   3.034   1.240  0.00  0.00    +0.106 C 
BRANCH  27  28
ATOM     28  C   LIG    1       -1.700   3.575   0.246  0.00  0.00    +0.016 C 
ATOM     29  C   LIG    1       -1.795   5.096   0.387  0.00  0.00    +0.005 C 
ENDBRANCH  27  28
ENDBRANCH  23  27
ENDBRANCH   1  23
TORSDOF 7
