REMARK  Name = ZINC00626396
REMARK                            x       y       z     vdW  Elec       q    Type
REMARK                         _______ _______ _______ _____ _____    ______ ____
ROOT
ATOM      1  C   LIG    1        2.797  -1.919   4.683  0.00  0.00    +0.144 C 
ATOM      2  N   LIG    1        1.977  -2.911   5.389  0.00  0.00    -0.283 N 
ATOM      3  C   LIG    1        1.733  -2.443   6.626  0.00  0.00    +0.282 C 
ATOM      4  O   LIG    1        1.081  -3.019   7.474  0.00  0.00    -0.267 OA
ATOM      5  C   LIG    1        2.376  -1.122   6.802  0.00  0.00    +0.188 C 
ATOM      6  C   LIG    1        3.019  -0.785   5.657  0.00  0.00    +0.066 C 
ENDROOT
BRANCH   1  10
ATOM      7  C   LIG    1        0.731  -0.503   1.223  0.00  0.00    -0.048 A 
ATOM      8  C   LIG    1        2.097  -0.710   1.176  0.00  0.00    +0.004 A 
ATOM      9  C   LIG    1        2.766  -1.167   2.296  0.00  0.00    +0.006 A 
ATOM     10  C   LIG    1        2.068  -1.419   3.463  0.00  0.00    -0.022 A 
ATOM     11  C   LIG    1        0.702  -1.212   3.510  0.00  0.00    +0.006 A 
ATOM     12  C   LIG    1        0.034  -0.750   2.391  0.00  0.00    +0.004 A 
BRANCH   7  14
ATOM     13  C   LIG    1       -0.019   1.526   0.010  0.00  0.00    +0.009 C 
ATOM     14  C   LIG    1        0.002  -0.004   0.002  0.00  0.00    +0.032 C 
ENDBRANCH   7  14
ENDBRANCH   1  10
BRANCH   6  15
ATOM     15  C   LIG    1        3.755   0.400   5.419  0.00  0.00    +0.162 C 
ATOM     16  C   LIG    1        4.412   0.623   4.082  0.00  0.00    +0.091 C 
ATOM     17  O   LIG    1        3.856   1.237   6.292  0.00  0.00    -0.292 OA
ENDBRANCH   6  15
BRANCH   5  18
ATOM     18  O   LIG    1        2.330  -0.371   7.925  0.00  0.00    -0.502 OA
ATOM     19  H   LIG    1        2.767   0.457   7.953  0.00  0.00    +0.292 HD
ENDBRANCH   5  18
BRANCH   2  20
ATOM     20  C   LIG    1        1.507  -4.186   4.842  0.00  0.00    +0.114 C 
BRANCH  20  21
ATOM     21  C   LIG    1        2.540  -5.277   5.132  0.00  0.00    +0.056 C 
BRANCH  21  22
ATOM     22  C   LIG    1        2.057  -6.589   4.569  0.00  0.00    -0.021 A 
ATOM     23  C   LIG    1        1.382  -7.542   5.232  0.00  0.00    +0.087 A 
ATOM     24  N   LIG    1        1.113  -8.590   4.395  0.00  0.00    -0.360 N 
ATOM     25  C   LIG    1        1.621  -8.331   3.141  0.00  0.00    +0.047 A 
ATOM     26  C   LIG    1        1.629  -9.041   1.946  0.00  0.00    +0.026 A 
ATOM     27  C   LIG    1        2.220  -8.494   0.828  0.00  0.00    +0.002 A 
ATOM     28  C   LIG    1        2.822  -7.245   0.886  0.00  0.00    +0.001 A 
ATOM     29  C   LIG    1        2.830  -6.531   2.052  0.00  0.00    +0.010 A 
ATOM     30  H   LIG    1        0.635  -9.396   4.647  0.00  0.00    +0.165 HD
ATOM     31  C   LIG    1        2.229  -7.063   3.194  0.00  0.00    +0.003 A 
ENDBRANCH  21  22
ENDBRANCH  20  21
ENDBRANCH   2  20
TORSDOF 7
