REMARK  Name = ZINC00626396
REMARK                            x       y       z     vdW  Elec       q    Type
REMARK                         _______ _______ _______ _____ _____    ______ ____
ROOT
ATOM      1  C   LIG    1        4.128  -4.883  -1.395  0.00  0.00    +0.144 C 
ATOM      2  C   LIG    1        5.113  -6.027  -1.456  0.00  0.00    +0.066 C 
ATOM      3  C   LIG    1        4.808  -7.408  -1.392  0.00  0.00    +0.100 C 
ATOM      4  C   LIG    1        5.915  -8.428  -1.467  0.00  0.00    +0.086 C 
ATOM      5  C   LIG    1        6.345  -5.476  -1.582  0.00  0.00    +0.249 C 
ATOM      6  O   LIG    1        7.506  -6.162  -1.671  0.00  0.00    -0.282 OA
ATOM      7  C   LIG    1        6.215  -4.002  -1.614  0.00  0.00    +0.288 C 
ATOM      8  O   LIG    1        7.141  -3.223  -1.725  0.00  0.00    -0.266 OA
ATOM      9  N   LIG    1        4.921  -3.653  -1.500  0.00  0.00    -0.283 N 
ENDROOT
BRANCH   1  13
ATOM     10  C   LIG    1        1.378  -5.138  -4.654  0.00  0.00    -0.048 A 
ATOM     11  C   LIG    1        0.984  -5.520  -3.385  0.00  0.00    +0.004 A 
ATOM     12  C   LIG    1        1.874  -5.438  -2.331  0.00  0.00    +0.006 A 
ATOM     13  C   LIG    1        3.158  -4.973  -2.545  0.00  0.00    -0.022 A 
ATOM     14  C   LIG    1        3.551  -4.586  -3.812  0.00  0.00    +0.006 A 
ATOM     15  C   LIG    1        2.663  -4.674  -4.868  0.00  0.00    +0.004 A 
BRANCH  10  17
ATOM     16  C   LIG    1       -0.362  -3.911  -5.925  0.00  0.00    +0.009 C 
ATOM     17  C   LIG    1        0.408  -5.227  -5.804  0.00  0.00    +0.032 C 
ENDBRANCH  10  17
ENDBRANCH   1  13
BRANCH   3  18
ATOM     18  O   LIG    1        3.655  -7.770  -1.278  0.00  0.00    -0.511 OA
ATOM     19  H   LIG    1        3.057  -6.970  -1.244  0.00  0.00    +0.292 HD
ENDBRANCH   3  18
BRANCH   9  20
ATOM     20  C   LIG    1        4.396  -2.285  -1.489  0.00  0.00    +0.114 C 
BRANCH  20  21
ATOM     21  C   LIG    1        4.343  -1.771  -0.049  0.00  0.00    +0.056 C 
BRANCH  21  22
ATOM     22  C   LIG    1        3.802  -0.365  -0.037  0.00  0.00    -0.021 A 
ATOM     23  C   LIG    1        4.523   0.768  -0.038  0.00  0.00    +0.087 A 
ATOM     24  N   LIG    1        3.688   1.852  -0.025  0.00  0.00    -0.360 N 
ATOM     25  C   LIG    1        2.377   1.433  -0.016  0.00  0.00    +0.047 A 
ATOM     26  C   LIG    1        1.158   2.103  -0.001  0.00  0.00    +0.026 A 
ATOM     27  C   LIG    1       -0.018   1.384   0.005  0.00  0.00    +0.002 A 
ATOM     28  C   LIG    1        0.001  -0.004  -0.002  0.00  0.00    +0.001 A 
ATOM     29  C   LIG    1        1.188  -0.682  -0.016  0.00  0.00    +0.010 A 
ATOM     30  H   LIG    1        3.978   2.778  -0.023  0.00  0.00    +0.165 HD
ATOM     31  C   LIG    1        2.390   0.026  -0.023  0.00  0.00    +0.003 A 
ENDBRANCH  21  22
ENDBRANCH  20  21
ENDBRANCH   9  20
TORSDOF 6
