REMARK  Name = ZINC00537848
REMARK                            x       y       z     vdW  Elec       q    Type
REMARK                         _______ _______ _______ _____ _____    ______ ____
ROOT
ATOM      1  C   LIG    1        0.002  -0.004   0.002  0.00  0.00    +0.010 C 
ENDROOT
BRANCH   1   6
ATOM      2  N   LIG    1        0.692   4.011  -1.286  0.00  0.00    +0.382 N 
ATOM      3  H   LIG    1        1.157   3.584  -2.095  0.00  0.00    -0.081 HD
ATOM      4  C   LIG    1       -0.717   3.564  -1.251  0.00  0.00    -0.078 C 
ATOM      5  C   LIG    1       -0.752   2.034  -1.234  0.00  0.00    -0.015 C 
ATOM      6  C   LIG    1       -0.019   1.526   0.010  0.00  0.00    -0.014 C 
ATOM      7  C   LIG    1        1.417   2.057  -0.000  0.00  0.00    -0.015 C 
ATOM      8  C   LIG    1        1.390   3.586  -0.053  0.00  0.00    -0.078 C 
BRANCH   2   9
ATOM      9  C   LIG    1        0.752   5.481  -1.418  0.00  0.00    -0.043 C 
BRANCH   9  13
ATOM     10  C   LIG    1       -0.723   6.577  -5.274  0.00  0.00    +0.000 A 
ATOM     11  C   LIG    1       -1.588   6.504  -4.198  0.00  0.00    +0.000 A 
ATOM     12  C   LIG    1       -1.111   6.149  -2.950  0.00  0.00    +0.002 A 
ATOM     13  C   LIG    1        0.232   5.868  -2.778  0.00  0.00    -0.064 A 
ATOM     14  C   LIG    1        1.098   5.947  -3.853  0.00  0.00    +0.002 A 
ATOM     15  C   LIG    1        0.619   6.296  -5.102  0.00  0.00    +0.000 A 
ENDBRANCH   9  13
ENDBRANCH   2   9
ENDBRANCH   1   6
BRANCH   1  16
ATOM     16  C   LIG    1       -1.427  -0.534   0.139  0.00  0.00    +0.060 C 
BRANCH  16  17
ATOM     17  C   LIG    1       -1.406  -2.041   0.130  0.00  0.00    +0.091 A 
ATOM     18  C   LIG    1       -1.514  -2.903  -1.049  0.00  0.00    +0.045 A 
ATOM     19  C   LIG    1       -1.658  -2.656  -2.418  0.00  0.00    +0.019 A 
ATOM     20  C   LIG    1       -1.732  -3.699  -3.288  0.00  0.00    -0.017 A 
ATOM     21  C   LIG    1       -1.669  -5.020  -2.842  0.00  0.00    +0.041 A 
ATOM     22  N   LIG    1       -1.767  -5.895  -3.923  0.00  0.00    -0.285 N 
ATOM     23  H   LIG    1       -1.745  -6.861  -3.839  0.00  0.00    +0.155 HD
ATOM     24  C   LIG    1       -1.896  -5.249  -5.093  0.00  0.00    +0.222 C 
ATOM     25  O   LIG    1       -2.001  -5.759  -6.189  0.00  0.00    -0.275 OA
ATOM     26  C   LIG    1       -1.518  -5.277  -1.484  0.00  0.00    +0.073 A 
ATOM     27  C   LIG    1       -1.885  -3.766  -4.791  0.00  0.00    +0.133 C 
ATOM     28  C   LIG    1       -1.445  -4.227  -0.582  0.00  0.00    +0.169 A 
ATOM     29  O   LIG    1       -1.316  -4.167   0.759  0.00  0.00    -0.354 OA
ATOM     30  N   LIG    1       -1.295  -2.814   1.167  0.00  0.00    -0.082 NA
ENDBRANCH  16  17
ENDBRANCH   1  16
TORSDOF 5
