REMARK  Name = ZINC00403036
REMARK                            x       y       z     vdW  Elec       q    Type
REMARK                         _______ _______ _______ _____ _____    ______ ____
ROOT
ATOM      1  C   LIG    1        0.847  -1.998  -1.206  0.00  0.00    -0.049 A 
ATOM      2  C   LIG    1        1.959  -2.576  -0.620  0.00  0.00    +0.007 A 
ATOM      3  C   LIG    1        2.080  -3.951  -0.572  0.00  0.00    +0.046 A 
ATOM      4  C   LIG    1        1.084  -4.753  -1.112  0.00  0.00    +0.120 A 
ATOM      5  C   LIG    1       -0.030  -4.171  -1.699  0.00  0.00    +0.046 A 
ATOM      6  C   LIG    1       -0.149  -2.795  -1.740  0.00  0.00    +0.007 A 
ENDROOT
BRANCH   4   7
ATOM      7  O   LIG    1        1.201  -6.106  -1.067  0.00  0.00    -0.495 OA
ATOM      8  C   LIG    1        0.139  -6.869  -1.643  0.00  0.00    +0.277 C 
ENDBRANCH   4   7
BRANCH   1   9
ATOM      9  C   LIG    1        0.718  -0.497  -1.257  0.00  0.00    +0.018 C 
BRANCH   9  11
ATOM     10  C   LIG    1       -0.019   1.526   0.010  0.00  0.00    -0.014 C 
ATOM     11  C   LIG    1        0.002  -0.004   0.002  0.00  0.00    -0.074 C 
BRANCH  11  12
ATOM     12  N   LIG    1       -1.376  -0.512   0.012  0.00  0.00    +0.380 N 
ATOM     13  H   LIG    1       -1.848  -0.187   0.843  0.00  0.00    -0.090 HD
ATOM     14  H   LIG    1       -1.362  -1.521   0.007  0.00  0.00    -0.090 HD
ATOM     15  H   LIG    1       -1.864  -0.178  -0.805  0.00  0.00    -0.090 HD
ENDBRANCH  11  12
ENDBRANCH   9  11
ENDBRANCH   1   9
TORSDOF 4
