REMARK  Name = ZINC00411881
REMARK                            x       y       z     vdW  Elec       q    Type
REMARK                         _______ _______ _______ _____ _____    ______ ____
ROOT
ATOM      1  C   LIG    1        1.248  -2.160  -0.023  0.00  0.00    +0.253 A 
ATOM      2  N   LIG    1        2.319  -2.917  -0.032  0.00  0.00    -0.106 NA
ATOM      3  N   LIG    1        1.968  -4.154  -0.038  0.00  0.00    -0.101 NA
ATOM      4  C   LIG    1        0.658  -4.237  -0.033  0.00  0.00    +0.278 A 
ATOM      5  O   LIG    1        0.174  -2.980  -0.017  0.00  0.00    -0.411 OA
ENDROOT
BRANCH   1  10
ATOM      6  C   LIG    1       -0.017   1.375   0.010  0.00  0.00    +0.001 A 
ATOM      7  C   LIG    1        1.169   2.089   0.002  0.00  0.00    +0.004 A 
ATOM      8  C   LIG    1        2.383   1.427  -0.013  0.00  0.00    +0.046 A 
ATOM      9  C   LIG    1        2.419   0.043  -0.021  0.00  0.00    +0.129 A 
ATOM     10  C   LIG    1        1.221  -0.683  -0.014  0.00  0.00    +0.080 A 
ATOM     11  C   LIG    1        0.002  -0.004   0.002  0.00  0.00    +0.017 A 
BRANCH   9  12
ATOM     12  O   LIG    1        3.611  -0.608  -0.037  0.00  0.00    -0.506 OA
ATOM     13  H   LIG    1        3.965  -0.802   0.842  0.00  0.00    +0.292 HD
ENDBRANCH   9  12
ENDBRANCH   1  10
BRANCH   4  14
ATOM     14  S   LIG    1       -0.293  -5.720  -0.038  0.00  0.00    -0.058 S 
BRANCH  14  15
ATOM     15  C   LIG    1        0.952  -7.040  -0.051  0.00  0.00    +0.158 C 
BRANCH  15  16
ATOM     16  C   LIG    1        0.263  -8.380  -0.057  0.00  0.00    +0.173 C 
ATOM     17  O   LIG    1       -0.948  -8.439  -0.052  0.00  0.00    -0.291 OA
BRANCH  16  18
ATOM     18  C   LIG    1        1.060  -9.616  -0.068  0.00  0.00    +0.018 A 
ATOM     19  C   LIG    1        2.457  -9.552  -0.068  0.00  0.00    +0.013 A 
ATOM     20  C   LIG    1        3.197 -10.714  -0.077  0.00  0.00    +0.020 A 
ATOM     21  C   LIG    1        2.561 -11.945  -0.088  0.00  0.00    +0.041 A 
ATOM     22 CL   LIG    1        3.501 -13.404  -0.102  0.00  0.00    -0.084 Cl
ATOM     23  C   LIG    1        1.177 -12.017  -0.089  0.00  0.00    +0.020 A 
ATOM     24  C   LIG    1        0.424 -10.862  -0.073  0.00  0.00    +0.013 A 
ENDBRANCH  16  18
ENDBRANCH  15  16
ENDBRANCH  14  15
ENDBRANCH   4  14
TORSDOF 6
