REMARK  Name = ZINC00598970
REMARK                            x       y       z     vdW  Elec       q    Type
REMARK                         _______ _______ _______ _____ _____    ______ ____
ROOT
ATOM      1  C   LIG    1        3.184   2.099   4.167  0.00  0.00    +0.007 C 
ATOM      2  C   LIG    1        2.353   1.859   3.161  0.00  0.00    -0.066 C 
ATOM      3  C   LIG    1        2.507   0.619   2.308  0.00  0.00    +0.050 C 
ATOM      4  C   LIG    1        2.566   1.047   0.836  0.00  0.00    +0.112 C 
ATOM      5  N   LIG    1        1.449   1.960   0.564  0.00  0.00    -0.297 N 
ATOM      6  C   LIG    1        0.551   1.672  -0.399  0.00  0.00    +0.247 C 
ATOM      7  O   LIG    1        0.700   0.685  -1.092  0.00  0.00    -0.270 OA
ATOM      8  C   LIG    1        1.324   3.195   1.350  0.00  0.00    +0.112 C 
ATOM      9  C   LIG    1        1.229   2.819   2.839  0.00  0.00    +0.050 C 
ENDROOT
BRANCH   6  10
ATOM     10  C   LIG    1       -0.611   2.558  -0.615  0.00  0.00    +0.037 A 
ATOM     11  C   LIG    1       -0.429   3.938  -0.727  0.00  0.00    +0.014 A 
ATOM     12  C   LIG    1       -1.516   4.760  -0.934  0.00  0.00    +0.021 A 
ATOM     13  C   LIG    1       -2.789   4.220  -1.021  0.00  0.00    +0.041 A 
ATOM     14 CL   LIG    1       -4.154   5.262  -1.276  0.00  0.00    -0.084 Cl
ATOM     15  C   LIG    1       -2.977   2.853  -0.906  0.00  0.00    +0.021 A 
ATOM     16  C   LIG    1       -1.896   2.020  -0.704  0.00  0.00    +0.014 A 
ENDBRANCH   6  10
BRANCH   1  22
ATOM     17  C   LIG    1        3.977   3.947   5.634  0.00  0.00    +0.008 A 
ATOM     18  C   LIG    1        3.727   4.990   6.496  0.00  0.00    +0.014 A 
ATOM     19  C   LIG    1        2.412   5.309   6.842  0.00  0.00    +0.036 A 
ATOM     20  C   LIG    1        1.351   4.574   6.310  0.00  0.00    +0.014 A 
ATOM     21  C   LIG    1        1.601   3.534   5.443  0.00  0.00    +0.008 A 
ATOM     22  C   LIG    1        2.916   3.215   5.097  0.00  0.00    -0.025 A 
BRANCH  19  23
ATOM     23  C   LIG    1        2.143   6.427   7.773  0.00  0.00    +0.218 C 
ATOM     24  N   LIG    1        0.947   6.778   8.130  0.00  0.00    -0.247 NA
ATOM     25  C   LIG    1        1.055   7.913   9.068  0.00  0.00    +0.186 C 
ATOM     26  C   LIG    1        2.554   7.872   9.454  0.00  0.00    +0.254 C 
ATOM     27  O   LIG    1        3.120   7.178   8.324  0.00  0.00    -0.474 OA
ENDBRANCH  19  23
ENDBRANCH   1  22
TORSDOF 3
