REMARK  Name = ZINC00373147
REMARK                            x       y       z     vdW  Elec       q    Type
REMARK                         _______ _______ _______ _____ _____    ______ ____
ROOT
ATOM      1  C   LIG    1       -0.962   2.039   1.231  0.00  0.00    +0.258 C 
ATOM      2  N   LIG    1       -2.258   1.703   1.077  0.00  0.00    -0.282 N 
ATOM      3  H   LIG    1       -2.505   0.985   0.472  0.00  0.00    +0.155 HD
ATOM      4  O   LIG    1       -0.645   2.873   2.053  0.00  0.00    -0.271 OA
ENDROOT
BRANCH   2   5
ATOM      5  C   LIG    1       -3.249   2.390   1.788  0.00  0.00    +0.034 A 
ATOM      6  C   LIG    1       -4.395   1.725   2.203  0.00  0.00    +0.025 A 
ATOM      7  C   LIG    1       -5.369   2.404   2.909  0.00  0.00    +0.022 A 
ATOM      8  C   LIG    1       -5.207   3.748   3.194  0.00  0.00    +0.041 A 
ATOM      9 CL   LIG    1       -6.436   4.600   4.076  0.00  0.00    -0.084 Cl
ATOM     10  C   LIG    1       -4.068   4.414   2.778  0.00  0.00    +0.022 A 
ATOM     11  C   LIG    1       -3.089   3.739   2.076  0.00  0.00    +0.025 A 
ENDBRANCH   2   5
BRANCH   1  13
ATOM     12  C   LIG    1       -0.116   1.763  -1.084  0.00  0.00    +0.062 C 
ATOM     13  C   LIG    1        0.094   1.378   0.382  0.00  0.00    +0.256 C 
BRANCH  13  14
ATOM     14  O   LIG    1        1.387   1.811   0.809  0.00  0.00    -0.480 OA
BRANCH  14  15
ATOM     15  C   LIG    1        2.432   0.982   0.549  0.00  0.00    +0.122 A 
ATOM     16  C   LIG    1        2.235  -0.170  -0.199  0.00  0.00    +0.045 A 
ATOM     17  C   LIG    1        3.300  -1.009  -0.465  0.00  0.00    +0.004 A 
ATOM     18  C   LIG    1        4.559  -0.707   0.021  0.00  0.00    +0.000 A 
ATOM     19  C   LIG    1        4.756   0.438   0.771  0.00  0.00    +0.004 A 
ATOM     20  C   LIG    1        3.695   1.282   1.036  0.00  0.00    +0.045 A 
ENDBRANCH  14  15
ENDBRANCH  13  14
ENDBRANCH   1  13
TORSDOF 4
