REMARK  Name = ZINC00538559
REMARK                            x       y       z     vdW  Elec       q    Type
REMARK                         _______ _______ _______ _____ _____    ______ ____
ROOT
ATOM      1  C   LIG    1        3.727  -0.706  -0.037  0.00  0.00    +0.133 C 
ATOM      2  C   LIG    1        3.802  -1.627  -1.269  0.00  0.00    +0.145 C 
ATOM      3  N   LIG    1        3.935  -2.978  -0.709  0.00  0.00    -0.196 N 
ATOM      4  C   LIG    1        4.035  -4.114  -1.429  0.00  0.00    +0.323 C 
ATOM      5  N   LIG    1        4.153  -5.301  -0.801  0.00  0.00    -0.268 N 
ATOM      6  H   LIG    1        4.233  -5.333   0.165  0.00  0.00    +0.156 HD
ATOM      7  O   LIG    1        4.019  -4.067  -2.643  0.00  0.00    -0.251 OA
ATOM      8  N   LIG    1        3.941  -2.903   0.682  0.00  0.00    -0.229 N 
ATOM      9  H   LIG    1        4.019  -3.678   1.260  0.00  0.00    +0.173 HD
ATOM     10  C   LIG    1        3.828  -1.646   1.143  0.00  0.00    +0.239 C 
ATOM     11  O   LIG    1        3.810  -1.318   2.310  0.00  0.00    -0.274 OA
ENDROOT
BRANCH   5  12
ATOM     12  C   LIG    1        4.159  -6.487  -1.544  0.00  0.00    +0.035 A 
ATOM     13  C   LIG    1        3.567  -7.633  -1.030  0.00  0.00    +0.024 A 
ATOM     14  C   LIG    1        3.574  -8.802  -1.765  0.00  0.00    +0.017 A 
ATOM     15  C   LIG    1        4.172  -8.833  -3.012  0.00  0.00    +0.018 A 
ATOM     16 BR   LIG    1        4.181 -10.436  -4.016  0.00  0.00    -0.050 Br
ATOM     17  C   LIG    1        4.763  -7.693  -3.527  0.00  0.00    +0.017 A 
ATOM     18  C   LIG    1        4.753  -6.519  -2.799  0.00  0.00    +0.024 A 
ENDBRANCH   5  12
BRANCH   1  22
ATOM     19  C   LIG    1        0.004   1.388   0.035  0.00  0.00    +0.000 A 
ATOM     20  C   LIG    1        1.193   2.092   0.019  0.00  0.00    +0.000 A 
ATOM     21  C   LIG    1        2.398   1.415  -0.004  0.00  0.00    +0.004 A 
ATOM     22  C   LIG    1        2.413   0.033  -0.011  0.00  0.00    -0.033 A 
ATOM     23  C   LIG    1        1.224  -0.672   0.006  0.00  0.00    +0.004 A 
ATOM     24  C   LIG    1        0.019   0.005   0.028  0.00  0.00    +0.000 A 
ENDBRANCH   1  22
BRANCH   2  25
ATOM     25  C   LIG    1        5.004  -1.282  -2.111  0.00  0.00    -0.024 A 
ATOM     26  C   LIG    1        6.255  -1.747  -1.752  0.00  0.00    +0.005 A 
ATOM     27  C   LIG    1        7.357  -1.431  -2.523  0.00  0.00    +0.000 A 
ATOM     28  C   LIG    1        7.208  -0.651  -3.655  0.00  0.00    +0.000 A 
ATOM     29  C   LIG    1        5.957  -0.187  -4.014  0.00  0.00    +0.000 A 
ATOM     30  C   LIG    1        4.854  -0.506  -3.245  0.00  0.00    +0.005 A 
ENDBRANCH   2  25
TORSDOF 3
