REMARK  Name = ZINC00622264
REMARK                            x       y       z     vdW  Elec       q    Type
REMARK                         _______ _______ _______ _____ _____    ______ ____
ROOT
ATOM      1  N   LIG    1       -3.520  -0.507   3.550  0.00  0.00    -0.292 NA
ATOM      2  C   LIG    1       -4.386   0.269   2.879  0.00  0.00    +0.062 C 
ATOM      3  C   LIG    1       -3.924   1.389   2.170  0.00  0.00    +0.037 C 
ATOM      4  C   LIG    1       -4.820   2.183   1.483  0.00  0.00    +0.052 C 
ATOM      5  C   LIG    1       -6.184   1.883   1.486  0.00  0.00    +0.019 C 
ATOM      6  C   LIG    1       -6.654   0.800   2.168  0.00  0.00    +0.007 C 
ATOM      7  C   LIG    1       -5.770  -0.021   2.872  0.00  0.00    +0.010 C 
ATOM      8  C   LIG    1       -6.248  -1.192   3.614  0.00  0.00    -0.001 C 
ATOM      9  C   LIG    1       -7.596  -1.548   3.657  0.00  0.00    +0.006 C 
ATOM     10  C   LIG    1       -7.983  -2.650   4.364  0.00  0.00    +0.019 C 
ATOM     11  C   LIG    1       -7.044  -3.426   5.046  0.00  0.00    +0.051 C 
ATOM     12  C   LIG    1       -5.702  -3.094   5.019  0.00  0.00    +0.024 C 
ATOM     13  C   LIG    1       -5.288  -1.971   4.301  0.00  0.00    +0.015 C 
ATOM     14  C   LIG    1       -3.881  -1.571   4.229  0.00  0.00    +0.091 C 
ENDROOT
BRANCH  14  15
ATOM     15  C   LIG    1       -2.855  -2.373   4.933  0.00  0.00    -0.030 A 
ATOM     16  C   LIG    1       -2.676  -3.719   4.612  0.00  0.00    +0.005 A 
ATOM     17  C   LIG    1       -1.718  -4.461   5.272  0.00  0.00    +0.000 A 
ATOM     18  C   LIG    1       -0.937  -3.873   6.251  0.00  0.00    +0.000 A 
ATOM     19  C   LIG    1       -1.110  -2.539   6.574  0.00  0.00    +0.000 A 
ATOM     20  C   LIG    1       -2.060  -1.785   5.917  0.00  0.00    +0.005 A 
ENDBRANCH  14  15
BRANCH   4  21
ATOM     21  N   LIG    1       -4.358   3.296   0.778  0.00  0.00    -0.327 NA
ATOM     22  H   LIG    1       -4.983   3.857   0.294  0.00  0.00    +0.118 HD
ATOM     23  H   LIG    1       -3.411   3.508   0.774  0.00  0.00    +0.118 HD
ENDBRANCH   4  21
BRANCH  11  24
ATOM     24  N   LIG    1       -7.464  -4.549   5.763  0.00  0.00    -0.327 NA
ATOM     25  H   LIG    1       -6.816  -5.091   6.239  0.00  0.00    +0.118 HD
ATOM     26  H   LIG    1       -8.404  -4.786   5.785  0.00  0.00    +0.118 HD
ENDBRANCH  11  24
BRANCH   1  27
ATOM     27  C   LIG    1       -2.099  -0.152   3.517  0.00  0.00    +0.083 C 
BRANCH  27  28
ATOM     28  C   LIG    1       -1.442  -0.788   2.290  0.00  0.00    -0.003 C 
BRANCH  28  29
ATOM     29  C   LIG    1        0.014  -0.329   2.195  0.00  0.00    -0.074 C 
BRANCH  29  30
ATOM     30  N   LIG    1        0.644  -0.939   1.017  0.00  0.00    +0.378 N 
ATOM     31  C   LIG    1        0.599  -2.402   1.141  0.00  0.00    -0.092 C 
BRANCH  30  33
ATOM     32  C   LIG    1       -0.033   0.996  -0.322  0.00  0.00    -0.016 C 
ATOM     33  C   LIG    1       -0.079  -0.528  -0.194  0.00  0.00    -0.079 C 
ENDBRANCH  30  33
BRANCH  30  34
ATOM     34  C   LIG    1        2.042  -0.498   0.926  0.00  0.00    -0.079 C 
ATOM     35  C   LIG    1        2.699  -1.134  -0.301  0.00  0.00    -0.016 C 
ENDBRANCH  30  34
ENDBRANCH  29  30
ENDBRANCH  28  29
ENDBRANCH  27  28
ENDBRANCH   1  27
TORSDOF 9
