REMARK  Name = ZINC00526257
REMARK                            x       y       z     vdW  Elec       q    Type
REMARK                         _______ _______ _______ _____ _____    ______ ____
ROOT
ATOM      1  C   LIG    1       -0.017   1.373   0.010  0.00  0.00    +0.004 A 
ATOM      2  C   LIG    1        1.169   2.097   0.002  0.00  0.00    +0.012 A 
ATOM      3  C   LIG    1        2.386   1.430  -0.013  0.00  0.00    +0.036 A 
ATOM      4  C   LIG    1        2.413   0.021  -0.020  0.00  0.00    +0.074 A 
ATOM      5  C   LIG    1        3.717  -0.668  -0.035  0.00  0.00    +0.190 C 
ATOM      6  C   LIG    1        4.944   0.101   0.259  0.00  0.00    +0.055 C 
ATOM      7  C   LIG    1        4.920   1.443   0.265  0.00  0.00    +0.055 C 
ATOM      8  O   LIG    1        3.782  -1.856  -0.286  0.00  0.00    -0.287 OA
ATOM      9  C   LIG    1        1.216  -0.694  -0.013  0.00  0.00    +0.128 A 
ATOM     10  C   LIG    1        3.667   2.170  -0.021  0.00  0.00    +0.187 C 
ATOM     11  O   LIG    1        3.687   3.361  -0.259  0.00  0.00    -0.287 OA
ATOM     12  C   LIG    1        0.002  -0.004   0.002  0.00  0.00    +0.046 A 
ENDROOT
BRANCH   9  13
ATOM     13  O   LIG    1        1.230  -2.050  -0.021  0.00  0.00    -0.506 OA
ATOM     14  H   LIG    1        1.243  -2.448   0.861  0.00  0.00    +0.292 HD
ENDBRANCH   9  13
TORSDOF 1
