REMARK  Name = ZINC00598356
REMARK                            x       y       z     vdW  Elec       q    Type
REMARK                         _______ _______ _______ _____ _____    ______ ____
ROOT
ATOM      1  N   LIG    1       -2.184   0.695   0.045  0.00  0.00    -0.234 N 
ATOM      2  C   LIG    1       -1.432   1.810   0.059  0.00  0.00    +0.254 C 
ATOM      3  C   LIG    1       -0.009   1.420   0.032  0.00  0.00    +0.050 A 
ATOM      4  C   LIG    1        1.187   2.125   0.029  0.00  0.00    +0.015 A 
ATOM      5  C   LIG    1        2.388   1.440   0.008  0.00  0.00    +0.024 A 
ATOM      6  C   LIG    1        2.405   0.051  -0.012  0.00  0.00    +0.034 A 
ATOM      7  C   LIG    1        1.210  -0.668  -0.010  0.00  0.00    +0.037 A 
ATOM      8  C   LIG    1        0.004   0.009   0.012  0.00  0.00    +0.051 A 
ATOM      9  O   LIG    1       -1.855   2.949   0.081  0.00  0.00    -0.270 OA
ATOM     10  C   LIG    1       -1.414  -0.408   0.021  0.00  0.00    +0.254 C 
ATOM     11  O   LIG    1       -1.816  -1.554   0.009  0.00  0.00    -0.270 OA
ENDROOT
BRANCH   6  12
ATOM     12  N   LIG    1        3.623  -0.628  -0.035  0.00  0.00    -0.281 N 
ATOM     13  H   LIG    1        3.717  -1.470   0.437  0.00  0.00    +0.155 HD
ATOM     14  C   LIG    1        4.669  -0.113  -0.711  0.00  0.00    +0.248 C 
ATOM     15  O   LIG    1        4.576   0.982  -1.232  0.00  0.00    -0.270 OA
BRANCH  14  16
ATOM     16  C   LIG    1        5.928  -0.879  -0.820  0.00  0.00    +0.037 A 
ATOM     17  C   LIG    1        6.039  -2.134  -0.218  0.00  0.00    +0.013 A 
ATOM     18  C   LIG    1        7.215  -2.846  -0.328  0.00  0.00    +0.001 A 
ATOM     19  C   LIG    1        8.287  -2.315  -1.023  0.00  0.00    +0.000 A 
ATOM     20  C   LIG    1        8.185  -1.069  -1.617  0.00  0.00    +0.001 A 
ATOM     21  C   LIG    1        7.013  -0.349  -1.519  0.00  0.00    +0.013 A 
ENDBRANCH  14  16
ENDBRANCH   6  12
BRANCH   1  22
ATOM     22  C   LIG    1       -3.649   0.682   0.062  0.00  0.00    +0.117 C 
BRANCH  22  23
ATOM     23  C   LIG    1       -4.142   0.658   1.510  0.00  0.00    +0.023 C 
BRANCH  23  28
ATOM     24  N   LIG    1       -8.141   1.844   2.439  0.00  0.00    +0.382 N 
ATOM     25  H   LIG    1       -7.704   2.599   2.979  0.00  0.00    -0.081 HD
ATOM     26  C   LIG    1       -7.730   1.967   1.024  0.00  0.00    -0.078 C 
ATOM     27  C   LIG    1       -6.202   1.960   0.948  0.00  0.00    -0.015 C 
ATOM     28  C   LIG    1       -5.672   0.645   1.527  0.00  0.00    -0.013 C 
ATOM     29  C   LIG    1       -6.167   0.495   2.968  0.00  0.00    -0.015 C 
ATOM     30  C   LIG    1       -7.696   0.544   2.985  0.00  0.00    -0.078 C 
BRANCH  24  31
ATOM     31  C   LIG    1       -9.609   1.962   2.550  0.00  0.00    -0.043 C 
BRANCH  31  35
ATOM     32  C   LIG    1      -10.749   5.953   1.538  0.00  0.00    +0.000 A 
ATOM     33  C   LIG    1      -10.696   4.979   0.557  0.00  0.00    +0.000 A 
ATOM     34  C   LIG    1      -10.327   3.688   0.885  0.00  0.00    +0.002 A 
ATOM     35  C   LIG    1      -10.011   3.370   2.193  0.00  0.00    -0.064 A 
ATOM     36  C   LIG    1      -10.069   4.342   3.174  0.00  0.00    +0.002 A 
ATOM     37  C   LIG    1      -10.433   5.635   2.845  0.00  0.00    +0.000 A 
ENDBRANCH  31  35
ENDBRANCH  24  31
ENDBRANCH  23  28
ENDBRANCH  22  23
ENDBRANCH   1  22
TORSDOF 7
