REMARK  Name = ZINC00447067
REMARK                            x       y       z     vdW  Elec       q    Type
REMARK                         _______ _______ _______ _____ _____    ______ ____
ROOT
ATOM      1  C   LIG    1        4.886  -2.684   0.110  0.00  0.00    +0.163 A 
ATOM      2  N   LIG    1        3.748  -2.014   0.135  0.00  0.00    -0.225 NA
ATOM      3  C   LIG    1        3.730  -0.696   0.314  0.00  0.00    +0.080 A 
ATOM      4  C   LIG    1        4.910  -0.028   0.485  0.00  0.00    +0.076 A 
ATOM      5  S   LIG    1        6.077  -1.377   0.370  0.00  0.00    -0.060 S 
ENDROOT
BRANCH   3   6
ATOM      6  C   LIG    1        2.442   0.040   0.335  0.00  0.00    +0.002 A 
ATOM      7  C   LIG    1        2.429   1.421   0.529  0.00  0.00    +0.011 A 
ATOM      8  C   LIG    1        1.229   2.101   0.547  0.00  0.00    +0.022 A 
ATOM      9  C   LIG    1        0.039   1.416   0.374  0.00  0.00    +0.059 A 
ATOM     10 CL   LIG    1       -1.467   2.279   0.391  0.00  0.00    -0.082 Cl
ATOM     11  C   LIG    1        0.046   0.044   0.181  0.00  0.00    +0.060 A 
ATOM     12 CL   LIG    1       -1.450  -0.809  -0.035  0.00  0.00    -0.082 Cl
ATOM     13  C   LIG    1        1.242  -0.646   0.161  0.00  0.00    +0.031 A 
ENDBRANCH   3   6
BRANCH   1  14
ATOM     14  N   LIG    1        5.100  -4.042  -0.067  0.00  0.00    -0.294 N 
ATOM     15  H   LIG    1        4.345  -4.651  -0.107  0.00  0.00    +0.154 HD
BRANCH  14  21
ATOM     16  C   LIG    1        7.383  -3.768  -0.803  0.00  0.00    +0.027 A 
ATOM     17  C   LIG    1        8.671  -4.253  -0.917  0.00  0.00    +0.047 A 
ATOM     18  C   LIG    1        8.984  -5.512  -0.424  0.00  0.00    +0.117 A 
ATOM     19  C   LIG    1        8.005  -6.282   0.187  0.00  0.00    +0.047 A 
ATOM     20  C   LIG    1        6.718  -5.795   0.306  0.00  0.00    +0.027 A 
ATOM     21  C   LIG    1        6.404  -4.536  -0.187  0.00  0.00    +0.033 A 
BRANCH  18  22
ATOM     22  O   LIG    1       10.252  -5.991  -0.540  0.00  0.00    -0.507 OA
ATOM     23  H   LIG    1       10.411  -6.487  -1.355  0.00  0.00    +0.292 HD
ENDBRANCH  18  22
ENDBRANCH  14  21
ENDBRANCH   1  14
TORSDOF 4
