REMARK  Name = ZINC00394133
REMARK                            x       y       z     vdW  Elec       q    Type
REMARK                         _______ _______ _______ _____ _____    ______ ____
ROOT
ATOM      1  C   LIG    1       -0.017   1.383   0.010  0.00  0.00    +0.047 A 
ATOM      2  C   LIG    1        1.171   2.089   0.002  0.00  0.00    +0.032 A 
ATOM      3  C   LIG    1        2.377   1.414  -0.013  0.00  0.00    +0.107 A 
ATOM      4  C   LIG    1        2.399   0.031  -0.021  0.00  0.00    +0.032 A 
ATOM      5  C   LIG    1        1.214  -0.679  -0.013  0.00  0.00    +0.047 A 
ATOM      6  C   LIG    1        0.002  -0.004   0.002  0.00  0.00    +0.121 A 
ENDROOT
BRANCH   3   7
ATOM      7  S   LIG    1        3.890   2.317  -0.023  0.00  0.00    +0.071 S 
ATOM      8  O   LIG    1        3.595   3.597  -0.565  0.00  0.00    -0.152 OA
ATOM      9  O   LIG    1        4.872   1.459  -0.588  0.00  0.00    -0.152 OA
BRANCH   7  10
ATOM     10  N   LIG    1        4.326   2.560   1.556  0.00  0.00    -0.127 NA
ATOM     11  H   LIG    1        4.424   3.462   1.899  0.00  0.00    +0.167 HD
BRANCH  10  12
ATOM     12  N   LIG    1        4.548   1.490   2.376  0.00  0.00    -0.251 NA
ATOM     13  H   LIG    1        3.742   0.883   2.403  0.00  0.00    +0.138 HD
ATOM     14  H   LIG    1        4.804   1.792   3.303  0.00  0.00    +0.138 HD
ENDBRANCH  10  12
ENDBRANCH   7  10
ENDBRANCH   3   7
BRANCH   6  15
ATOM     15  O   LIG    1       -1.165  -0.701   0.010  0.00  0.00    -0.481 OA
BRANCH  15  16
ATOM     16  C   LIG    1       -1.069  -2.126   0.001  0.00  0.00    +0.349 C 
BRANCH  16  17
ATOM     17  C   LIG    1       -2.453  -2.723   0.012  0.00  0.00    +0.343 C 
ATOM     18  O   LIG    1       -3.431  -1.994   0.025  0.00  0.00    -0.247 OA
BRANCH  17  19
ATOM     19  O   LIG    1       -2.595  -3.934   0.007  0.00  0.00    -0.478 OA
ATOM     20  H   LIG    1       -1.844  -4.493  -0.004  0.00  0.00    +0.295 HD
ENDBRANCH  17  19
ENDBRANCH  16  17
ENDBRANCH  15  16
ENDBRANCH   6  15
TORSDOF 7
