REMARK  Name = ZINC00440786
REMARK                            x       y       z     vdW  Elec       q    Type
REMARK                         _______ _______ _______ _____ _____    ______ ____
ROOT
ATOM      1  C   LIG    1       -0.075   5.353   0.384  0.00  0.00    +0.080 A 
ATOM      2  C   LIG    1       -1.239   6.040   0.576  0.00  0.00    +0.076 A 
ATOM      3  S   LIG    1       -0.651   7.726   0.484  0.00  0.00    -0.060 S 
ATOM      4  C   LIG    1        1.073   7.348   0.201  0.00  0.00    +0.163 A 
ATOM      5  N   LIG    1        1.058   6.027   0.205  0.00  0.00    -0.225 NA
ENDROOT
BRANCH   1   8
ATOM      6  C   LIG    1       -1.253   1.787   0.564  0.00  0.00    +0.003 A 
ATOM      7  C   LIG    1       -1.260   3.167   0.573  0.00  0.00    +0.010 A 
ATOM      8  C   LIG    1       -0.072   3.869   0.380  0.00  0.00    +0.003 A 
ATOM      9  C   LIG    1        1.119   3.172   0.183  0.00  0.00    +0.042 A 
ATOM     10  C   LIG    1        1.115   1.793   0.180  0.00  0.00    +0.122 A 
ATOM     11  C   LIG    1       -0.067   1.101   0.373  0.00  0.00    +0.032 A 
BRANCH  10  12
ATOM     12  N   LIG    1        2.379   1.051  -0.029  0.00  0.00    +0.006 N 
ATOM     13  O   LIG    1        2.378  -0.167  -0.030  0.00  0.00    -0.130 OA
BRANCH  12  14
ATOM     14  O   LIG    1        3.421   1.659  -0.198  0.00  0.00    -0.396 OA
ATOM     15  H   LIG    1        3.423   2.596  -0.197  0.00  0.00    +0.329 HD
ENDBRANCH  12  14
ENDBRANCH  10  12
ENDBRANCH   1   8
BRANCH   4  16
ATOM     16  N   LIG    1        2.143   8.212   0.028  0.00  0.00    -0.294 N 
ATOM     17  H   LIG    1        3.046   7.861  -0.026  0.00  0.00    +0.154 HD
BRANCH  16  18
ATOM     18  C   LIG    1        1.921   9.591  -0.068  0.00  0.00    +0.033 A 
ATOM     19  C   LIG    1        0.762  10.068  -0.666  0.00  0.00    +0.027 A 
ATOM     20  C   LIG    1        0.541  11.428  -0.755  0.00  0.00    +0.047 A 
ATOM     21  C   LIG    1        1.481  12.318  -0.257  0.00  0.00    +0.117 A 
ATOM     22  C   LIG    1        2.641  11.842   0.336  0.00  0.00    +0.047 A 
ATOM     23  C   LIG    1        2.861  10.482   0.430  0.00  0.00    +0.027 A 
BRANCH  21  24
ATOM     24  O   LIG    1        1.265  13.657  -0.351  0.00  0.00    -0.507 OA
ATOM     25  H   LIG    1        1.608  14.055  -1.163  0.00  0.00    +0.292 HD
ENDBRANCH  21  24
ENDBRANCH  16  18
ENDBRANCH   4  16
TORSDOF 6
