REMARK  Name = ZINC00352196
REMARK                            x       y       z     vdW  Elec       q    Type
REMARK                         _______ _______ _______ _____ _____    ______ ____
ROOT
ATOM      1  C   LIG    1        1.265  -2.149  -0.022  0.00  0.00    +0.221 A 
ATOM      2  N   LIG    1        2.375  -2.901  -0.032  0.00  0.00    -0.183 NA
ATOM      3  C   LIG    1        2.052  -4.177  -0.038  0.00  0.00    +0.294 A 
ATOM      4  O   LIG    1        0.709  -4.269  -0.032  0.00  0.00    -0.329 OA
ATOM      5  N   LIG    1        0.217  -2.937  -0.016  0.00  0.00    -0.054 NA
ENDROOT
BRANCH   1  10
ATOM      6  C   LIG    1       -0.017   1.381   0.010  0.00  0.00    +0.004 A 
ATOM      7  C   LIG    1        1.193   2.059   0.002  0.00  0.00    +0.020 A 
ATOM      8  C   LIG    1        2.374   1.339  -0.013  0.00  0.00    +0.111 A 
ATOM      9  N   LIG    1        2.363   0.022  -0.020  0.00  0.00    -0.252 NA
ATOM     10  C   LIG    1        1.228  -0.664  -0.013  0.00  0.00    +0.111 A 
ATOM     11  C   LIG    1        0.002  -0.004   0.002  0.00  0.00    +0.031 A 
ENDBRANCH   1  10
BRANCH   3  12
ATOM     12  C   LIG    1        2.993  -5.304  -0.049  0.00  0.00    +0.192 A 
ATOM     13  C   LIG    1        2.658  -6.627  -0.061  0.00  0.00    +0.055 A 
ATOM     14  C   LIG    1        3.865  -7.348  -0.070  0.00  0.00    +0.042 A 
ATOM     15  C   LIG    1        4.868  -6.445  -0.064  0.00  0.00    +0.196 A 
ATOM     16  O   LIG    1        4.338  -5.213  -0.056  0.00  0.00    -0.458 OA
ENDBRANCH   3  12
TORSDOF 2
