REMARK  Name = ZINC00434357
REMARK                            x       y       z     vdW  Elec       q    Type
REMARK                         _______ _______ _______ _____ _____    ______ ____
ROOT
ATOM      1  C   LIG    1       -0.013   1.076   0.008  0.00  0.00    +0.001 A 
ATOM      2  C   LIG    1        1.185   1.779   0.000  0.00  0.00    +0.001 A 
ATOM      3  C   LIG    1        1.191   3.157   0.008  0.00  0.00    +0.012 A 
ATOM      4  C   LIG    1       -0.018   3.850   0.023  0.00  0.00    +0.025 A 
ATOM      5  C   LIG    1       -1.236   3.136   0.031  0.00  0.00    -0.013 A 
ATOM      6  C   LIG    1       -2.491   3.892   0.047  0.00  0.00    +0.026 A 
ATOM      7  C   LIG    1       -2.463   5.231   0.053  0.00  0.00    +0.093 A 
ATOM      8  N   LIG    1       -1.289   5.945   0.045  0.00  0.00    -0.305 N 
ATOM      9  C   LIG    1       -1.051   7.288   0.050  0.00  0.00    +0.125 A 
ATOM     10  C   LIG    1        0.304   7.456   0.038  0.00  0.00    +0.145 A 
ATOM     11  N   LIG    1        0.875   6.236   0.027  0.00  0.00    -0.223 NA
ATOM     12  C   LIG    1       -0.069   5.319   0.031  0.00  0.00    +0.146 A 
ATOM     13  C   LIG    1       -1.219   1.741   0.017  0.00  0.00    +0.008 A 
ENDROOT
BRANCH  10  14
ATOM     14  C   LIG    1        1.017   8.747   0.038  0.00  0.00    +0.277 C 
ATOM     15  N   LIG    1        2.365   8.772   0.026  0.00  0.00    -0.248 N 
ATOM     16  H   LIG    1        2.865   7.941   0.017  0.00  0.00    +0.169 HD
ATOM     17  O   LIG    1        0.390   9.788   0.050  0.00  0.00    -0.267 OA
BRANCH  15  18
ATOM     18  N   LIG    1        3.026   9.967   0.026  0.00  0.00    -0.254 NA
ATOM     19  H   LIG    1        4.025   9.828   0.016  0.00  0.00    +0.140 HD
ATOM     20  H   LIG    1        2.747  10.534   0.813  0.00  0.00    +0.140 HD
ENDBRANCH  15  18
ENDBRANCH  10  14
TORSDOF 2
