REMARK  Name = ZINC00394746
REMARK                            x       y       z     vdW  Elec       q    Type
REMARK                         _______ _______ _______ _____ _____    ______ ____
ROOT
ATOM      1  C   LIG    1        0.565   0.023  -1.003  0.00  0.00    +0.001 A 
ATOM      2  C   LIG    1        1.022  -0.615   0.137  0.00  0.00    +0.001 A 
ATOM      3  C   LIG    1        1.523   0.119   1.196  0.00  0.00    +0.016 A 
ATOM      4  C   LIG    1        1.569   1.509   1.119  0.00  0.00    +0.070 A 
ATOM      5  C   LIG    1        1.104   2.157  -0.041  0.00  0.00    +0.036 A 
ATOM      6  C   LIG    1        0.602   1.401  -1.097  0.00  0.00    +0.012 A 
ENDROOT
BRANCH   4   7
ATOM      7  C   LIG    1        2.099   2.299   2.251  0.00  0.00    +0.337 C 
ATOM      8  O   LIG    1        2.215   3.503   2.149  0.00  0.00    -0.245 OA
BRANCH   7   9
ATOM      9  O   LIG    1        2.451   1.682   3.396  0.00  0.00    -0.477 OA
ATOM     10  H   LIG    1        2.361   0.753   3.474  0.00  0.00    +0.295 HD
ENDBRANCH   7   9
ENDBRANCH   4   7
BRANCH   5  11
ATOM     11  C   LIG    1        1.147   3.632  -0.136  0.00  0.00    +0.194 C 
ATOM     12  O   LIG    1        0.128   4.281   0.007  0.00  0.00    -0.287 OA
BRANCH  11  13
ATOM     13  C   LIG    1        2.425   4.317  -0.406  0.00  0.00    +0.023 A 
ATOM     14  C   LIG    1        3.575   3.571  -0.683  0.00  0.00    +0.015 A 
ATOM     15  C   LIG    1        4.764   4.215  -0.939  0.00  0.00    +0.046 A 
ATOM     16  C   LIG    1        4.826   5.604  -0.912  0.00  0.00    +0.117 A 
ATOM     17  C   LIG    1        3.686   6.349  -0.632  0.00  0.00    +0.046 A 
ATOM     18  C   LIG    1        2.491   5.714  -0.379  0.00  0.00    +0.015 A 
BRANCH  16  19
ATOM     19  O   LIG    1        6.002   6.233  -1.161  0.00  0.00    -0.507 OA
ATOM     20  H   LIG    1        6.538   6.390  -0.371  0.00  0.00    +0.292 HD
ENDBRANCH  16  19
ENDBRANCH  11  13
ENDBRANCH   5  11
TORSDOF 5
