REMARK  Name = ZINC00527386
REMARK                            x       y       z     vdW  Elec       q    Type
REMARK                         _______ _______ _______ _____ _____    ______ ____
ROOT
ATOM      1  C   LIG    1       -1.293  -0.775   0.010  0.00  0.00    +0.022 C 
ATOM      2  C   LIG    1       -1.350  -1.666   1.254  0.00  0.00    -0.011 C 
ATOM      3  C   LIG    1       -2.630  -2.504   1.216  0.00  0.00    -0.082 C 
ATOM      4  N   LIG    1       -2.635  -3.342   0.010  0.00  0.00    +0.379 N 
ATOM      5  H   LIG    1       -3.454  -3.932   0.015  0.00  0.00    -0.086 HD
ATOM      6  H   LIG    1       -1.807  -3.919   0.000  0.00  0.00    -0.086 HD
ATOM      7  C   LIG    1       -2.652  -2.493  -1.187  0.00  0.00    -0.075 C 
ATOM      8  C   LIG    1       -1.374  -1.653  -1.242  0.00  0.00    +0.017 C 
ENDROOT
BRANCH   1  15
ATOM      9  C   LIG    1       -0.017   1.378   0.010  0.00  0.00    +0.007 A 
ATOM     10  C   LIG    1        1.170   2.086   0.002  0.00  0.00    +0.038 A 
ATOM     11  C   LIG    1        2.379   1.410  -0.013  0.00  0.00    +0.123 A 
ATOM     12  F   LIG    1        3.540   2.101  -0.021  0.00  0.00    -0.205 F 
ATOM     13  C   LIG    1        2.396   0.026  -0.021  0.00  0.00    +0.038 A 
ATOM     14  C   LIG    1        1.208  -0.680  -0.013  0.00  0.00    +0.007 A 
ATOM     15  C   LIG    1        0.002  -0.004   0.002  0.00  0.00    -0.044 A 
ENDBRANCH   1  15
BRANCH   8  16
ATOM     16  C   LIG    1       -1.397  -0.765  -2.488  0.00  0.00    +0.231 C 
BRANCH  16  17
ATOM     17  O   LIG    1       -1.356  -1.585  -3.657  0.00  0.00    -0.492 OA
BRANCH  17  18
ATOM     18  C   LIG    1       -1.369  -0.948  -4.859  0.00  0.00    +0.124 A 
ATOM     19  C   LIG    1       -1.416   0.437  -4.908  0.00  0.00    +0.049 A 
ATOM     20  C   LIG    1       -1.430   1.087  -6.128  0.00  0.00    +0.053 A 
ATOM     21  C   LIG    1       -1.398   0.356  -7.305  0.00  0.00    +0.166 A 
ATOM     22  C   LIG    1       -1.351  -1.035  -7.257  0.00  0.00    +0.170 A 
ATOM     23  O   LIG    1       -1.326  -1.515  -8.535  0.00  0.00    -0.452 OA
ATOM     24  C   LIG    1       -1.770  -0.424  -9.364  0.00  0.00    +0.466 C 
ATOM     25  O   LIG    1       -1.403   0.748  -8.613  0.00  0.00    -0.453 OA
ATOM     26  C   LIG    1       -1.331  -1.684  -6.033  0.00  0.00    +0.095 A 
ENDBRANCH  17  18
ENDBRANCH  16  17
ENDBRANCH   8  16
TORSDOF 4
