REMARK  Name = ZINC00629244
REMARK                            x       y       z     vdW  Elec       q    Type
REMARK                         _______ _______ _______ _____ _____    ______ ____
ROOT
ATOM      1  C   LIG    1        0.013   1.712   0.741  0.00  0.00    -0.091 C 
ATOM      2  N   LIG    1       -0.062   0.324   0.268  0.00  0.00    +0.384 N 
ATOM      3  C   LIG    1        0.530   0.230  -1.074  0.00  0.00    -0.091 C 
ATOM      4  C   LIG    1       -1.468  -0.104   0.218  0.00  0.00    -0.070 C 
ATOM      5  C   LIG    1       -1.550  -1.420  -0.557  0.00  0.00    +0.017 C 
ATOM      6  C   LIG    1       -0.554  -2.404   0.002  0.00  0.00    -0.044 A 
ATOM      7  C   LIG    1       -0.699  -3.746  -0.315  0.00  0.00    +0.053 A 
ATOM      8  C   LIG    1        0.195  -4.681   0.175  0.00  0.00    +0.167 A 
ATOM      9  C   LIG    1        1.246  -4.268   0.991  0.00  0.00    +0.166 A 
ATOM     10  O   LIG    1        1.982  -5.363   1.341  0.00  0.00    -0.453 OA
ATOM     11  C   LIG    1        1.137  -6.497   1.068  0.00  0.00    +0.466 C 
ATOM     12  C   LIG    1        1.384  -2.929   1.305  0.00  0.00    +0.052 A 
ATOM     13  O   LIG    1        0.272  -6.035   0.015  0.00  0.00    -0.453 OA
ATOM     14  C   LIG    1        0.484  -1.995   0.812  0.00  0.00    -0.050 A 
ATOM     15  C   LIG    1        0.670  -0.549   1.189  0.00  0.00    +0.011 C 
ENDROOT
BRANCH  15  16
ATOM     16  C   LIG    1        2.160  -0.202   1.136  0.00  0.00    +0.199 C 
ATOM     17  C   LIG    1        2.874  -0.810   2.317  0.00  0.00    +0.009 A 
ATOM     18  C   LIG    1        2.749  -0.661   3.676  0.00  0.00    +0.012 A 
ATOM     19  C   LIG    1        3.571  -1.376   4.533  0.00  0.00    +0.050 A 
ATOM     20  C   LIG    1        4.524  -2.245   4.027  0.00  0.00    +0.167 A 
ATOM     21  C   LIG    1        4.660  -2.405   2.650  0.00  0.00    +0.181 A 
ATOM     22  O   LIG    1        5.654  -3.304   2.411  0.00  0.00    -0.452 OA
ATOM     23  C   LIG    1        6.402  -3.388   3.638  0.00  0.00    +0.466 C 
ATOM     24  O   LIG    1        5.436  -3.047   4.650  0.00  0.00    -0.453 OA
ATOM     25  C   LIG    1        3.830  -1.683   1.785  0.00  0.00    +0.111 A 
ATOM     26  C   LIG    1        3.721  -1.626   0.319  0.00  0.00    +0.344 C 
ATOM     27  O   LIG    1        4.406  -2.264  -0.456  0.00  0.00    -0.245 OA
ATOM     28  O   LIG    1        2.752  -0.765  -0.038  0.00  0.00    -0.454 OA
ENDBRANCH  15  16
TORSDOF 1
