REMARK  Name = ZINC00641970
REMARK                            x       y       z     vdW  Elec       q    Type
REMARK                         _______ _______ _______ _____ _____    ______ ____
ROOT
ATOM      1  C   LIG    1        4.728  -5.419   2.222  0.00  0.00    -0.013 A 
ATOM      2  C   LIG    1        5.683  -4.334   2.445  0.00  0.00    +0.003 A 
ATOM      3  C   LIG    1        6.239  -3.350   1.623  0.00  0.00    +0.010 A 
ATOM      4  C   LIG    1        7.129  -2.454   2.145  0.00  0.00    +0.001 A 
ATOM      5  C   LIG    1        7.487  -2.514   3.485  0.00  0.00    +0.002 A 
ATOM      6  C   LIG    1        6.951  -3.476   4.313  0.00  0.00    +0.026 A 
ATOM      7  C   LIG    1        6.042  -4.398   3.805  0.00  0.00    +0.047 A 
ATOM      8  N   LIG    1        5.351  -5.450   4.365  0.00  0.00    -0.354 N 
ATOM      9  H   LIG    1        5.408  -5.724   5.294  0.00  0.00    +0.166 HD
ATOM     10  C   LIG    1        4.564  -6.051   3.411  0.00  0.00    +0.051 A 
ENDROOT
BRANCH  10  11
ATOM     11  C   LIG    1        3.677  -7.211   3.643  0.00  0.00    -0.001 A 
ATOM     12  C   LIG    1        2.361  -7.191   3.178  0.00  0.00    +0.013 A 
ATOM     13  C   LIG    1        1.537  -8.274   3.397  0.00  0.00    +0.046 A 
ATOM     14  C   LIG    1        2.015  -9.385   4.080  0.00  0.00    +0.120 A 
ATOM     15  C   LIG    1        3.323  -9.409   4.545  0.00  0.00    +0.046 A 
ATOM     16  C   LIG    1        4.155  -8.332   4.324  0.00  0.00    +0.013 A 
BRANCH  14  17
ATOM     17  O   LIG    1        1.200 -10.451   4.294  0.00  0.00    -0.495 OA
ATOM     18  C   LIG    1        1.755 -11.560   5.003  0.00  0.00    +0.277 C 
ENDBRANCH  14  17
ENDBRANCH  10  11
BRANCH   1  19
ATOM     19  C   LIG    1        4.051  -5.764   0.921  0.00  0.00    +0.054 C 
BRANCH  19  20
ATOM     20  C   LIG    1        4.839  -6.868   0.213  0.00  0.00    +0.110 C 
BRANCH  20  21
ATOM     21  N   LIG    1        4.119  -7.285  -0.993  0.00  0.00    -0.190 NA
ATOM     22  H   LIG    1        3.190  -7.035  -1.114  0.00  0.00    +0.148 HD
BRANCH  21  23
ATOM     23  S   LIG    1        4.891  -8.185  -2.148  0.00  0.00    +0.058 S 
ATOM     24  O   LIG    1        3.934  -8.450  -3.164  0.00  0.00    -0.153 OA
ATOM     25  O   LIG    1        6.125  -7.532  -2.415  0.00  0.00    -0.153 OA
BRANCH  23  30
ATOM     26  C   LIG    1        6.265 -13.503   0.350  0.00  0.00    +0.044 C 
ATOM     27  C   LIG    1        5.922 -12.175  -0.274  0.00  0.00    -0.050 A 
ATOM     28  C   LIG    1        4.711 -12.007  -0.919  0.00  0.00    +0.005 A 
ATOM     29  C   LIG    1        4.396 -10.788  -1.492  0.00  0.00    +0.029 A 
ATOM     30  C   LIG    1        5.292  -9.738  -1.418  0.00  0.00    +0.105 A 
ATOM     31  C   LIG    1        6.503  -9.906  -0.772  0.00  0.00    +0.029 A 
ATOM     32  C   LIG    1        6.816 -11.123  -0.196  0.00  0.00    +0.005 A 
ENDBRANCH  23  30
ENDBRANCH  21  23
ENDBRANCH  20  21
ENDBRANCH  19  20
ENDBRANCH   1  19
TORSDOF 7
