REMARK  Name = ZINC00437899
REMARK                            x       y       z     vdW  Elec       q    Type
REMARK                         _______ _______ _______ _____ _____    ______ ____
ROOT
ATOM      1  C   LIG    1        2.406   0.752  -0.017  0.00  0.00    +0.249 C 
ATOM      2  N   LIG    1        3.671   1.218  -0.026  0.00  0.00    -0.206 N 
ATOM      3  H   LIG    1        3.835   2.174  -0.023  0.00  0.00    +0.177 HD
ATOM      4  O   LIG    1        2.201  -0.444  -0.021  0.00  0.00    -0.272 OA
ENDROOT
BRANCH   2   5
ATOM      5  N   LIG    1        4.748   0.323  -0.042  0.00  0.00    -0.188 NA
ATOM      6  C   LIG    1        5.965   0.772  -0.051  0.00  0.00    +0.142 C 
BRANCH   6   7
ATOM      7  C   LIG    1        7.098  -0.171  -0.067  0.00  0.00    +0.036 A 
ATOM      8  C   LIG    1        8.410   0.309  -0.082  0.00  0.00    +0.013 A 
ATOM      9  C   LIG    1        9.466  -0.578  -0.092  0.00  0.00    +0.001 A 
ATOM     10  C   LIG    1        9.231  -1.943  -0.098  0.00  0.00    +0.004 A 
ATOM     11  C   LIG    1        7.938  -2.430  -0.087  0.00  0.00    +0.046 A 
ATOM     12  C   LIG    1        6.865  -1.552  -0.072  0.00  0.00    +0.130 A 
BRANCH  12  13
ATOM     13  O   LIG    1        5.594  -2.030  -0.061  0.00  0.00    -0.480 OA
BRANCH  13  14
ATOM     14  C   LIG    1        5.434  -3.450  -0.068  0.00  0.00    +0.349 C 
BRANCH  14  15
ATOM     15  C   LIG    1        3.966  -3.790  -0.054  0.00  0.00    +0.343 C 
ATOM     16  O   LIG    1        3.141  -2.907  -0.041  0.00  0.00    -0.247 OA
BRANCH  15  17
ATOM     17  O   LIG    1        3.575  -5.074  -0.057  0.00  0.00    -0.478 OA
ATOM     18  H   LIG    1        4.214  -5.759  -0.068  0.00  0.00    +0.295 HD
ENDBRANCH  15  17
ENDBRANCH  14  15
ENDBRANCH  13  14
ENDBRANCH  12  13
ENDBRANCH   6   7
ENDBRANCH   2   5
BRANCH   1  19
ATOM     19  C   LIG    1        1.248   1.716  -0.001  0.00  0.00    +0.199 C 
BRANCH  19  20
ATOM     20  N   LIG    1       -0.011   0.966   0.007  0.00  0.00    -0.335 N 
ATOM     21  H   LIG    1        0.002  -0.004   0.002  0.00  0.00    +0.147 HD
BRANCH  20  26
ATOM     22  C   LIG    1       -4.960   3.734   0.047  0.00  0.00    +0.044 C 
ATOM     23  C   LIG    1       -3.645   2.998   0.037  0.00  0.00    -0.050 A 
ATOM     24  C   LIG    1       -3.628   1.616   0.029  0.00  0.00    +0.005 A 
ATOM     25  C   LIG    1       -2.424   0.938   0.019  0.00  0.00    +0.023 A 
ATOM     26  C   LIG    1       -1.230   1.648   0.017  0.00  0.00    +0.028 A 
ATOM     27  C   LIG    1       -1.251   3.037   0.030  0.00  0.00    +0.023 A 
ATOM     28  C   LIG    1       -2.458   3.708   0.035  0.00  0.00    +0.005 A 
ENDBRANCH  20  26
ENDBRANCH  19  20
ENDBRANCH   1  19
TORSDOF 9
