REMARK  Name = ZINC00499675
REMARK                            x       y       z     vdW  Elec       q    Type
REMARK                         _______ _______ _______ _____ _____    ______ ____
ROOT
ATOM      1  C   LIG    1        1.297   1.377   0.131  0.00  0.00    +0.248 C 
ATOM      2  N   LIG    1        0.113   0.737   0.061  0.00  0.00    -0.281 N 
ATOM      3  H   LIG    1        0.086  -0.232   0.030  0.00  0.00    +0.155 HD
ATOM      4  O   LIG    1        1.335   2.591   0.087  0.00  0.00    -0.270 OA
ENDROOT
BRANCH   1   8
ATOM      5  C   LIG    1        4.897  -0.850   0.506  0.00  0.00    -0.018 A 
ATOM      6  C   LIG    1        4.941   0.543   0.456  0.00  0.00    +0.009 A 
ATOM      7  C   LIG    1        3.776   1.266   0.334  0.00  0.00    +0.013 A 
ATOM      8  C   LIG    1        2.548   0.603   0.261  0.00  0.00    +0.037 A 
ATOM      9  C   LIG    1        2.504  -0.792   0.317  0.00  0.00    +0.013 A 
ATOM     10  C   LIG    1        3.671  -1.513   0.434  0.00  0.00    +0.009 A 
BRANCH   5  14
ATOM     11  C   LIG    1        8.498  -3.078   0.882  0.00  0.00    +0.000 A 
ATOM     12  C   LIG    1        7.284  -3.738   0.811  0.00  0.00    +0.001 A 
ATOM     13  C   LIG    1        6.112  -3.020   0.689  0.00  0.00    +0.008 A 
ATOM     14  C   LIG    1        6.152  -1.627   0.638  0.00  0.00    -0.018 A 
ATOM     15  C   LIG    1        7.379  -0.968   0.705  0.00  0.00    +0.008 A 
ATOM     16  C   LIG    1        8.544  -1.697   0.832  0.00  0.00    +0.001 A 
ENDBRANCH   5  14
ENDBRANCH   1   8
BRANCH   2  17
ATOM     17  C   LIG    1       -1.071   1.467   0.026  0.00  0.00    +0.048 A 
ATOM     18  C   LIG    1       -1.121   2.686  -0.637  0.00  0.00    +0.024 A 
ATOM     19  C   LIG    1       -2.298   3.406  -0.675  0.00  0.00    +0.002 A 
ATOM     20  C   LIG    1       -3.434   2.926  -0.043  0.00  0.00    +0.001 A 
ATOM     21  C   LIG    1       -3.403   1.721   0.625  0.00  0.00    +0.017 A 
ATOM     22  C   LIG    1       -2.220   0.978   0.667  0.00  0.00    +0.080 A 
BRANCH  22  23
ATOM     23  C   LIG    1       -2.179  -0.310   1.381  0.00  0.00    +0.339 C 
ATOM     24  O   LIG    1       -1.127  -0.906   1.500  0.00  0.00    -0.245 OA
BRANCH  23  25
ATOM     25  O   LIG    1       -3.309  -0.828   1.902  0.00  0.00    -0.477 OA
ATOM     26  H   LIG    1       -4.121  -0.369   1.810  0.00  0.00    +0.295 HD
ENDBRANCH  23  25
ENDBRANCH  22  23
ENDBRANCH   2  17
TORSDOF 5
