REMARK  Name = ZINC00537877
REMARK                            x       y       z     vdW  Elec       q    Type
REMARK                         _______ _______ _______ _____ _____    ______ ____
ROOT
ATOM      1  N   LIG    1        2.755  -6.150  -1.497  0.00  0.00    +0.381 N 
ATOM      2  H   LIG    1        2.005  -6.543  -0.948  0.00  0.00    -0.082 HD
ATOM      3  C   LIG    1        4.043  -6.550  -0.918  0.00  0.00    -0.078 C 
ATOM      4  C   LIG    1        4.123  -8.077  -0.849  0.00  0.00    -0.007 C 
ATOM      5  C   LIG    1        3.996  -8.653  -2.262  0.00  0.00    +0.057 C 
ATOM      6  C   LIG    1        2.683  -8.169  -2.884  0.00  0.00    -0.007 C 
ATOM      7  C   LIG    1        2.656  -6.639  -2.877  0.00  0.00    -0.078 C 
ENDROOT
BRANCH   5   8
ATOM      8  C   LIG    1        3.996 -10.159  -2.194  0.00  0.00    +0.166 C 
ATOM      9  O   LIG    1        3.553 -10.722  -1.215  0.00  0.00    -0.292 OA
BRANCH   8  10
ATOM     10  C   LIG    1        4.533 -10.945  -3.314  0.00  0.00    +0.018 A 
ATOM     11  C   LIG    1        5.050 -10.299  -4.442  0.00  0.00    +0.014 A 
ATOM     12  C   LIG    1        5.552 -11.042  -5.488  0.00  0.00    +0.039 A 
ATOM     13  C   LIG    1        5.545 -12.427  -5.425  0.00  0.00    +0.123 A 
ATOM     14  F   LIG    1        6.037 -13.150  -6.455  0.00  0.00    -0.205 F 
ATOM     15  C   LIG    1        5.034 -13.074  -4.309  0.00  0.00    +0.039 A 
ATOM     16  C   LIG    1        4.535 -12.343  -3.254  0.00  0.00    +0.014 A 
ENDBRANCH   8  10
ENDBRANCH   5   8
BRANCH   1  17
ATOM     17  C   LIG    1        2.650  -4.685  -1.489  0.00  0.00    -0.057 C 
BRANCH  17  18
ATOM     18  C   LIG    1        2.627  -4.183  -0.044  0.00  0.00    +0.111 C 
BRANCH  18  25
ATOM     19  C   LIG    1       -0.017   1.375   0.010  0.00  0.00    +0.001 A 
ATOM     20  C   LIG    1        1.169   2.093   0.002  0.00  0.00    +0.002 A 
ATOM     21  C   LIG    1        2.386   1.442  -0.013  0.00  0.00    +0.026 A 
ATOM     22  C   LIG    1        2.425   0.056  -0.021  0.00  0.00    +0.056 A 
ATOM     23  C   LIG    1        1.223  -0.673  -0.013  0.00  0.00    +0.063 A 
ATOM     24  C   LIG    1        1.301  -2.145  -0.021  0.00  0.00    +0.264 A 
ATOM     25  N   LIG    1        2.522  -2.722  -0.036  0.00  0.00    -0.262 N 
ATOM     26  C   LIG    1        3.642  -1.982  -0.043  0.00  0.00    +0.330 A 
ATOM     27  O   LIG    1        4.716  -2.551  -0.056  0.00  0.00    -0.246 OA
ATOM     28  O   LIG    1        0.291  -2.823  -0.016  0.00  0.00    -0.267 OA
ATOM     29  N   LIG    1        3.627  -0.638  -0.036  0.00  0.00    -0.307 N 
ATOM     30  H   LIG    1        4.464  -0.148  -0.041  0.00  0.00    +0.170 HD
ATOM     31  C   LIG    1        0.002  -0.004   0.002  0.00  0.00    +0.015 A 
ENDBRANCH  18  25
ENDBRANCH  17  18
ENDBRANCH   1  17
TORSDOF 5
