REMARK  Name = ZINC00625005
REMARK                            x       y       z     vdW  Elec       q    Type
REMARK                         _______ _______ _______ _____ _____    ______ ____
ROOT
ATOM      1  N   LIG    1       -1.871  -6.812  -0.986  0.00  0.00    -0.216 N 
ATOM      2  H   LIG    1       -2.249  -7.254  -0.209  0.00  0.00    +0.174 HD
ENDROOT
BRANCH   1   3
ATOM      3  C   LIG    1       -2.607  -6.718  -2.159  0.00  0.00    +0.059 A 
ATOM      4  C   LIG    1       -1.972  -6.806  -3.391  0.00  0.00    +0.025 A 
ATOM      5  C   LIG    1       -2.705  -6.713  -4.556  0.00  0.00    +0.002 A 
ATOM      6  C   LIG    1       -4.079  -6.531  -4.508  0.00  0.00    +0.001 A 
ATOM      7  C   LIG    1       -4.728  -6.442  -3.296  0.00  0.00    +0.013 A 
ATOM      8  C   LIG    1       -4.000  -6.540  -2.106  0.00  0.00    +0.045 A 
BRANCH   8   9
ATOM      9  C   LIG    1       -4.688  -6.451  -0.807  0.00  0.00    +0.195 C 
ATOM     10  O   LIG    1       -5.091  -5.377  -0.405  0.00  0.00    -0.287 OA
BRANCH   9  11
ATOM     11  C   LIG    1       -4.887  -7.668   0.009  0.00  0.00    +0.022 A 
ATOM     12  C   LIG    1       -5.624  -7.605   1.193  0.00  0.00    +0.012 A 
ATOM     13  C   LIG    1       -5.806  -8.744   1.949  0.00  0.00    +0.001 A 
ATOM     14  C   LIG    1       -5.260  -9.947   1.536  0.00  0.00    +0.000 A 
ATOM     15  C   LIG    1       -4.529 -10.016   0.364  0.00  0.00    +0.001 A 
ATOM     16  C   LIG    1       -4.344  -8.886  -0.405  0.00  0.00    +0.012 A 
ENDBRANCH   9  11
ENDBRANCH   8   9
ENDBRANCH   1   3
BRANCH   1  17
ATOM     17  S   LIG    1       -0.347  -6.169  -0.911  0.00  0.00    +0.072 S 
ATOM     18  O   LIG    1        0.080  -6.291   0.439  0.00  0.00    -0.150 OA
ATOM     19  O   LIG    1        0.384  -6.729  -1.994  0.00  0.00    -0.150 OA
BRANCH  17  23
ATOM     20  C   LIG    1       -0.721  -1.735  -1.756  0.00  0.00    +0.033 A 
ATOM     21  C   LIG    1       -0.810  -2.205  -0.452  0.00  0.00    +0.025 A 
ATOM     22  C   LIG    1       -0.695  -3.558  -0.198  0.00  0.00    +0.030 A 
ATOM     23  C   LIG    1       -0.492  -4.444  -1.240  0.00  0.00    +0.109 A 
ATOM     24  C   LIG    1       -0.403  -3.979  -2.539  0.00  0.00    +0.030 A 
ATOM     25  C   LIG    1       -0.522  -2.628  -2.800  0.00  0.00    +0.025 A 
BRANCH  20  28
ATOM     26  C   LIG    1       -1.665   1.530  -3.372  0.00  0.00    +0.109 C 
ATOM     27  C   LIG    1       -1.447   0.057  -3.142  0.00  0.00    +0.214 C 
ATOM     28  N   LIG    1       -0.836  -0.365  -2.017  0.00  0.00    -0.286 N 
ATOM     29  H   LIG    1       -0.477   0.280  -1.388  0.00  0.00    +0.155 HD
ATOM     30  O   LIG    1       -1.820  -0.748  -3.968  0.00  0.00    -0.276 OA
ENDBRANCH  20  28
ENDBRANCH  17  23
ENDBRANCH   1  17
TORSDOF 6
