REMARK  Name = ZINC00499303
REMARK                            x       y       z     vdW  Elec       q    Type
REMARK                         _______ _______ _______ _____ _____    ______ ____
ROOT
ATOM      1  C   LIG    1        0.063   1.956   0.144  0.00  0.00    +0.022 A 
ATOM      2  C   LIG    1        1.300   2.559   0.081  0.00  0.00    +0.027 A 
ATOM      3  C   LIG    1        2.452   1.781   0.059  0.00  0.00    +0.047 A 
ATOM      4  C   LIG    1        2.341   0.379   0.103  0.00  0.00    +0.004 A 
ATOM      5  C   LIG    1        3.710  -0.135   0.066  0.00  0.00    -0.018 A 
ATOM      6  C   LIG    1        4.533   0.925   0.008  0.00  0.00    +0.032 A 
ATOM      7  C   LIG    1        6.042   0.852  -0.027  0.00  0.00    +0.121 C 
ATOM      8  C   LIG    1        6.478  -0.190  -1.059  0.00  0.00    +0.019 C 
ATOM      9  C   LIG    1        6.578  -1.561  -0.396  0.00  0.00    +0.001 C 
ATOM     10  C   LIG    1        5.522  -1.704   0.698  0.00  0.00    +0.005 C 
ATOM     11  C   LIG    1        4.127  -1.583   0.079  0.00  0.00    +0.037 C 
ATOM     12  C   LIG    1        1.080  -0.218   0.167  0.00  0.00    +0.030 A 
ATOM     13  N   LIG    1        3.795   2.079  -0.002  0.00  0.00    -0.357 N 
ATOM     14  H   LIG    1        4.164   2.975  -0.045  0.00  0.00    +0.166 HD
ATOM     15  C   LIG    1       -0.048   0.572   0.188  0.00  0.00    +0.042 A 
ATOM     16 CL   LIG    1       -1.618  -0.165   0.268  0.00  0.00    -0.084 Cl
ENDROOT
BRANCH   7  17
ATOM     17  C   LIG    1        6.558   0.459   1.333  0.00  0.00    +0.219 C 
ATOM     18  N   LIG    1        5.861   0.787   2.439  0.00  0.00    -0.329 N 
ATOM     19  H   LIG    1        6.193   0.534   3.314  0.00  0.00    +0.145 HD
ATOM     20  H   LIG    1        5.027   1.277   2.359  0.00  0.00    +0.145 HD
ATOM     21  O   LIG    1        7.600  -0.153   1.433  0.00  0.00    -0.275 OA
ENDBRANCH   7  17
TORSDOF 1
