REMARK  Name = ZINC00578599
REMARK                            x       y       z     vdW  Elec       q    Type
REMARK                         _______ _______ _______ _____ _____    ______ ____
ROOT
ATOM      1  S   LIG    1       -2.569  -2.847   0.834  0.00  0.00    +0.059 S 
ATOM      2  O   LIG    1       -2.631  -2.282   2.136  0.00  0.00    -0.153 OA
ATOM      3  O   LIG    1       -2.298  -4.224   0.613  0.00  0.00    -0.153 OA
ENDROOT
BRANCH   1   4
ATOM      4  C   LIG    1       -4.117  -2.508   0.064  0.00  0.00    +0.105 A 
ATOM      5  C   LIG    1       -4.880  -1.437   0.492  0.00  0.00    +0.029 A 
ATOM      6  C   LIG    1       -6.094  -1.167  -0.107  0.00  0.00    +0.010 A 
ATOM      7  C   LIG    1       -6.550  -1.976  -1.146  0.00  0.00    -0.018 A 
ATOM      8  C   LIG    1       -5.777  -3.053  -1.574  0.00  0.00    +0.010 A 
ATOM      9  C   LIG    1       -4.562  -3.311  -0.971  0.00  0.00    +0.029 A 
BRANCH   7  10
ATOM     10  C   LIG    1       -7.854  -1.691  -1.794  0.00  0.00    -0.018 A 
ATOM     11  C   LIG    1       -8.624  -0.610  -1.370  0.00  0.00    +0.010 A 
ATOM     12  C   LIG    1       -9.836  -0.349  -1.976  0.00  0.00    +0.020 A 
ATOM     13  C   LIG    1      -10.287  -1.159  -3.004  0.00  0.00    +0.041 A 
ATOM     14 CL   LIG    1      -11.813  -0.826  -3.762  0.00  0.00    -0.084 Cl
ATOM     15  C   LIG    1       -9.525  -2.235  -3.429  0.00  0.00    +0.020 A 
ATOM     16  C   LIG    1       -8.309  -2.500  -2.833  0.00  0.00    +0.010 A 
ENDBRANCH   7  10
ENDBRANCH   1   4
BRANCH   1  17
ATOM     17  N   LIG    1       -1.413  -1.998   0.005  0.00  0.00    -0.176 NA
ATOM     18  H   LIG    1       -0.723  -2.471  -0.486  0.00  0.00    +0.149 HD
BRANCH  17  19
ATOM     19  C   LIG    1       -1.433  -0.534   0.013  0.00  0.00    +0.187 C 
BRANCH  19  21
ATOM     20  C   LIG    1       -0.019   1.526   0.010  0.00  0.00    +0.009 C 
ATOM     21  C   LIG    1        0.002  -0.004   0.002  0.00  0.00    +0.012 C 
ATOM     22  C   LIG    1        0.742  -0.511   1.242  0.00  0.00    +0.009 C 
ENDBRANCH  19  21
BRANCH  19  23
ATOM     23  C   LIG    1       -2.162  -0.034  -1.208  0.00  0.00    +0.324 C 
ATOM     24  O   LIG    1       -2.462  -0.811  -2.099  0.00  0.00    -0.249 OA
BRANCH  23  25
ATOM     25  O   LIG    1       -2.452   1.146  -1.305  0.00  0.00    -0.479 OA
ATOM     26  H   LIG    1       -2.222   1.743  -0.620  0.00  0.00    +0.295 HD
ENDBRANCH  23  25
ENDBRANCH  19  23
ENDBRANCH  17  19
ENDBRANCH   1  17
TORSDOF 7
