REMARK  Name = ZINC00396739
REMARK                            x       y       z     vdW  Elec       q    Type
REMARK                         _______ _______ _______ _____ _____    ______ ____
ROOT
ATOM      1  N   LIG    1       -0.011   0.966   0.007  0.00  0.00    -0.268 N 
ATOM      2  H   LIG    1        0.786   1.335   0.418  0.00  0.00    +0.156 HD
ATOM      3  C   LIG    1        0.039  -0.237  -0.599  0.00  0.00    +0.327 C 
ATOM      4  N   LIG    1        1.215  -0.884  -0.716  0.00  0.00    -0.181 N 
ATOM      5  H   LIG    1        2.026  -0.485  -0.363  0.00  0.00    +0.184 HD
ATOM      6  O   LIG    1       -0.977  -0.738  -1.040  0.00  0.00    -0.250 OA
ENDROOT
BRANCH   1  13
ATOM      7  C   LIG    1       -1.204   3.066  -0.028  0.00  0.00    +0.024 A 
ATOM      8  C   LIG    1       -2.394   3.767   0.007  0.00  0.00    +0.017 A 
ATOM      9  C   LIG    1       -3.594   3.090   0.130  0.00  0.00    +0.018 A 
ATOM     10 BR   LIG    1       -5.220   4.054   0.185  0.00  0.00    -0.050 Br
ATOM     11  C   LIG    1       -3.607   1.709   0.213  0.00  0.00    +0.017 A 
ATOM     12  C   LIG    1       -2.421   1.002   0.172  0.00  0.00    +0.024 A 
ATOM     13  C   LIG    1       -1.215   1.679   0.049  0.00  0.00    +0.035 A 
ENDBRANCH   1  13
BRANCH   4  14
ATOM     14  O   LIG    1        1.268  -2.148  -1.352  0.00  0.00    -0.294 OA
ATOM     15  H   LIG    1        2.153  -2.534  -1.388  0.00  0.00    +0.241 HD
ENDBRANCH   4  14
TORSDOF 2
