REMARK  Name = ZINC00451519
REMARK                            x       y       z     vdW  Elec       q    Type
REMARK                         _______ _______ _______ _____ _____    ______ ____
ROOT
ATOM      1  N   LIG    1       -0.390   1.163  -4.938  0.00  0.00    -0.285 N 
ATOM      2  H   LIG    1        0.416   0.632  -5.029  0.00  0.00    +0.155 HD
ATOM      3  C   LIG    1       -0.752   1.638  -3.729  0.00  0.00    +0.217 C 
ATOM      4  O   LIG    1       -1.705   2.381  -3.630  0.00  0.00    -0.275 OA
ENDROOT
BRANCH   1   8
ATOM      5  C   LIG    1       -2.737   1.976  -8.283  0.00  0.00    +0.000 A 
ATOM      6  C   LIG    1       -1.365   1.866  -8.413  0.00  0.00    +0.002 A 
ATOM      7  C   LIG    1       -0.584   1.596  -7.306  0.00  0.00    +0.023 A 
ATOM      8  C   LIG    1       -1.178   1.436  -6.061  0.00  0.00    +0.033 A 
ATOM      9  C   LIG    1       -2.557   1.543  -5.935  0.00  0.00    +0.023 A 
ATOM     10  C   LIG    1       -3.332   1.818  -7.045  0.00  0.00    +0.002 A 
ENDBRANCH   1   8
BRANCH   3  11
ATOM     11  C   LIG    1        0.029   1.246  -2.501  0.00  0.00    +0.099 C 
BRANCH  11  12
ATOM     12  C   LIG    1       -0.584   1.917  -1.271  0.00  0.00    -0.002 C 
ATOM     13  C   LIG    1        0.129   1.423  -0.011  0.00  0.00    +0.004 C 
ATOM     14  C   LIG    1       -0.485   2.094   1.219  0.00  0.00    +0.000 C 
ATOM     15  C   LIG    1       -0.325   3.611   1.105  0.00  0.00    +0.000 C 
ATOM     16  C   LIG    1       -1.039   4.106  -0.155  0.00  0.00    +0.000 C 
ATOM     17  C   LIG    1       -0.425   3.435  -1.385  0.00  0.00    +0.004 C 
ENDBRANCH  11  12
ENDBRANCH   3  11
TORSDOF 3
