REMARK  Name = ZINC00362938
REMARK                            x       y       z     vdW  Elec       q    Type
REMARK                         _______ _______ _______ _____ _____    ______ ____
ROOT
ATOM      1  C   LIG    1        3.624  -0.826   0.549  0.00  0.00    +0.248 C 
ATOM      2  N   LIG    1        3.717  -2.032  -0.045  0.00  0.00    -0.280 N 
ATOM      3  H   LIG    1        2.922  -2.462  -0.397  0.00  0.00    +0.155 HD
ATOM      4  O   LIG    1        4.601  -0.332   1.079  0.00  0.00    -0.270 OA
ENDROOT
BRANCH   2   5
ATOM      5  C   LIG    1        4.957  -2.663  -0.152  0.00  0.00    +0.060 A 
ATOM      6  C   LIG    1        6.118  -1.920  -0.147  0.00  0.00    +0.025 A 
ATOM      7  C   LIG    1        7.361  -2.536  -0.253  0.00  0.00    +0.003 A 
ATOM      8  C   LIG    1        7.464  -3.890  -0.366  0.00  0.00    +0.010 A 
ATOM      9  C   LIG    1        6.305  -4.682  -0.375  0.00  0.00    +0.002 A 
ATOM     10  C   LIG    1        6.378  -6.084  -0.491  0.00  0.00    +0.011 A 
ATOM     11  C   LIG    1        5.211  -6.793  -0.477  0.00  0.00    +0.020 A 
ATOM     12  C   LIG    1        3.993  -6.125  -0.368  0.00  0.00    +0.111 A 
ATOM     13  N   LIG    1        3.929  -4.820  -0.266  0.00  0.00    -0.253 NA
ATOM     14  C   LIG    1        5.033  -4.069  -0.262  0.00  0.00    +0.092 A 
ENDBRANCH   2   5
BRANCH   1  18
ATOM     15  C   LIG    1       -0.080   1.253   0.566  0.00  0.00    +0.000 A 
ATOM     16  C   LIG    1        1.030   1.817   1.171  0.00  0.00    +0.001 A 
ATOM     17  C   LIG    1        2.236   1.147   1.169  0.00  0.00    +0.013 A 
ATOM     18  C   LIG    1        2.335  -0.102   0.555  0.00  0.00    +0.037 A 
ATOM     19  C   LIG    1        1.212  -0.666  -0.053  0.00  0.00    +0.013 A 
ATOM     20  C   LIG    1        0.012   0.015  -0.044  0.00  0.00    +0.001 A 
ENDBRANCH   1  18
TORSDOF 2
