REMARK  Name = ZINC00487462
REMARK                            x       y       z     vdW  Elec       q    Type
REMARK                         _______ _______ _______ _____ _____    ______ ____
ROOT
ATOM      1  N   LIG    1        0.711  -0.489   1.189  0.00  0.00    -0.243 N 
ATOM      2  C   LIG    1        0.034  -0.740   2.341  0.00  0.00    +0.186 A 
ATOM      3  N   LIG    1       -1.274  -0.570   2.471  0.00  0.00    -0.172 NA
ATOM      4  C   LIG    1       -1.894  -0.828   3.617  0.00  0.00    +0.353 A 
ATOM      5  N   LIG    1       -1.279  -1.273   4.723  0.00  0.00    -0.261 N 
ATOM      6  C   LIG    1       -2.068  -1.523   5.932  0.00  0.00    +0.157 C 
ATOM      7  C   LIG    1        0.057  -1.495   4.744  0.00  0.00    +0.284 A 
ATOM      8  O   LIG    1        0.619  -1.898   5.744  0.00  0.00    -0.265 OA
ATOM      9  O   LIG    1       -3.099  -0.650   3.667  0.00  0.00    -0.244 OA
ATOM     10  C   LIG    1        0.799  -1.225   3.498  0.00  0.00    +0.174 A 
ATOM     11  N   LIG    1        2.098  -1.394   3.371  0.00  0.00    -0.217 NA
ATOM     12  C   LIG    1        2.672  -1.119   2.195  0.00  0.00    +0.187 A 
ATOM     13  N   LIG    1        1.985  -0.690   1.154  0.00  0.00    -0.149 NA
ENDROOT
BRANCH  12  14
ATOM     14  C   LIG    1        4.130  -1.309   2.055  0.00  0.00    +0.058 A 
ATOM     15  C   LIG    1        5.036  -1.750   2.983  0.00  0.00    +0.019 A 
ATOM     16  C   LIG    1        6.361  -1.848   2.620  0.00  0.00    +0.008 A 
ATOM     17  C   LIG    1        6.728  -1.506   1.358  0.00  0.00    +0.046 A 
ATOM     18  S   LIG    1        5.169  -1.031   0.630  0.00  0.00    -0.093 S 
ENDBRANCH  12  14
BRANCH   1  20
ATOM     19  C   LIG    1       -0.019   1.526   0.010  0.00  0.00    +0.029 C 
ATOM     20  C   LIG    1        0.002  -0.004   0.002  0.00  0.00    +0.142 C 
ENDBRANCH   1  20
TORSDOF 2
