REMARK  Name = ZINC00626401
REMARK                            x       y       z     vdW  Elec       q    Type
REMARK                         _______ _______ _______ _____ _____    ______ ____
ROOT
ATOM      1  C   LIG    1       -1.332   2.114   0.020  0.00  0.00    +0.124 C 
ATOM      2  C   LIG    1       -1.633   2.658  -1.357  0.00  0.00    +0.155 C 
ATOM      3  C   LIG    1       -1.714   4.006  -1.236  0.00  0.00    +0.230 C 
ATOM      4  O   LIG    1       -1.969   4.869  -2.244  0.00  0.00    -0.286 OA
ATOM      5  C   LIG    1       -1.476   4.380   0.175  0.00  0.00    +0.283 C 
ATOM      6  O   LIG    1       -1.482   5.516   0.606  0.00  0.00    -0.267 OA
ATOM      7  N   LIG    1       -1.252   3.276   0.912  0.00  0.00    -0.287 N 
ENDROOT
BRANCH   1  11
ATOM      8  C   LIG    1        2.396   0.029  -0.022  0.00  0.00    -0.048 A 
ATOM      9  C   LIG    1        1.208  -0.679  -0.014  0.00  0.00    +0.004 A 
ATOM     10  C   LIG    1        0.002  -0.004   0.002  0.00  0.00    +0.006 A 
ATOM     11  C   LIG    1       -0.017   1.378   0.010  0.00  0.00    -0.026 A 
ATOM     12  C   LIG    1        1.171   2.086   0.002  0.00  0.00    +0.006 A 
ATOM     13  C   LIG    1        2.377   1.411  -0.014  0.00  0.00    +0.004 A 
BRANCH   8  15
ATOM     14  C   LIG    1        4.142  -0.948  -1.487  0.00  0.00    +0.009 C 
ATOM     15  C   LIG    1        3.711  -0.707  -0.039  0.00  0.00    +0.032 C 
ENDBRANCH   8  15
ENDBRANCH   1  11
BRANCH   2  16
ATOM     16  C   LIG    1       -1.800   1.905  -2.544  0.00  0.00    +0.143 C 
ATOM     17  O   LIG    1       -2.041   2.469  -3.591  0.00  0.00    -0.297 OA
ATOM     18  C   LIG    1       -1.678   0.404  -2.507  0.00  0.00    +0.087 C 
ENDBRANCH   2  16
BRANCH   7  19
ATOM     19  C   LIG    1       -0.978   3.242   2.350  0.00  0.00    +0.113 C 
BRANCH  19  20
ATOM     20  C   LIG    1        0.531   3.338   2.584  0.00  0.00    +0.056 C 
BRANCH  20  21
ATOM     21  C   LIG    1        0.814   3.302   4.064  0.00  0.00    -0.021 A 
ATOM     22  C   LIG    1        0.981   4.362   4.870  0.00  0.00    +0.087 A 
ATOM     23  N   LIG    1        1.220   3.941   6.150  0.00  0.00    -0.360 N 
ATOM     24  C   LIG    1        1.213   2.565   6.199  0.00  0.00    +0.047 A 
ATOM     25  C   LIG    1        1.397   1.642   7.224  0.00  0.00    +0.026 A 
ATOM     26  C   LIG    1        1.315   0.293   6.953  0.00  0.00    +0.002 A 
ATOM     27  C   LIG    1        1.061  -0.156   5.664  0.00  0.00    +0.001 A 
ATOM     28  C   LIG    1        0.881   0.733   4.642  0.00  0.00    +0.010 A 
ATOM     29  H   LIG    1        1.372   4.524   6.910  0.00  0.00    +0.165 HD
ATOM     30  C   LIG    1        0.952   2.104   4.895  0.00  0.00    +0.003 A 
ENDBRANCH  20  21
ENDBRANCH  19  20
ENDBRANCH   7  19
TORSDOF 6
