REMARK  Name = ZINC00538404
REMARK                            x       y       z     vdW  Elec       q    Type
REMARK                         _______ _______ _______ _____ _____    ______ ____
ROOT
ATOM      1  C   LIG    1        0.933  -7.751   3.010  0.00  0.00    +0.132 C 
ATOM      2  N   LIG    1        0.190  -6.650   2.390  0.00  0.00    -0.294 N 
ATOM      3  C   LIG    1       -0.629  -5.809   3.247  0.00  0.00    +0.203 C 
ATOM      4  C   LIG    1       -1.266  -4.689   2.490  0.00  0.00    +0.234 C 
ATOM      5  N   LIG    1       -1.133  -4.494   1.177  0.00  0.00    -0.276 N 
ATOM      6  C   LIG    1       -0.400  -5.409   0.303  0.00  0.00    +0.167 C 
ATOM      7  C   LIG    1       -1.379  -6.050  -0.690  0.00  0.00    +0.069 C 
ATOM      8  C   LIG    1       -2.279  -4.978  -1.249  0.00  0.00    -0.015 A 
ATOM      9  C   LIG    1       -3.107  -5.030  -2.436  0.00  0.00    +0.003 A 
ATOM     10  C   LIG    1       -3.328  -6.025  -3.394  0.00  0.00    +0.010 A 
ATOM     11  C   LIG    1       -4.203  -5.725  -4.409  0.00  0.00    +0.001 A 
ATOM     12  C   LIG    1       -4.841  -4.498  -4.492  0.00  0.00    +0.002 A 
ATOM     13  C   LIG    1       -4.640  -3.496  -3.559  0.00  0.00    +0.026 A 
ATOM     14  C   LIG    1       -3.757  -3.772  -2.517  0.00  0.00    +0.047 A 
ATOM     15  N   LIG    1       -3.337  -3.029  -1.451  0.00  0.00    -0.356 N 
ATOM     16  H   LIG    1       -3.622  -2.123  -1.256  0.00  0.00    +0.166 HD
ATOM     17  C   LIG    1       -2.454  -3.755  -0.699  0.00  0.00    +0.046 A 
ATOM     18  C   LIG    1       -1.754  -3.302   0.562  0.00  0.00    +0.154 C 
ATOM     19  O   LIG    1       -1.951  -3.904   3.112  0.00  0.00    -0.274 OA
ATOM     20  C   LIG    1        0.304  -6.479   1.075  0.00  0.00    +0.237 C 
ATOM     21  O   LIG    1        1.024  -7.240   0.463  0.00  0.00    -0.274 OA
ENDROOT
BRANCH  18  22
ATOM     22  C   LIG    1       -0.692  -2.288   0.222  0.00  0.00    -0.018 A 
ATOM     23  C   LIG    1       -0.671  -1.067   0.871  0.00  0.00    +0.009 A 
ATOM     24  C   LIG    1        0.301  -0.134   0.562  0.00  0.00    +0.050 A 
ATOM     25  C   LIG    1        1.258  -0.421  -0.398  0.00  0.00    +0.166 A 
ATOM     26  C   LIG    1        1.236  -1.651  -1.052  0.00  0.00    +0.167 A 
ATOM     27  O   LIG    1        2.270  -1.690  -1.942  0.00  0.00    -0.453 OA
ATOM     28  C   LIG    1        2.677  -0.320  -2.119  0.00  0.00    +0.466 C 
ATOM     29  O   LIG    1        2.305   0.310  -0.879  0.00  0.00    -0.453 OA
ATOM     30  C   LIG    1        0.259  -2.581  -0.738  0.00  0.00    +0.055 A 
ENDBRANCH  18  22
TORSDOF 1
