REMARK  Name = ZINC00364427
REMARK                            x       y       z     vdW  Elec       q    Type
REMARK                         _______ _______ _______ _____ _____    ______ ____
ROOT
ATOM      1  N   LIG    1        1.651  -4.999  -0.034  0.00  0.00    -0.216 N 
ATOM      2  H   LIG    1        2.365  -4.321  -0.035  0.00  0.00    +0.174 HD
ENDROOT
BRANCH   1   3
ATOM      3  C   LIG    1        1.978  -6.357  -0.043  0.00  0.00    +0.049 A 
ATOM      4  C   LIG    1        0.972  -7.316  -0.049  0.00  0.00    +0.024 A 
ATOM      5  C   LIG    1        1.299  -8.657  -0.058  0.00  0.00    +0.002 A 
ATOM      6  C   LIG    1        2.626  -9.047  -0.062  0.00  0.00    +0.012 A 
ATOM      7  C   LIG    1        3.629  -8.096  -0.056  0.00  0.00    +0.057 A 
ATOM      8  C   LIG    1        3.309  -6.753  -0.053  0.00  0.00    +0.036 A 
BRANCH   7   9
ATOM      9  C   LIG    1        5.074  -8.526  -0.059  0.00  0.00    +0.417 C 
ATOM     10  F   LIG    1        5.709  -8.034   1.086  0.00  0.00    -0.166 F 
ATOM     11  F   LIG    1        5.708  -8.020  -1.199  0.00  0.00    -0.166 F 
ATOM     12  F   LIG    1        5.144  -9.923  -0.068  0.00  0.00    -0.166 F 
ENDBRANCH   7   9
ENDBRANCH   1   3
BRANCH   1  13
ATOM     13  S   LIG    1        0.063  -4.530  -0.023  0.00  0.00    +0.072 S 
ATOM     14  O   LIG    1       -0.490  -4.937  -1.267  0.00  0.00    -0.150 OA
ATOM     15  O   LIG    1       -0.476  -4.950   1.223  0.00  0.00    -0.150 OA
BRANCH  13  20
ATOM     16  C   LIG    1       -0.018   1.503   0.010  0.00  0.00    +0.044 C 
ATOM     17  C   LIG    1        0.002  -0.004   0.002  0.00  0.00    -0.050 A 
ATOM     18  C   LIG    1        0.006  -0.689  -1.199  0.00  0.00    +0.005 A 
ATOM     19  C   LIG    1        0.025  -2.071  -1.206  0.00  0.00    +0.029 A 
ATOM     20  C   LIG    1        0.040  -2.768  -0.013  0.00  0.00    +0.109 A 
ATOM     21  C   LIG    1        0.037  -2.084   1.188  0.00  0.00    +0.029 A 
ATOM     22  C   LIG    1        0.023  -0.702   1.195  0.00  0.00    +0.005 A 
ENDBRANCH  13  20
ENDBRANCH   1  13
TORSDOF 4
