REMARK  Name = ZINC00404299
REMARK                            x       y       z     vdW  Elec       q    Type
REMARK                         _______ _______ _______ _____ _____    ______ ____
ROOT
ATOM      1  C   UNK    1       -1.659   2.415  -1.398  0.00  0.00    +0.064 C 
ENDROOT
BRANCH   1   2
ATOM      2  S   UNK    1       -3.165   3.426  -1.361  0.00  0.00    -0.157 S 
BRANCH   2   3
ATOM      3  C   UNK    1       -3.415   3.904  -3.093  0.00  0.00    +0.104 C 
BRANCH   3   7
ATOM      4  C   UNK    1       -6.918   6.327  -3.411  0.00  0.00    +0.000 A 
ATOM      5  C   UNK    1       -5.688   6.916  -3.185  0.00  0.00    +0.000 A 
ATOM      6  C   UNK    1       -4.554   6.132  -3.082  0.00  0.00    +0.004 A 
ATOM      7  C   UNK    1       -4.651   4.759  -3.205  0.00  0.00    -0.038 A 
ATOM      8  C   UNK    1       -5.880   4.170  -3.437  0.00  0.00    +0.004 A 
ATOM      9  C   UNK    1       -7.014   4.954  -3.535  0.00  0.00    +0.000 A 
ENDBRANCH   3   7
ENDBRANCH   2   3
ENDBRANCH   1   2
BRANCH   1  10
ATOM     10  C   UNK    1       -1.329   1.940   0.019  0.00  0.00    +0.046 C 
BRANCH  10  11
ATOM     11  N   UNK    1       -2.410   1.056   0.491  0.00  0.00    +0.387 N 
ATOM     12  H   UNK    1       -3.301   1.565   0.459  0.00  0.00    -0.089 HD
ATOM     13  H   UNK    1       -2.229   0.764   1.450  0.00  0.00    -0.089 HD
ATOM     14  H   UNK    1       -2.475   0.234  -0.107  0.00  0.00    -0.089 HD
ENDBRANCH  10  11
BRANCH  10  15
ATOM     15  C   UNK    1       -0.014   1.204   0.009  0.00  0.00    +0.291 C 
ATOM     16  O   UNK    1        0.002  -0.004   0.002  0.00  0.00    -0.253 OA
BRANCH  15  17
ATOM     17  O   UNK    1        1.139   1.891   0.001  0.00  0.00    -0.482 OA
ATOM     18  H   UNK    1        1.126   2.828   0.006  0.00  0.00    +0.295 HD
ENDBRANCH  15  17
ENDBRANCH  10  15
ENDBRANCH   1  10
TORSDOF 7
