REMARK  Name = ZINC00603726
REMARK                            x       y       z     vdW  Elec       q    Type
REMARK                         _______ _______ _______ _____ _____    ______ ____
ROOT
ATOM      1  C   LIG    1        0.089   1.923  -0.142  0.00  0.00    +0.149 C 
ATOM      2  N   LIG    1       -0.637   2.063   1.123  0.00  0.00    -0.339 N 
ATOM      3  C   LIG    1       -2.006   2.189   1.236  0.00  0.00    +0.051 A 
ATOM      4  C   LIG    1       -3.031   2.208   0.295  0.00  0.00    +0.046 A 
ATOM      5  C   LIG    1       -4.340   2.343   0.707  0.00  0.00    +0.043 A 
ATOM      6 CL   LIG    1       -5.614   2.374  -0.471  0.00  0.00    -0.083 Cl
ATOM      7  C   LIG    1       -4.647   2.454   2.057  0.00  0.00    +0.021 A 
ATOM      8  C   LIG    1       -3.656   2.433   2.997  0.00  0.00    +0.012 A 
ATOM      9  C   LIG    1       -2.325   2.297   2.601  0.00  0.00    +0.010 A 
ATOM     10  C   LIG    1       -1.050   2.238   3.330  0.00  0.00    +0.036 A 
ATOM     11  C   LIG    1       -0.703   2.296   4.696  0.00  0.00    +0.081 A 
ATOM     12  N   LIG    1        0.546   2.216   5.060  0.00  0.00    -0.167 NA
ATOM     13  N   LIG    1        1.570   2.071   4.119  0.00  0.00    -0.195 N 
ATOM     14  C   LIG    1        1.294   2.009   2.801  0.00  0.00    +0.296 A 
ATOM     15  O   LIG    1        2.196   1.882   1.988  0.00  0.00    -0.264 OA
ATOM     16  C   LIG    1       -0.050   2.094   2.369  0.00  0.00    +0.119 A 
ENDROOT
BRANCH  13  17
ATOM     17  C   LIG    1        2.898   1.987   4.551  0.00  0.00    +0.069 A 
ATOM     18  C   LIG    1        3.394   2.915   5.458  0.00  0.00    +0.028 A 
ATOM     19  C   LIG    1        4.704   2.826   5.887  0.00  0.00    +0.002 A 
ATOM     20  C   LIG    1        5.524   1.823   5.405  0.00  0.00    +0.000 A 
ATOM     21  C   LIG    1        5.035   0.901   4.497  0.00  0.00    +0.002 A 
ATOM     22  C   LIG    1        3.725   0.981   4.069  0.00  0.00    +0.028 A 
ENDBRANCH  13  17
BRANCH  11  23
ATOM     23  C   LIG    1       -1.780   2.453   5.738  0.00  0.00    +0.153 C 
BRANCH  23  24
ATOM     24  C   LIG    1       -1.153   2.489   7.108  0.00  0.00    +0.221 C 
ATOM     25  N   LIG    1       -1.929   2.623   8.201  0.00  0.00    -0.307 N 
ATOM     26  C   LIG    1       -3.382   2.735   8.059  0.00  0.00    +0.131 C 
ATOM     27  C   LIG    1       -1.319   2.658   9.533  0.00  0.00    +0.131 C 
ATOM     28  O   LIG    1        0.051   2.396   7.226  0.00  0.00    -0.275 OA
ENDBRANCH  23  24
ENDBRANCH  11  23
TORSDOF 3
