REMARK  Name = ZINC00552382
REMARK                            x       y       z     vdW  Elec       q    Type
REMARK                         _______ _______ _______ _____ _____    ______ ____
ROOT
ATOM      1  C   LIG    1        6.317  -4.670   0.013  0.00  0.00    +0.353 C 
ENDROOT
BRANCH   1   2
ATOM      2  N   LIG    1        6.761  -4.676   1.409  0.00  0.00    -0.199 N 
ATOM      3  C   LIG    1        7.089  -3.574   2.109  0.00  0.00    +0.256 C 
ATOM      4  C   LIG    1        7.483  -3.983   3.473  0.00  0.00    +0.049 A 
ATOM      5  C   LIG    1        7.908  -3.302   4.603  0.00  0.00    +0.014 A 
ATOM      6  C   LIG    1        8.207  -4.006   5.758  0.00  0.00    +0.001 A 
ATOM      7  C   LIG    1        8.085  -5.383   5.791  0.00  0.00    +0.001 A 
ATOM      8  C   LIG    1        7.662  -6.078   4.669  0.00  0.00    +0.014 A 
ATOM      9  C   LIG    1        7.359  -5.386   3.507  0.00  0.00    +0.049 A 
ATOM     10  O   LIG    1        7.065  -2.435   1.689  0.00  0.00    -0.269 OA
ATOM     11  C   LIG    1        6.889  -5.783   2.163  0.00  0.00    +0.256 C 
ATOM     12  O   LIG    1        6.658  -6.918   1.799  0.00  0.00    -0.269 OA
ENDBRANCH   1   2
BRANCH   1  13
ATOM     13  O   LIG    1        4.979  -4.171  -0.059  0.00  0.00    -0.442 OA
BRANCH  13  14
ATOM     14  C   LIG    1        3.992  -5.010   0.319  0.00  0.00    +0.333 C 
ATOM     15  O   LIG    1        4.251  -6.163   0.607  0.00  0.00    -0.246 OA
BRANCH  14  17
ATOM     16  C   LIG    1        1.624  -5.372   0.758  0.00  0.00    +0.015 C 
ATOM     17  C   LIG    1        2.611  -4.533   0.381  0.00  0.00    +0.092 C 
BRANCH  16  21
ATOM     18  C   LIG    1       -2.381  -3.987   0.941  0.00  0.00    +0.000 A 
ATOM     19  C   LIG    1       -2.091  -5.300   1.269  0.00  0.00    +0.001 A 
ATOM     20  C   LIG    1       -0.791  -5.758   1.212  0.00  0.00    +0.008 A 
ATOM     21  C   LIG    1        0.235  -4.891   0.821  0.00  0.00    -0.025 A 
ATOM     22  C   LIG    1       -0.067  -3.566   0.491  0.00  0.00    +0.008 A 
ATOM     23  C   LIG    1       -1.371  -3.124   0.553  0.00  0.00    +0.001 A 
ENDBRANCH  16  21
ENDBRANCH  14  17
ENDBRANCH  13  14
ENDBRANCH   1  13
TORSDOF 5
