REMARK  Name = ZINC00521614
REMARK                            x       y       z     vdW  Elec       q    Type
REMARK                         _______ _______ _______ _____ _____    ______ ____
ROOT
ATOM      1  C   LIG    1        3.644  -2.026   0.060  0.00  0.00    +0.135 A 
ATOM      2  C   LIG    1        4.873  -2.727   0.158  0.00  0.00    +0.040 A 
ATOM      3  C   LIG    1        6.105  -2.066   0.161  0.00  0.00    +0.013 A 
ATOM      4  C   LIG    1        7.257  -2.791   0.258  0.00  0.00    +0.001 A 
ATOM      5  C   LIG    1        7.222  -4.179   0.353  0.00  0.00    +0.002 A 
ATOM      6  C   LIG    1        6.037  -4.854   0.352  0.00  0.00    +0.028 A 
ATOM      7  C   LIG    1        4.834  -4.140   0.254  0.00  0.00    +0.077 A 
ATOM      8  N   LIG    1        3.644  -4.755   0.249  0.00  0.00    -0.227 NA
ATOM      9  C   LIG    1        2.530  -4.054   0.156  0.00  0.00    +0.162 A 
ATOM     10  N   LIG    1        2.520  -2.726   0.069  0.00  0.00    -0.212 NA
ENDROOT
BRANCH   9  11
ATOM     11  C   LIG    1        1.234  -4.777   0.154  0.00  0.00    +0.022 A 
ATOM     12  C   LIG    1        0.025  -4.082   0.052  0.00  0.00    +0.031 A 
ATOM     13  C   LIG    1       -1.158  -4.794   0.054  0.00  0.00    +0.111 A 
ATOM     14  N   LIG    1       -1.157  -6.109   0.151  0.00  0.00    -0.263 NA
ATOM     15  C   LIG    1       -0.039  -6.802   0.249  0.00  0.00    +0.111 A 
ATOM     16  C   LIG    1        1.189  -6.170   0.249  0.00  0.00    +0.031 A 
ENDBRANCH   9  11
BRANCH   1  17
ATOM     17  N   LIG    1        3.620  -0.650  -0.036  0.00  0.00    -0.299 N 
ATOM     18  H   LIG    1        4.451  -0.155  -0.120  0.00  0.00    +0.154 HD
BRANCH  17  22
ATOM     19  C   LIG    1       -0.015   1.381   0.031  0.00  0.00    +0.000 A 
ATOM     20  C   LIG    1        0.138   0.215   0.760  0.00  0.00    +0.002 A 
ATOM     21  C   LIG    1        1.342  -0.461   0.740  0.00  0.00    +0.023 A 
ATOM     22  C   LIG    1        2.400   0.032  -0.014  0.00  0.00    +0.032 A 
ATOM     23  C   LIG    1        2.243   1.202  -0.745  0.00  0.00    +0.023 A 
ATOM     24  C   LIG    1        1.036   1.873  -0.720  0.00  0.00    +0.002 A 
ENDBRANCH  17  22
ENDBRANCH   1  17
TORSDOF 3
