REMARK  Name = ZINC00630924
REMARK                            x       y       z     vdW  Elec       q    Type
REMARK                         _______ _______ _______ _____ _____    ______ ____
ROOT
ATOM      1  C   LIG    1        2.714  -4.029   1.192  0.00  0.00    +0.037 A 
ATOM      2  C   LIG    1        2.275  -3.580   2.438  0.00  0.00    +0.013 A 
ATOM      3  C   LIG    1        2.869  -4.057   3.588  0.00  0.00    +0.006 A 
ATOM      4  C   LIG    1        3.899  -4.977   3.508  0.00  0.00    -0.032 A 
ATOM      5  C   LIG    1        4.340  -5.425   2.276  0.00  0.00    +0.006 A 
ATOM      6  C   LIG    1        3.750  -4.962   1.118  0.00  0.00    +0.013 A 
ENDROOT
BRANCH   1  13
ATOM      7  C   LIG    1        3.228   1.583  -1.423  0.00  0.00    -0.096 C 
ATOM      8  N   LIG    1        2.438   0.456  -0.910  0.00  0.00    +0.380 N 
ATOM      9  H   LIG    1        1.530   0.788  -0.619  0.00  0.00    -0.082 HD
ATOM     10  C   LIG    1        2.271  -0.546  -1.971  0.00  0.00    -0.060 C 
ATOM     11  C   LIG    1        1.352  -1.667  -1.474  0.00  0.00    +0.089 C 
ATOM     12  N   LIG    1        1.903  -2.199  -0.217  0.00  0.00    -0.301 N 
ATOM     13  C   LIG    1        2.081  -3.523  -0.045  0.00  0.00    +0.246 C 
ATOM     14  O   LIG    1        1.721  -4.302  -0.906  0.00  0.00    -0.270 OA
ATOM     15  C   LIG    1        2.254  -1.243   0.845  0.00  0.00    +0.089 C 
ATOM     16  C   LIG    1        3.130  -0.142   0.238  0.00  0.00    -0.060 C 
ENDBRANCH   1  13
BRANCH   4  17
ATOM     17  C   LIG    1        4.545  -5.492   4.769  0.00  0.00    +0.141 C 
BRANCH  17  18
ATOM     18  N   LIG    1        3.836  -6.691   5.225  0.00  0.00    -0.186 NA
ATOM     19  H   LIG    1        2.961  -6.904   4.864  0.00  0.00    +0.148 HD
BRANCH  18  20
ATOM     20  S   LIG    1        4.529  -7.682   6.356  0.00  0.00    +0.059 S 
ATOM     21  O   LIG    1        5.857  -7.934   5.917  0.00  0.00    -0.153 OA
ATOM     22  O   LIG    1        3.598  -8.726   6.606  0.00  0.00    -0.153 OA
BRANCH  20  23
ATOM     23  C   LIG    1        4.660  -6.756   7.850  0.00  0.00    +0.107 A 
ATOM     24  C   LIG    1        5.795  -6.008   8.102  0.00  0.00    +0.028 A 
ATOM     25  C   LIG    1        5.898  -5.281   9.273  0.00  0.00    +0.003 A 
ATOM     26  C   LIG    1        4.867  -5.303  10.194  0.00  0.00    +0.020 A 
ATOM     27  C   LIG    1        3.731  -6.052   9.942  0.00  0.00    +0.043 A 
ATOM     28 CL   LIG    1        2.436  -6.080  11.098  0.00  0.00    -0.083 Cl
ATOM     29  C   LIG    1        3.626  -6.774   8.767  0.00  0.00    +0.048 A 
ENDBRANCH  20  23
ENDBRANCH  18  20
ENDBRANCH  17  18
ENDBRANCH   4  17
TORSDOF 5
