REMARK  Name = ZINC00385645
REMARK                            x       y       z     vdW  Elec       q    Type
REMARK                         _______ _______ _______ _____ _____    ______ ____
ROOT
ATOM      1  C   LIG    1       -0.014   1.211   0.009  0.00  0.00    +0.342 C 
ATOM      2  O   LIG    1        0.002  -0.004   0.002  0.00  0.00    -0.245 OA
ENDROOT
BRANCH   1   5
ATOM      3  C   LIG    1       -2.531   3.999   0.035  0.00  0.00    +0.003 A 
ATOM      4  C   LIG    1       -1.325   3.323   0.026  0.00  0.00    +0.017 A 
ATOM      5  C   LIG    1       -1.300   1.930   0.019  0.00  0.00    +0.086 A 
ATOM      6  C   LIG    1       -2.516   1.214   0.015  0.00  0.00    +0.103 A 
ATOM      7  C   LIG    1       -3.730   1.920   0.029  0.00  0.00    +0.067 A 
ATOM      8  N   LIG    1       -4.726   0.962   0.029  0.00  0.00    -0.344 N 
ATOM      9  C   LIG    1       -4.115  -0.251   0.020  0.00  0.00    +0.197 A 
ATOM     10  H   LIG    1       -5.712   1.131   0.034  0.00  0.00    +0.167 HD
ATOM     11  N   LIG    1       -2.821  -0.099   0.016  0.00  0.00    -0.235 NA
ATOM     12  C   LIG    1       -3.727   3.307   0.036  0.00  0.00    +0.028 A 
ENDBRANCH   1   5
BRANCH   1  13
ATOM     13  O   LIG    1        1.143   1.901   0.001  0.00  0.00    -0.459 OA
BRANCH  13  14
ATOM     14  C   LIG    1        2.372   1.127  -0.015  0.00  0.00    +0.163 C 
ATOM     15  C   LIG    1        2.829   0.859   1.423  0.00  0.00    -0.033 C 
ATOM     16  N   LIG    1        4.169   1.439   1.655  0.00  0.00    +0.382 N 
ATOM     17  H   LIG    1        4.452   1.247   2.623  0.00  0.00    -0.082 HD
ATOM     18  C   LIG    1        4.130   2.902   1.448  0.00  0.00    -0.078 C 
ATOM     19  C   LIG    1        3.695   3.237   0.000  0.00  0.00    -0.012 C 
ATOM     20  C   LIG    1        5.152   0.826   0.736  0.00  0.00    -0.078 C 
ATOM     21  C   LIG    1        4.761   1.091  -0.720  0.00  0.00    -0.012 C 
ATOM     22  C   LIG    1        3.467   1.915  -0.743  0.00  0.00    +0.024 C 
ENDBRANCH  13  14
ENDBRANCH   1  13
TORSDOF 3
