REMARK  Name = ZINC00443774
REMARK                            x       y       z     vdW  Elec       q    Type
REMARK                         _______ _______ _______ _____ _____    ______ ____
ROOT
ATOM      1  C   LIG    1        4.026  -5.462  -0.112  0.00  0.00    +0.101 C 
ATOM      2  C   LIG    1        4.582  -5.802  -1.467  0.00  0.00    +0.098 C 
ATOM      3  C   LIG    1        4.224  -5.080  -2.556  0.00  0.00    +0.198 C 
ATOM      4  O   LIG    1        3.368  -4.050  -2.461  0.00  0.00    -0.445 OA
ATOM      5  C   LIG    1        3.185  -3.438  -1.276  0.00  0.00    +0.115 C 
ATOM      6  C   LIG    1        2.643  -2.028  -1.282  0.00  0.00    +0.086 C 
ATOM      7  C   LIG    1        1.803  -1.795  -0.025  0.00  0.00    +0.070 C 
ATOM      8  C   LIG    1        2.689  -2.035   1.202  0.00  0.00    +0.091 C 
ATOM      9  C   LIG    1        3.263  -3.424   1.123  0.00  0.00    +0.164 C 
ATOM     10  O   LIG    1        3.550  -4.009   2.148  0.00  0.00    -0.292 OA
ATOM     11  C   LIG    1        3.472  -4.058  -0.116  0.00  0.00    +0.046 C 
ENDROOT
BRANCH   1  15
ATOM     12  C   LIG    1        0.908  -8.212   0.871  0.00  0.00    +0.000 A 
ATOM     13  C   LIG    1        2.026  -8.117   1.678  0.00  0.00    +0.000 A 
ATOM     14  C   LIG    1        3.035  -7.228   1.360  0.00  0.00    +0.004 A 
ATOM     15  C   LIG    1        2.926  -6.432   0.235  0.00  0.00    -0.035 A 
ATOM     16  C   LIG    1        1.805  -6.523  -0.570  0.00  0.00    +0.004 A 
ATOM     17  C   LIG    1        0.798  -7.416  -0.254  0.00  0.00    +0.000 A 
ENDBRANCH   1  15
BRANCH   7  18
ATOM     18  C   LIG    1        1.295  -0.376  -0.012  0.00  0.00    +0.109 A 
ATOM     19  C   LIG    1        0.002  -0.004   0.002  0.00  0.00    +0.045 A 
ATOM     20  C   LIG    1       -0.017   1.410   0.010  0.00  0.00    +0.041 A 
ATOM     21  C   LIG    1        1.265   1.817  -0.000  0.00  0.00    +0.195 A 
ATOM     22  O   LIG    1        2.055   0.731  -0.014  0.00  0.00    -0.468 OA
ENDBRANCH   7  18
BRANCH   3  23
ATOM     23  N   LIG    1        4.748  -5.407  -3.782  0.00  0.00    -0.328 N 
ATOM     24  H   LIG    1        5.367  -6.149  -3.862  0.00  0.00    +0.145 HD
ATOM     25  H   LIG    1        4.499  -4.896  -4.568  0.00  0.00    +0.145 HD
ENDBRANCH   3  23
BRANCH   2  26
ATOM     26  C   LIG    1        5.495  -6.896  -1.607  0.00  0.00    +0.101 C 
ATOM     27  N   LIG    1        6.220  -7.764  -1.719  0.00  0.00    -0.191 NA
ENDBRANCH   2  26
TORSDOF 4
