REMARK  Name = ZINC00689897
REMARK                            x       y       z     vdW  Elec       q    Type
REMARK                         _______ _______ _______ _____ _____    ______ ____
ROOT
ATOM      1  C   LIG    1       -1.671   0.422   1.998  0.00  0.00    +0.225 A 
ATOM      2  N   LIG    1       -2.704   0.779   1.241  0.00  0.00    -0.181 NA
ATOM      3  C   LIG    1       -3.645  -0.110   0.939  0.00  0.00    +0.225 A 
ATOM      4  N   LIG    1       -3.553  -1.356   1.395  0.00  0.00    -0.181 NA
ATOM      5  C   LIG    1       -2.521  -1.712   2.152  0.00  0.00    +0.225 A 
ATOM      6  N   LIG    1       -1.577  -0.824   2.450  0.00  0.00    -0.181 NA
ENDROOT
BRANCH   1   7
ATOM      7  N   LIG    1       -0.693   1.347   2.312  0.00  0.00    -0.283 N 
ATOM      8  H   LIG    1        0.097   1.069   2.803  0.00  0.00    +0.155 HD
BRANCH   7  12
ATOM      9  C   LIG    1       -1.136   5.322   1.152  0.00  0.00    +0.000 A 
ATOM     10  C   LIG    1       -0.558   5.020   2.372  0.00  0.00    +0.002 A 
ATOM     11  C   LIG    1       -0.410   3.703   2.759  0.00  0.00    +0.023 A 
ATOM     12  C   LIG    1       -0.842   2.681   1.923  0.00  0.00    +0.034 A 
ATOM     13  C   LIG    1       -1.416   2.989   0.696  0.00  0.00    +0.023 A 
ATOM     14  C   LIG    1       -1.566   4.308   0.317  0.00  0.00    +0.002 A 
ENDBRANCH   7  12
ENDBRANCH   1   7
BRANCH   3  15
ATOM     15  N   LIG    1       -4.718   0.260   0.152  0.00  0.00    -0.283 N 
ATOM     16  H   LIG    1       -4.735   1.136  -0.264  0.00  0.00    +0.155 HD
BRANCH  15  17
ATOM     17  C   LIG    1       -5.780  -0.628  -0.046  0.00  0.00    +0.034 A 
ATOM     18  C   LIG    1       -5.540  -1.995  -0.113  0.00  0.00    +0.023 A 
ATOM     19  C   LIG    1       -6.592  -2.870  -0.303  0.00  0.00    +0.002 A 
ATOM     20  C   LIG    1       -7.880  -2.386  -0.437  0.00  0.00    +0.000 A 
ATOM     21  C   LIG    1       -8.121  -1.026  -0.376  0.00  0.00    +0.002 A 
ATOM     22  C   LIG    1       -7.075  -0.146  -0.181  0.00  0.00    +0.023 A 
ENDBRANCH  15  17
ENDBRANCH   3  15
BRANCH   5  23
ATOM     23  N   LIG    1       -2.425  -3.007   2.626  0.00  0.00    -0.283 N 
ATOM     24  H   LIG    1       -3.154  -3.631   2.481  0.00  0.00    +0.155 HD
BRANCH  23  25
ATOM     25  C   LIG    1       -1.278  -3.417   3.313  0.00  0.00    +0.034 A 
ATOM     26  C   LIG    1       -0.035  -2.905   2.960  0.00  0.00    +0.023 A 
ATOM     27  C   LIG    1        1.101  -3.303   3.639  0.00  0.00    +0.003 A 
ATOM     28  C   LIG    1        1.010  -4.221   4.666  0.00  0.00    +0.015 A 
ATOM     29  C   LIG    1       -0.233  -4.746   5.025  0.00  0.00    +0.061 A 
ATOM     30  C   LIG    1       -1.380  -4.340   4.343  0.00  0.00    +0.038 A 
BRANCH  29  31
ATOM     31  C   LIG    1       -0.333  -5.729   6.123  0.00  0.00    +0.337 C 
ATOM     32  O   LIG    1       -1.415  -6.185   6.434  0.00  0.00    -0.245 OA
BRANCH  31  33
ATOM     33  O   LIG    1        0.776  -6.120   6.780  0.00  0.00    -0.477 OA
ATOM     34  H   LIG    1        1.611  -5.769   6.541  0.00  0.00    +0.295 HD
ENDBRANCH  31  33
ENDBRANCH  29  31
ENDBRANCH  23  25
ENDBRANCH   5  23
TORSDOF 8
