REMARK  Name = ZINC00537944
REMARK                            x       y       z     vdW  Elec       q    Type
REMARK                         _______ _______ _______ _____ _____    ______ ____
ROOT
ATOM      1  C   LIG    1        8.134   7.973  -1.131  0.00  0.00    +0.071 C 
ATOM      2  C   LIG    1        7.282   8.456   0.046  0.00  0.00    +0.004 C 
ATOM      3  C   LIG    1        5.906   7.789  -0.019  0.00  0.00    -0.077 C 
ATOM      4  N   LIG    1        6.079   6.323   0.060  0.00  0.00    +0.382 N 
ATOM      5  H   LIG    1        6.602   6.095   0.914  0.00  0.00    -0.082 HD
ATOM      6  C   LIG    1        6.840   5.838  -1.112  0.00  0.00    -0.077 C 
ATOM      7  C   LIG    1        8.244   6.447  -1.079  0.00  0.00    +0.004 C 
ENDROOT
BRANCH   1   9
ATOM      8  C   LIG    1       10.310   8.307   0.131  0.00  0.00    +0.131 C 
ATOM      9  N   LIG    1        9.471   8.565  -1.042  0.00  0.00    -0.310 N 
BRANCH   9  10
ATOM     10  C   LIG    1        9.941   9.366  -2.063  0.00  0.00    +0.162 A 
ATOM     11  N   LIG    1        9.346   9.704  -3.184  0.00  0.00    -0.225 NA
ATOM     12  C   LIG    1        9.930  10.507  -4.102  0.00  0.00    +0.080 A 
ATOM     13  C   LIG    1        9.402  10.948  -5.337  0.00  0.00    +0.029 A 
ATOM     14  C   LIG    1       10.135  11.762  -6.161  0.00  0.00    +0.002 A 
ATOM     15  C   LIG    1       11.412  12.182  -5.816  0.00  0.00    +0.001 A 
ATOM     16  C   LIG    1       11.959  11.769  -4.615  0.00  0.00    +0.017 A 
ATOM     17  C   LIG    1       11.232  10.953  -3.784  0.00  0.00    +0.041 A 
ATOM     18  S   LIG    1       11.516  10.199  -2.201  0.00  0.00    -0.052 S 
ENDBRANCH   9  10
ENDBRANCH   1   9
BRANCH   4  19
ATOM     19  C   LIG    1        4.760   5.661   0.114  0.00  0.00    -0.044 C 
BRANCH  19  20
ATOM     20  C   LIG    1        4.091   6.002   1.447  0.00  0.00    +0.135 C 
BRANCH  20  21
ATOM     21  O   LIG    1        4.928   5.571   2.523  0.00  0.00    -0.390 OA
ATOM     22  H   LIG    1        5.105   4.620   2.527  0.00  0.00    +0.210 HD
ENDBRANCH  20  21
BRANCH  20  23
ATOM     23  C   LIG    1        2.739   5.291   1.536  0.00  0.00    +0.258 C 
BRANCH  23  24
ATOM     24  O   LIG    1        2.064   5.700   2.728  0.00  0.00    -0.489 OA
BRANCH  24  25
ATOM     25  C   LIG    1        0.840   5.158   2.960  0.00  0.00    +0.124 A 
ATOM     26  C   LIG    1        0.300   4.251   2.060  0.00  0.00    +0.048 A 
ATOM     27  C   LIG    1       -0.945   3.700   2.296  0.00  0.00    +0.045 A 
ATOM     28  C   LIG    1       -1.655   4.052   3.431  0.00  0.00    +0.159 A 
ATOM     29  F   LIG    1       -2.872   3.513   3.661  0.00  0.00    -0.202 F 
ATOM     30  C   LIG    1       -1.117   4.958   4.332  0.00  0.00    +0.162 A 
ATOM     31  F   LIG    1       -1.811   5.302   5.440  0.00  0.00    -0.202 F 
ATOM     32  C   LIG    1        0.129   5.511   4.097  0.00  0.00    +0.087 A 
ENDBRANCH  24  25
ENDBRANCH  23  24
ENDBRANCH  20  23
ENDBRANCH  19  20
ENDBRANCH   4  19
TORSDOF 8
