REMARK  Name = ZINC00530321
REMARK                            x       y       z     vdW  Elec       q    Type
REMARK                         _______ _______ _______ _____ _____    ______ ____
ROOT
ATOM      1  C   LIG    1       -0.404   3.575   0.025  0.00  0.00    +0.141 A 
ATOM      2  N   LIG    1       -1.018   2.359   0.019  0.00  0.00    -0.332 N 
ATOM      3  C   LIG    1       -0.017   1.406   0.010  0.00  0.00    +0.149 A 
ATOM      4  C   LIG    1        1.189   2.100   0.002  0.00  0.00    +0.168 A 
ATOM      5  N   LIG    1        2.373   1.381  -0.014  0.00  0.00    -0.280 N 
ATOM      6  C   LIG    1        3.658   2.086  -0.024  0.00  0.00    +0.155 C 
ATOM      7  C   LIG    1        2.346   0.035  -0.021  0.00  0.00    +0.333 A 
ATOM      8  N   LIG    1        1.188  -0.647  -0.013  0.00  0.00    -0.262 N 
ATOM      9  C   LIG    1        1.214  -2.112  -0.021  0.00  0.00    +0.157 C 
ATOM     10  O   LIG    1        3.395  -0.579  -0.034  0.00  0.00    -0.246 OA
ATOM     11  C   LIG    1        0.002  -0.004   0.002  0.00  0.00    +0.282 A 
ATOM     12  O   LIG    1       -1.040  -0.634   0.008  0.00  0.00    -0.265 OA
ATOM     13  H   LIG    1       -2.003   2.189   0.021  0.00  0.00    +0.168 HD
ATOM     14  N   LIG    1        0.904   3.402   0.012  0.00  0.00    -0.210 NA
ENDROOT
BRANCH   1  18
ATOM     15  C   LIG    1       -2.386   7.331   0.064  0.00  0.00    +0.121 A 
ATOM     16  C   LIG    1       -0.998   7.281   0.050  0.00  0.00    +0.046 A 
ATOM     17  C   LIG    1       -0.351   6.064   0.037  0.00  0.00    +0.015 A 
ATOM     18  C   LIG    1       -1.093   4.881   0.039  0.00  0.00    +0.018 A 
ATOM     19  C   LIG    1       -2.489   4.936   0.047  0.00  0.00    +0.015 A 
ATOM     20  C   LIG    1       -3.128   6.156   0.065  0.00  0.00    +0.046 A 
BRANCH  15  21
ATOM     21  O   LIG    1       -3.020   8.532   0.077  0.00  0.00    -0.492 OA
BRANCH  21  23
ATOM     22  C   LIG    1       -4.979   9.946   0.104  0.00  0.00    +0.048 C 
ATOM     23  C   LIG    1       -4.449   8.511   0.091  0.00  0.00    +0.225 C 
ENDBRANCH  21  23
ENDBRANCH  15  21
ENDBRANCH   1  18
TORSDOF 3
