REMARK  Name = ZINC00522351
REMARK                            x       y       z     vdW  Elec       q    Type
REMARK                         _______ _______ _______ _____ _____    ______ ____
ROOT
ATOM      1  C   LIG    1       -0.017   1.414   0.010  0.00  0.00    +0.017 C 
ATOM      2  C   LIG    1        1.176   2.091   0.002  0.00  0.00    +0.007 C 
ATOM      3  C   LIG    1        2.379   1.393  -0.015  0.00  0.00    +0.058 C 
ATOM      4  C   LIG    1        3.646   2.206  -0.053  0.00  0.00    +0.019 C 
ATOM      5  C   LIG    1        4.067   2.667   1.306  0.00  0.00    +0.002 C 
ATOM      6  C   LIG    1        3.361   3.865   1.908  0.00  0.00    +0.000 C 
ATOM      7  C   LIG    1        1.959   3.469   2.407  0.00  0.00    +0.000 C 
ATOM      8  C   LIG    1        0.920   4.087   1.431  0.00  0.00    +0.000 C 
ATOM      9  N   LIG    1        2.396   0.079  -0.012  0.00  0.00    -0.301 NA
ATOM     10  H   LIG    1        3.247  -0.387  -0.015  0.00  0.00    +0.123 HD
ATOM     11  C   LIG    1        1.277  -0.615  -0.005  0.00  0.00    +0.126 C 
ATOM     12  S   LIG    1        0.917  -2.354  -0.005  0.00  0.00    -0.099 S 
ATOM     13  C   LIG    1       -0.863  -2.277  -0.006  0.00  0.00    +0.088 C 
ATOM     14  C   LIG    1       -1.124  -0.925  -0.002  0.00  0.00    +0.025 C 
ATOM     15  C   LIG    1        1.219   3.596   0.017  0.00  0.00    +0.005 C 
ATOM     16  C   LIG    1        0.002  -0.004   0.002  0.00  0.00    +0.062 C 
ENDROOT
BRANCH  13  17
ATOM     17  C   LIG    1       -1.788  -3.351  -0.011  0.00  0.00    +0.249 C 
ATOM     18  N   LIG    1       -1.344  -4.623  -0.015  0.00  0.00    -0.325 N 
ATOM     19  H   LIG    1       -1.978  -5.358  -0.019  0.00  0.00    +0.145 HD
ATOM     20  H   LIG    1       -0.391  -4.804  -0.015  0.00  0.00    +0.145 HD
ATOM     21  O   LIG    1       -2.985  -3.123  -0.012  0.00  0.00    -0.270 OA
ENDBRANCH  13  17
BRANCH  14  22
ATOM     22  N   LIG    1       -2.429  -0.453  -0.001  0.00  0.00    -0.360 N 
ATOM     23  H   LIG    1       -3.171  -1.078  -0.003  0.00  0.00    +0.142 HD
ATOM     24  H   LIG    1       -2.600   0.502   0.003  0.00  0.00    +0.142 HD
ENDBRANCH  14  22
TORSDOF 2
