REMARK  Name = ZINC00603820
REMARK                            x       y       z     vdW  Elec       q    Type
REMARK                         _______ _______ _______ _____ _____    ______ ____
ROOT
ATOM      1  C   LIG    1        0.185   5.571  -0.415  0.00  0.00    +0.048 A 
ATOM      2  C   LIG    1        0.455   4.496  -1.289  0.00  0.00    +0.004 A 
ATOM      3  C   LIG    1       -0.502   4.051  -2.214  0.00  0.00    +0.010 A 
ATOM      4  C   LIG    1       -0.205   3.015  -3.046  0.00  0.00    +0.001 A 
ATOM      5  C   LIG    1        1.034   2.380  -2.986  0.00  0.00    +0.001 A 
ATOM      6  C   LIG    1        1.986   2.785  -2.102  0.00  0.00    +0.008 A 
ATOM      7  C   LIG    1        1.717   3.855  -1.231  0.00  0.00    -0.016 A 
ATOM      8  C   LIG    1        2.677   4.300  -0.306  0.00  0.00    +0.009 A 
ATOM      9  C   LIG    1        2.389   5.339   0.526  0.00  0.00    +0.009 A 
ATOM     10  C   LIG    1        1.152   5.976   0.478  0.00  0.00    +0.023 A 
ENDROOT
BRANCH   1  13
ATOM     11  C   LIG    1       -3.516   6.192  -0.678  0.00  0.00    +0.109 C 
ATOM     12  C   LIG    1       -2.187   5.494  -0.548  0.00  0.00    +0.214 C 
ATOM     13  N   LIG    1       -1.053   6.216  -0.454  0.00  0.00    -0.285 N 
ATOM     14  H   LIG    1       -1.096   7.184  -0.414  0.00  0.00    +0.155 HD
ATOM     15  O   LIG    1       -2.138   4.282  -0.527  0.00  0.00    -0.276 OA
ENDBRANCH   1  13
BRANCH  10  16
ATOM     16  C   LIG    1        0.869   7.123   1.414  0.00  0.00    +0.283 C 
BRANCH  16  17
ATOM     17  C   LIG    1        2.173   7.581   2.070  0.00  0.00    +0.431 C 
ATOM     18  F   LIG    1        2.653   6.569   2.909  0.00  0.00    -0.167 F 
ATOM     19  F   LIG    1        1.937   8.737   2.821  0.00  0.00    -0.167 F 
ATOM     20  F   LIG    1        3.122   7.854   1.079  0.00  0.00    -0.167 F 
ENDBRANCH  16  17
BRANCH  16  21
ATOM     21  C   LIG    1       -0.114   6.668   2.495  0.00  0.00    +0.431 C 
ATOM     22  F   LIG    1       -1.356   6.395   1.912  0.00  0.00    -0.167 F 
ATOM     23  F   LIG    1       -0.258   7.680   3.450  0.00  0.00    -0.167 F 
ATOM     24  F   LIG    1        0.375   5.511   3.112  0.00  0.00    -0.167 F 
ENDBRANCH  16  21
BRANCH  16  25
ATOM     25  O   LIG    1        0.299   8.208   0.679  0.00  0.00    -0.369 OA
ATOM     26  H   LIG    1        0.868   8.548  -0.025  0.00  0.00    +0.211 HD
ENDBRANCH  16  25
ENDBRANCH  10  16
TORSDOF 5
