REMARK  Name = ZINC00367971
REMARK                            x       y       z     vdW  Elec       q    Type
REMARK                         _______ _______ _______ _____ _____    ______ ____
ROOT
ATOM      1  C   LIG    1        4.972  -4.036   0.075  0.00  0.00    +0.035 A 
ATOM      2  C   LIG    1        3.781  -4.749   0.173  0.00  0.00    +0.024 A 
ATOM      3  C   LIG    1        3.800  -6.126   0.171  0.00  0.00    +0.015 A 
ATOM      4  C   LIG    1        5.016  -6.807   0.069  0.00  0.00    +0.037 A 
ATOM      5  C   LIG    1        6.210  -6.087  -0.029  0.00  0.00    +0.015 A 
ATOM      6  C   LIG    1        6.184  -4.711  -0.032  0.00  0.00    +0.024 A 
ENDROOT
BRANCH   4   7
ATOM      7  C   LIG    1        5.040  -8.282   0.067  0.00  0.00    +0.247 C 
ATOM      8  N   LIG    1        6.013  -8.942   0.725  0.00  0.00    -0.293 N 
ATOM      9  C   LIG    1        6.988  -8.220   1.557  0.00  0.00    +0.136 C 
ATOM     10  C   LIG    1        7.043  -8.893   2.933  0.00  0.00    +0.179 C 
ATOM     11  O   LIG    1        7.268 -10.294   2.763  0.00  0.00    -0.377 OA
ATOM     12  C   LIG    1        6.228 -10.973   2.055  0.00  0.00    +0.179 C 
ATOM     13  C   LIG    1        6.128 -10.406   0.638  0.00  0.00    +0.136 C 
ATOM     14  O   LIG    1        4.181  -8.903  -0.530  0.00  0.00    -0.270 OA
ENDBRANCH   4   7
BRANCH   1  18
ATOM     15  N   LIG    1        3.933  -0.642   0.724  0.00  0.00    -0.269 N 
ATOM     16  H   LIG    1        4.478  -0.157   0.086  0.00  0.00    +0.156 HD
ATOM     17  C   LIG    1        4.025  -1.984   0.806  0.00  0.00    +0.308 C 
ATOM     18  N   LIG    1        4.949  -2.642   0.078  0.00  0.00    -0.269 N 
ATOM     19  H   LIG    1        5.599  -2.145  -0.444  0.00  0.00    +0.156 HD
ATOM     20  O   LIG    1        3.274  -2.602   1.536  0.00  0.00    -0.252 OA
BRANCH  15  24
ATOM     21  C   LIG    1        1.309   1.422   3.217  0.00  0.00    +0.000 A 
ATOM     22  C   LIG    1        1.931   0.272   3.670  0.00  0.00    +0.002 A 
ATOM     23  C   LIG    1        2.801  -0.414   2.846  0.00  0.00    +0.023 A 
ATOM     24  C   LIG    1        3.052   0.051   1.562  0.00  0.00    +0.035 A 
ATOM     25  C   LIG    1        2.426   1.206   1.110  0.00  0.00    +0.023 A 
ATOM     26  C   LIG    1        1.557   1.888   1.939  0.00  0.00    +0.002 A 
ENDBRANCH  15  24
ENDBRANCH   1  18
TORSDOF 3
