REMARK  Name = ZINC00626396
REMARK                            x       y       z     vdW  Elec       q    Type
REMARK                         _______ _______ _______ _____ _____    ______ ____
ROOT
ATOM      1  C   LIG    1        4.128  -4.883  -1.395  0.00  0.00    +0.124 C 
ATOM      2  C   LIG    1        5.113  -6.027  -1.456  0.00  0.00    +0.155 C 
ATOM      3  C   LIG    1        6.345  -5.476  -1.583  0.00  0.00    +0.230 C 
ATOM      4  O   LIG    1        7.506  -6.162  -1.672  0.00  0.00    -0.286 OA
ATOM      5  C   LIG    1        6.215  -4.002  -1.614  0.00  0.00    +0.283 C 
ATOM      6  O   LIG    1        7.141  -3.223  -1.726  0.00  0.00    -0.267 OA
ATOM      7  N   LIG    1        4.921  -3.653  -1.500  0.00  0.00    -0.287 N 
ENDROOT
BRANCH   1  11
ATOM      8  C   LIG    1        1.378  -5.138  -4.654  0.00  0.00    -0.048 A 
ATOM      9  C   LIG    1        0.984  -5.520  -3.385  0.00  0.00    +0.004 A 
ATOM     10  C   LIG    1        1.874  -5.438  -2.331  0.00  0.00    +0.006 A 
ATOM     11  C   LIG    1        3.158  -4.973  -2.545  0.00  0.00    -0.026 A 
ATOM     12  C   LIG    1        3.551  -4.586  -3.812  0.00  0.00    +0.006 A 
ATOM     13  C   LIG    1        2.663  -4.674  -4.868  0.00  0.00    +0.004 A 
BRANCH   8  15
ATOM     14  C   LIG    1       -0.362  -3.911  -5.925  0.00  0.00    +0.009 C 
ATOM     15  C   LIG    1        0.408  -5.227  -5.804  0.00  0.00    +0.032 C 
ENDBRANCH   8  15
ENDBRANCH   1  11
BRANCH   2  16
ATOM     16  C   LIG    1        4.808  -7.408  -1.392  0.00  0.00    +0.143 C 
ATOM     17  O   LIG    1        5.700  -8.229  -1.453  0.00  0.00    -0.297 OA
ATOM     18  C   LIG    1        3.377  -7.858  -1.250  0.00  0.00    +0.087 C 
ENDBRANCH   2  16
BRANCH   7  19
ATOM     19  C   LIG    1        4.396  -2.285  -1.488  0.00  0.00    +0.113 C 
BRANCH  19  20
ATOM     20  C   LIG    1        4.344  -1.772  -0.048  0.00  0.00    +0.056 C 
BRANCH  20  21
ATOM     21  C   LIG    1        3.803  -0.365  -0.035  0.00  0.00    -0.021 A 
ATOM     22  C   LIG    1        4.524   0.768  -0.037  0.00  0.00    +0.087 A 
ATOM     23  N   LIG    1        3.689   1.852  -0.023  0.00  0.00    -0.360 N 
ATOM     24  C   LIG    1        2.378   1.433  -0.013  0.00  0.00    +0.047 A 
ATOM     25  C   LIG    1        1.159   2.103   0.002  0.00  0.00    +0.026 A 
ATOM     26  C   LIG    1       -0.017   1.384   0.010  0.00  0.00    +0.002 A 
ATOM     27  C   LIG    1        0.002  -0.004   0.002  0.00  0.00    +0.001 A 
ATOM     28  C   LIG    1        1.188  -0.682  -0.013  0.00  0.00    +0.010 A 
ATOM     29  H   LIG    1        3.979   2.778  -0.021  0.00  0.00    +0.165 HD
ATOM     30  C   LIG    1        2.391   0.026  -0.020  0.00  0.00    +0.003 A 
ENDBRANCH  20  21
ENDBRANCH  19  20
ENDBRANCH   7  19
TORSDOF 6
