REMARK  Name = ZINC00602486
REMARK                            x       y       z     vdW  Elec       q    Type
REMARK                         _______ _______ _______ _____ _____    ______ ____
ROOT
ATOM      1  N   LIG    1       -3.108  -0.909  -1.766  0.00  0.00    -0.268 N 
ATOM      2  C   LIG    1       -3.086  -1.422  -3.050  0.00  0.00    +0.165 A 
ATOM      3  C   LIG    1       -4.173  -2.303  -3.152  0.00  0.00    +0.107 A 
ATOM      4  N   LIG    1       -4.822  -2.284  -1.923  0.00  0.00    -0.292 N 
ATOM      5  C   LIG    1       -6.020  -3.051  -1.571  0.00  0.00    +0.154 C 
ATOM      6  C   LIG    1       -4.384  -2.965  -4.351  0.00  0.00    +0.142 A 
ATOM      7  N   LIG    1       -3.549  -2.748  -5.355  0.00  0.00    -0.233 NA
ATOM      8  C   LIG    1       -2.527  -1.913  -5.226  0.00  0.00    +0.162 A 
ATOM      9  N   LIG    1       -2.291  -1.260  -4.096  0.00  0.00    -0.208 NA
ATOM     10  C   LIG    1       -4.159  -1.437  -1.111  0.00  0.00    +0.332 A 
ATOM     11  O   LIG    1       -4.464  -1.188   0.041  0.00  0.00    -0.246 OA
ENDROOT
BRANCH   8  12
ATOM     12  C   LIG    1       -1.620  -1.702  -6.381  0.00  0.00    +0.019 A 
ATOM     13  C   LIG    1       -0.541  -0.826  -6.273  0.00  0.00    +0.011 A 
ATOM     14  C   LIG    1        0.302  -0.638  -7.349  0.00  0.00    +0.001 A 
ATOM     15  C   LIG    1        0.072  -1.309  -8.536  0.00  0.00    +0.000 A 
ATOM     16  C   LIG    1       -0.999  -2.176  -8.651  0.00  0.00    +0.001 A 
ATOM     17  C   LIG    1       -1.846  -2.376  -7.580  0.00  0.00    +0.011 A 
ENDBRANCH   8  12
BRANCH   1  18
ATOM     18  C   LIG    1       -2.152   0.053  -1.213  0.00  0.00    +0.224 C 
BRANCH  18  20
ATOM     19  N   LIG    1        0.002  -0.004   0.002  0.00  0.00    -0.296 N 
ATOM     20  C   LIG    1       -1.005  -0.689  -0.576  0.00  0.00    +0.236 C 
ATOM     21  O   LIG    1       -0.989  -1.901  -0.582  0.00  0.00    -0.274 OA
BRANCH  19  23
ATOM     22  C   LIG    1       -0.734   1.954   1.269  0.00  0.00    +0.024 C 
ATOM     23  C   LIG    1       -0.018   1.461   0.010  0.00  0.00    +0.105 C 
ENDBRANCH  19  23
BRANCH  19  24
ATOM     24  C   LIG    1        1.117  -0.725   0.622  0.00  0.00    +0.142 C 
BRANCH  24  25
ATOM     25  C   LIG    1        0.800  -0.988   2.072  0.00  0.00    -0.030 A 
ATOM     26  C   LIG    1        1.167  -0.070   3.037  0.00  0.00    +0.005 A 
ATOM     27  C   LIG    1        0.873  -0.309   4.366  0.00  0.00    +0.000 A 
ATOM     28  C   LIG    1        0.220  -1.472   4.731  0.00  0.00    +0.000 A 
ATOM     29  C   LIG    1       -0.142  -2.393   3.766  0.00  0.00    +0.000 A 
ATOM     30  C   LIG    1        0.148  -2.151   2.436  0.00  0.00    +0.005 A 
ENDBRANCH  24  25
ENDBRANCH  19  24
ENDBRANCH  18  20
ENDBRANCH   1  18
TORSDOF 6
