REMARK  Name = ZINC00671047
REMARK                            x       y       z     vdW  Elec       q    Type
REMARK                         _______ _______ _______ _____ _____    ______ ____
ROOT
ATOM      1  C   LIG    1       -0.961  -6.902  -2.562  0.00  0.00    +0.084 A 
ATOM      2  C   LIG    1        0.276  -6.570  -3.095  0.00  0.00    +0.068 A 
ATOM      3  C   LIG    1        0.679  -5.175  -3.038  0.00  0.00    -0.023 A 
ATOM      4  C   LIG    1       -0.214  -4.341  -2.461  0.00  0.00    -0.004 A 
ATOM      5  C   LIG    1       -0.073  -2.864  -2.262  0.00  0.00    +0.046 C 
ATOM      6  C   LIG    1        1.400  -2.486  -2.474  0.00  0.00    -0.000 C 
ATOM      7  C   LIG    1        1.896  -3.138  -3.768  0.00  0.00    +0.009 C 
ATOM      8  C   LIG    1        2.004  -4.652  -3.579  0.00  0.00    +0.037 C 
ATOM      9  S   LIG    1       -1.570  -5.381  -1.999  0.00  0.00    -0.077 S 
ENDROOT
BRANCH   2  10
ATOM     10  C   LIG    1        1.145  -7.588  -3.692  0.00  0.00    +0.244 C 
ATOM     11  N   LIG    1        1.048  -7.870  -5.006  0.00  0.00    -0.325 N 
ATOM     12  H   LIG    1        1.623  -8.544  -5.402  0.00  0.00    +0.145 HD
ATOM     13  H   LIG    1        0.403  -7.400  -5.557  0.00  0.00    +0.145 HD
ATOM     14  O   LIG    1        1.955  -8.179  -3.001  0.00  0.00    -0.270 OA
ENDBRANCH   2  10
BRANCH   1  16
ATOM     15  C   LIG    1       -2.784  -8.280  -1.938  0.00  0.00    +0.221 C 
ATOM     16  N   LIG    1       -1.565  -8.149  -2.498  0.00  0.00    -0.279 N 
ATOM     17  H   LIG    1       -1.109  -8.927  -2.856  0.00  0.00    +0.155 HD
ATOM     18  O   LIG    1       -3.353  -7.307  -1.490  0.00  0.00    -0.275 OA
BRANCH  15  19
ATOM     19  C   LIG    1       -3.439  -9.635  -1.868  0.00  0.00    +0.075 C 
BRANCH  19  21
ATOM     20  C   LIG    1       -2.399 -10.050   0.366  0.00  0.00    +0.004 C 
ATOM     21  C   LIG    1       -2.556 -10.587  -1.058  0.00  0.00    +0.009 C 
ENDBRANCH  19  21
BRANCH  19  22
ATOM     22  C   LIG    1       -4.805  -9.506  -1.191  0.00  0.00    +0.009 C 
ATOM     23  C   LIG    1       -5.526 -10.855  -1.236  0.00  0.00    +0.004 C 
ENDBRANCH  19  22
ENDBRANCH  15  19
ENDBRANCH   1  16
BRANCH   6  24
ATOM     24  C   LIG    1        1.529  -0.965  -2.584  0.00  0.00    -0.032 C 
ATOM     25  C   LIG    1        2.995  -0.593  -2.812  0.00  0.00    +0.011 C 
ATOM     26  C   LIG    1        0.687  -0.466  -3.760  0.00  0.00    +0.011 C 
BRANCH  24  27
ATOM     27  C   LIG    1        1.033  -0.316  -1.290  0.00  0.00    +0.003 C 
ATOM     28  C   LIG    1        1.162   1.204  -1.400  0.00  0.00    +0.004 C 
ENDBRANCH  24  27
ENDBRANCH   6  24
TORSDOF 7
