REMARK  Name = ZINC00490791
REMARK                            x       y       z     vdW  Elec       q    Type
REMARK                         _______ _______ _______ _____ _____    ______ ____
ROOT
ATOM      1  C   LIG    1        1.525  -2.196  -2.654  0.00  0.00    +0.183 C 
ATOM      2  C   LIG    1        3.035  -2.395  -2.373  0.00  0.00    +0.045 C 
ATOM      3  C   LIG    1        3.369  -3.855  -2.785  0.00  0.00    +0.008 C 
ATOM      4  C   LIG    1        2.271  -4.184  -3.802  0.00  0.00    +0.002 C 
ATOM      5  C   LIG    1        1.991  -5.660  -4.015  0.00  0.00    -0.003 C 
ATOM      6  C   LIG    1        3.219  -6.336  -4.632  0.00  0.00    +0.008 C 
ATOM      7  C   LIG    1        2.948  -7.836  -4.773  0.00  0.00    +0.032 C 
ATOM      8  C   LIG    1        1.675  -8.029  -5.576  0.00  0.00    -0.060 C 
ATOM      9  C   LIG    1        1.706  -8.899  -6.586  0.00  0.00    +0.046 C 
ATOM     10  C   LIG    1        0.500  -9.138  -7.386  0.00  0.00    +0.156 C 
ATOM     11  C   LIG    1       -0.823  -8.776  -6.741  0.00  0.00    +0.080 C 
ATOM     12  C   LIG    1       -0.688  -7.359  -6.186  0.00  0.00    +0.019 C 
ATOM     13  O   LIG    1        0.559  -9.602  -8.506  0.00  0.00    -0.293 OA
ATOM     14  C   LIG    1        0.424  -7.245  -5.170  0.00  0.00    -0.007 C 
ATOM     15  C   LIG    1       -0.092  -7.771  -3.829  0.00  0.00    +0.016 C 
ATOM     16  C   LIG    1        0.798  -5.769  -4.986  0.00  0.00    +0.002 C 
ATOM     17  C   LIG    1       -0.425  -5.001  -4.493  0.00  0.00    +0.005 C 
ATOM     18  C   LIG    1       -0.086  -3.537  -4.169  0.00  0.00    +0.011 C 
ATOM     19  C   LIG    1        1.019  -3.554  -3.131  0.00  0.00    +0.008 C 
ATOM     20  C   LIG    1        0.594  -4.400  -1.929  0.00  0.00    +0.015 C 
ENDROOT
BRANCH   1  21
ATOM     21  O   LIG    1        0.846  -1.807  -1.459  0.00  0.00    -0.461 OA
BRANCH  21  22
ATOM     22  C   LIG    1        0.707  -0.490  -1.238  0.00  0.00    +0.307 C 
ATOM     23  O   LIG    1        1.148   0.305  -2.033  0.00  0.00    -0.251 OA
BRANCH  22  25
ATOM     24  C   LIG    1       -0.019   1.526   0.010  0.00  0.00    +0.015 C 
ATOM     25  C   LIG    1        0.002  -0.004   0.002  0.00  0.00    +0.117 C 
ENDBRANCH  22  25
ENDBRANCH  21  22
ENDBRANCH   1  21
TORSDOF 3
