REMARK  Name = ZINC00659270
REMARK                            x       y       z     vdW  Elec       q    Type
REMARK                         _______ _______ _______ _____ _____    ______ ____
ROOT
ATOM      1  C   LIG    1        0.002  -0.004   0.002  0.00  0.00    +0.101 C 
ATOM      2  C   LIG    1       -0.018   1.499   0.010  0.00  0.00    +0.098 C 
ATOM      3  C   LIG    1        1.141   2.200   0.003  0.00  0.00    +0.198 C 
ATOM      4  O   LIG    1        2.332   1.582  -0.006  0.00  0.00    -0.445 OA
ATOM      5  C   LIG    1        2.424   0.309  -0.437  0.00  0.00    +0.115 C 
ATOM      6  C   LIG    1        3.776  -0.188  -0.893  0.00  0.00    +0.083 C 
ATOM      7  C   LIG    1        3.595  -1.246  -1.983  0.00  0.00    +0.035 C 
ATOM      8  C   LIG    1        2.751  -2.391  -1.412  0.00  0.00    +0.088 C 
ATOM      9  C   LIG    1        1.447  -1.831  -0.913  0.00  0.00    +0.164 C 
ATOM     10  O   LIG    1        0.460  -2.539  -0.899  0.00  0.00    -0.292 OA
ATOM     11  C   LIG    1        1.351  -0.501  -0.460  0.00  0.00    +0.046 C 
ENDROOT
BRANCH   7  12
ATOM     12  C   LIG    1        4.942  -1.772  -2.407  0.00  0.00    -0.025 A 
ATOM     13  C   LIG    1        5.766  -2.386  -1.483  0.00  0.00    +0.005 A 
ATOM     14  C   LIG    1        7.002  -2.869  -1.873  0.00  0.00    +0.000 A 
ATOM     15  C   LIG    1        7.413  -2.738  -3.186  0.00  0.00    +0.001 A 
ATOM     16  C   LIG    1        6.590  -2.124  -4.111  0.00  0.00    +0.020 A 
ATOM     17  C   LIG    1        5.351  -1.645  -3.723  0.00  0.00    +0.044 A 
ATOM     18 CL   LIG    1        4.312  -0.881  -4.885  0.00  0.00    -0.083 Cl
ENDBRANCH   7  12
BRANCH   1  22
ATOM     19  C   LIG    1       -0.769  -1.454   3.947  0.00  0.00    +0.120 A 
ATOM     20  C   LIG    1       -1.616  -1.796   2.904  0.00  0.00    +0.046 A 
ATOM     21  C   LIG    1       -1.365  -1.326   1.629  0.00  0.00    +0.008 A 
ATOM     22  C   LIG    1       -0.270  -0.515   1.393  0.00  0.00    -0.034 A 
ATOM     23  C   LIG    1        0.580  -0.178   2.431  0.00  0.00    +0.008 A 
ATOM     24  C   LIG    1        0.329  -0.641   3.708  0.00  0.00    +0.046 A 
BRANCH  19  26
ATOM     25  C   LIG    1       -0.099  -1.524   6.227  0.00  0.00    +0.277 C 
ATOM     26  O   LIG    1       -1.013  -1.916   5.202  0.00  0.00    -0.495 OA
ENDBRANCH  19  26
ENDBRANCH   1  22
BRANCH   3  27
ATOM     27  N   LIG    1        1.097   3.572   0.004  0.00  0.00    -0.328 N 
ATOM     28  H   LIG    1        1.921   4.084  -0.001  0.00  0.00    +0.145 HD
ATOM     29  H   LIG    1        0.242   4.030   0.011  0.00  0.00    +0.145 HD
ENDBRANCH   3  27
BRANCH   2  30
ATOM     30  C   LIG    1       -1.270   2.194   0.020  0.00  0.00    +0.101 C 
ATOM     31  N   LIG    1       -2.264   2.745   0.028  0.00  0.00    -0.191 NA
ENDBRANCH   2  30
TORSDOF 5
