REMARK  Name = ZINC00468456
REMARK                            x       y       z     vdW  Elec       q    Type
REMARK                         _______ _______ _______ _____ _____    ______ ____
ROOT
ATOM      1  C   LIG    1        2.296   5.990  -0.857  0.00  0.00    +0.020 A 
ATOM      2  C   LIG    1        2.398   4.631  -0.588  0.00  0.00    +0.015 A 
ATOM      3  C   LIG    1        1.229   3.934  -0.294  0.00  0.00    +0.052 A 
ATOM      4  C   LIG    1        0.004   4.620  -0.280  0.00  0.00    +0.123 A 
ATOM      5  C   LIG    1       -1.234   3.861   0.035  0.00  0.00    +0.225 C 
ATOM      6  C   LIG    1       -1.198   2.386   0.021  0.00  0.00    +0.112 C 
ATOM      7 CL   LIG    1       -2.683   1.487   0.022  0.00  0.00    -0.078 Cl
ATOM      8  C   LIG    1       -0.021   1.732   0.012  0.00  0.00    +0.110 C 
ATOM      9 CL   LIG    1        0.002  -0.004   0.002  0.00  0.00    -0.078 Cl
ATOM     10  O   LIG    1       -2.265   4.448   0.296  0.00  0.00    -0.284 OA
ATOM     11  N   LIG    1       -0.039   5.915  -0.543  0.00  0.00    -0.251 NA
ATOM     12  C   LIG    1        1.250   2.485   0.004  0.00  0.00    +0.208 C 
ATOM     13  O   LIG    1        2.300   1.920   0.238  0.00  0.00    -0.286 OA
ATOM     14  C   LIG    1        1.053   6.598  -0.824  0.00  0.00    +0.111 A 
ENDROOT
TORSDOF 0
