REMARK  Name = ZINC00406589
REMARK                            x       y       z     vdW  Elec       q    Type
REMARK                         _______ _______ _______ _____ _____    ______ ____
ROOT
ATOM      1  C   LIG    1        0.317  -1.684  -1.728  0.00  0.00    +0.285 C 
ATOM      2  C   LIG    1        1.177  -2.253  -2.642  0.00  0.00    +0.065 C 
ATOM      3  C   LIG    1        1.152  -3.743  -2.933  0.00  0.00    +0.096 C 
ATOM      4  C   LIG    1        2.154  -4.234  -3.962  0.00  0.00    +0.069 C 
ATOM      5  C   LIG    1        2.980  -3.307  -4.531  0.00  0.00    +0.049 C 
ATOM      6  C   LIG    1        3.985  -3.764  -5.556  0.00  0.00    +0.066 C 
ATOM      7  N   LIG    1        2.930  -2.022  -4.215  0.00  0.00    -0.256 NA
ATOM      8  C   LIG    1        2.105  -1.484  -3.346  0.00  0.00    +0.049 C 
ATOM      9  C   LIG    1        2.166   0.002  -3.099  0.00  0.00    +0.066 C 
ENDROOT
BRANCH   3  10
ATOM     10  C   LIG    1        1.410  -4.479  -1.643  0.00  0.00    -0.035 A 
ATOM     11  C   LIG    1        2.589  -4.268  -0.952  0.00  0.00    +0.008 A 
ATOM     12  C   LIG    1        2.828  -4.941   0.230  0.00  0.00    +0.046 A 
ATOM     13  C   LIG    1        1.883  -5.829   0.725  0.00  0.00    +0.120 A 
ATOM     14  C   LIG    1        0.701  -6.038   0.030  0.00  0.00    +0.046 A 
ATOM     15  C   LIG    1        0.464  -5.358  -1.149  0.00  0.00    +0.008 A 
BRANCH  13  16
ATOM     16  O   LIG    1        2.116  -6.492   1.888  0.00  0.00    -0.495 OA
ATOM     17  C   LIG    1        1.100  -7.391   2.337  0.00  0.00    +0.277 C 
ENDBRANCH  13  16
ENDBRANCH   3  10
BRANCH   1  18
ATOM     18  O   LIG    1       -0.658  -2.426  -1.168  0.00  0.00    -0.480 OA
ATOM     19  H   LIG    1       -1.243  -2.039  -0.546  0.00  0.00    +0.295 HD
ENDBRANCH   1  18
BRANCH   4  20
ATOM     20  C   LIG    1        2.229  -5.592  -4.316  0.00  0.00    +0.338 C 
ATOM     21  O   LIG    1        2.954  -5.944  -5.229  0.00  0.00    -0.245 OA
BRANCH  20  22
ATOM     22  O   LIG    1        1.496  -6.507  -3.644  0.00  0.00    -0.465 OA
ATOM     23  C   LIG    1        1.622  -7.869  -4.058  0.00  0.00    +0.280 C 
ENDBRANCH  20  22
ENDBRANCH   4  20
BRANCH   1  24
ATOM     24  O   LIG    1        0.451  -0.385  -1.395  0.00  0.00    -0.464 OA
BRANCH  24  26
ATOM     25  C   LIG    1       -0.168   1.617  -0.191  0.00  0.00    +0.048 C 
ATOM     26  C   LIG    1       -0.475   0.139  -0.441  0.00  0.00    +0.229 C 
ENDBRANCH  24  26
ENDBRANCH   1  24
TORSDOF 7
