REMARK  Name = ZINC00409652
REMARK                            x       y       z     vdW  Elec       q    Type
REMARK                         _______ _______ _______ _____ _____    ______ ____
ROOT
ATOM      1  N   LIG    1        0.925   3.826  -0.556  0.00  0.00    -0.269 N 
ATOM      2  H   LIG    1        0.178   4.174  -0.044  0.00  0.00    +0.156 HD
ATOM      3  C   LIG    1        2.112   4.464  -0.533  0.00  0.00    +0.308 C 
ATOM      4  N   LIG    1        2.290   5.529   0.274  0.00  0.00    -0.269 N 
ATOM      5  H   LIG    1        1.584   5.800   0.881  0.00  0.00    +0.156 HD
ATOM      6  O   LIG    1        3.023   4.079  -1.241  0.00  0.00    -0.252 OA
ENDROOT
BRANCH   1  10
ATOM      7  C   LIG    1        0.464   0.362  -2.824  0.00  0.00    -0.045 A 
ATOM      8  C   LIG    1       -0.196   0.488  -1.616  0.00  0.00    +0.006 A 
ATOM      9  C   LIG    1       -0.045   1.635  -0.861  0.00  0.00    +0.023 A 
ATOM     10  C   LIG    1        0.771   2.663  -1.318  0.00  0.00    +0.035 A 
ATOM     11  C   LIG    1        1.433   2.533  -2.531  0.00  0.00    +0.023 A 
ATOM     12  C   LIG    1        1.277   1.383  -3.281  0.00  0.00    +0.006 A 
BRANCH   7  14
ATOM     13  C   LIG    1       -0.291  -0.532  -5.010  0.00  0.00    +0.012 C 
ATOM     14  C   LIG    1        0.298  -0.891  -3.644  0.00  0.00    +0.013 C 
ATOM     15  C   LIG    1        1.661  -1.560  -3.837  0.00  0.00    +0.012 C 
ENDBRANCH   7  14
ENDBRANCH   1  10
BRANCH   4  16
ATOM     16  C   LIG    1        3.493   6.243   0.235  0.00  0.00    +0.042 A 
ATOM     17  C   LIG    1        4.693   5.599   0.507  0.00  0.00    -0.023 A 
ATOM     18  C   LIG    1        5.879   6.306   0.463  0.00  0.00    +0.006 A 
ATOM     19  C   LIG    1        5.871   7.655   0.160  0.00  0.00    +0.001 A 
ATOM     20  C   LIG    1        4.677   8.300  -0.106  0.00  0.00    +0.006 A 
ATOM     21  C   LIG    1        3.488   7.598  -0.069  0.00  0.00    -0.023 A 
BRANCH  17  22
ATOM     22  C   LIG    1        4.702   4.131   0.845  0.00  0.00    +0.015 C 
ATOM     23  C   LIG    1        5.144   3.944   2.298  0.00  0.00    +0.012 C 
ATOM     24  C   LIG    1        5.675   3.400  -0.082  0.00  0.00    +0.012 C 
ENDBRANCH  17  22
BRANCH  21  25
ATOM     25  C   LIG    1        2.188   8.302  -0.358  0.00  0.00    +0.015 C 
ATOM     26  C   LIG    1        2.227   8.886  -1.772  0.00  0.00    +0.012 C 
ATOM     27  C   LIG    1        1.982   9.430   0.654  0.00  0.00    +0.012 C 
ENDBRANCH  21  25
ENDBRANCH   4  16
TORSDOF 5
