REMARK  Name = ZINC00538312
REMARK                            x       y       z     vdW  Elec       q    Type
REMARK                         _______ _______ _______ _____ _____    ______ ____
ROOT
ATOM      1  N   LIG    1       -4.303   0.829  -1.425  0.00  0.00    +0.380 N 
ATOM      2  H   LIG    1       -4.208   1.714  -0.951  0.00  0.00    -0.082 HD
ATOM      3  C   LIG    1       -5.294   0.004  -0.724  0.00  0.00    -0.078 C 
ATOM      4  C   LIG    1       -6.625   0.756  -0.647  0.00  0.00    -0.009 C 
ATOM      5  C   LIG    1       -7.119   1.056  -2.065  0.00  0.00    +0.038 C 
ATOM      6  C   LIG    1       -6.045   1.852  -2.812  0.00  0.00    -0.009 C 
ATOM      7  C   LIG    1       -4.736   1.060  -2.809  0.00  0.00    -0.078 C 
ENDROOT
BRANCH   5   8
ATOM      8  C   LIG    1       -8.389   1.864  -1.996  0.00  0.00    +0.094 A 
ATOM      9  C   LIG    1       -9.695   1.474  -2.533  0.00  0.00    +0.045 A 
ATOM     10  C   LIG    1      -10.161   0.347  -3.215  0.00  0.00    +0.016 A 
ATOM     11  C   LIG    1      -11.471   0.276  -3.594  0.00  0.00    +0.039 A 
ATOM     12  C   LIG    1      -12.346   1.317  -3.307  0.00  0.00    +0.127 A 
ATOM     13  F   LIG    1      -13.639   1.231  -3.690  0.00  0.00    -0.205 F 
ATOM     14  C   LIG    1      -11.905   2.439  -2.633  0.00  0.00    +0.088 A 
ATOM     15  C   LIG    1      -10.576   2.529  -2.239  0.00  0.00    +0.170 A 
ATOM     16  O   LIG    1       -9.864   3.469  -1.585  0.00  0.00    -0.354 OA
ATOM     17  N   LIG    1       -8.527   3.031  -1.446  0.00  0.00    -0.082 NA
ENDBRANCH   5   8
BRANCH   1  18
ATOM     18  C   LIG    1       -3.007   0.136  -1.429  0.00  0.00    -0.074 C 
BRANCH  18  19
ATOM     19  C   LIG    1       -2.495   0.005   0.007  0.00  0.00    +0.024 C 
BRANCH  19  22
ATOM     20  C   LIG    1       -0.018   1.503   0.010  0.00  0.00    +0.066 C 
ATOM     21  C   LIG    1        0.002  -0.004   0.002  0.00  0.00    +0.048 A 
ATOM     22  C   LIG    1       -1.166  -0.705   0.004  0.00  0.00    +0.036 A 
ATOM     23  C   LIG    1       -1.098  -2.110   0.003  0.00  0.00    +0.257 A 
ATOM     24  N   LIG    1        0.117  -2.718   0.008  0.00  0.00    -0.296 N 
ATOM     25  C   LIG    1        1.232  -1.972  -0.013  0.00  0.00    +0.113 A 
ATOM     26  C   LIG    1        2.615  -2.575  -0.054  0.00  0.00    +0.074 C 
ATOM     27  C   LIG    1        2.576  -4.040   0.375  0.00  0.00    +0.009 C 
ATOM     28  C   LIG    1        1.465  -4.738  -0.421  0.00  0.00    +0.022 C 
ATOM     29  C   LIG    1        0.123  -4.181   0.044  0.00  0.00    +0.126 C 
ATOM     30  O   LIG    1       -2.119  -2.776  -0.004  0.00  0.00    -0.267 OA
ATOM     31  N   LIG    1        1.161  -0.658  -0.013  0.00  0.00    -0.238 NA
ENDBRANCH  19  22
ENDBRANCH  18  19
ENDBRANCH   1  18
TORSDOF 4
