REMARK  Name = ZINC00403009
REMARK                            x       y       z     vdW  Elec       q    Type
REMARK                         _______ _______ _______ _____ _____    ______ ____
ROOT
ATOM      1  C   LIG    1        2.775   3.548   0.015  0.00  0.00    +0.015 C 
ENDROOT
BRANCH   1   2
ATOM      2  N   LIG    1        2.726   4.906   0.584  0.00  0.00    +0.386 N 
ATOM      3  H   LIG    1        3.660   5.328   0.529  0.00  0.00    -0.089 HD
ATOM      4  H   LIG    1        2.436   4.866   1.559  0.00  0.00    -0.089 HD
ATOM      5  H   LIG    1        2.070   5.482   0.058  0.00  0.00    -0.089 HD
ENDBRANCH   1   2
BRANCH   1   6
ATOM      6  C   LIG    1        1.405   2.919   0.036  0.00  0.00    +0.221 C 
ATOM      7  N   LIG    1        1.277   1.580  -0.051  0.00  0.00    -0.199 N 
ATOM      8  H   LIG    1        2.066   1.021  -0.127  0.00  0.00    +0.182 HD
ATOM      9  O   LIG    1        0.418   3.618   0.130  0.00  0.00    -0.276 OA
BRANCH   7  10
ATOM     10  O   LIG    1       -0.010   0.990  -0.031  0.00  0.00    -0.295 OA
ATOM     11  H   LIG    1       -0.001   0.025  -0.098  0.00  0.00    +0.241 HD
ENDBRANCH   7  10
ENDBRANCH   1   6
BRANCH   1  12
ATOM     12  C   LIG    1        3.275   3.631  -1.429  0.00  0.00    -0.004 C 
BRANCH  12  14
ATOM     13  C   LIG    1        5.637   3.152  -0.768  0.00  0.00    +0.007 C 
ATOM     14  C   LIG    1        4.709   4.165  -1.441  0.00  0.00    -0.018 C 
ATOM     15  C   LIG    1        5.158   4.387  -2.887  0.00  0.00    +0.007 C 
ENDBRANCH  12  14
ENDBRANCH   1  12
TORSDOF 5
