REMARK  Name = ZINC00442514
REMARK                            x       y       z     vdW  Elec       q    Type
REMARK                         _______ _______ _______ _____ _____    ______ ____
ROOT
ATOM      1  C   LIG    1       -8.284   3.143   2.446  0.00  0.00    +0.085 A 
ATOM      2  C   LIG    1       -9.498   3.141   1.773  0.00  0.00    +0.068 A 
ATOM      3  C   LIG    1      -10.679   3.547   2.516  0.00  0.00    -0.023 A 
ATOM      4  C   LIG    1      -10.456   3.900   3.801  0.00  0.00    -0.004 A 
ATOM      5  C   LIG    1      -11.472   4.364   4.799  0.00  0.00    +0.043 C 
ATOM      6  C   LIG    1      -12.755   4.742   4.044  0.00  0.00    +0.005 C 
ATOM      7  C   LIG    1      -13.099   3.616   3.063  0.00  0.00    +0.005 C 
ATOM      8  C   LIG    1      -12.081   3.592   1.922  0.00  0.00    +0.037 C 
ATOM      9  S   LIG    1       -8.713   3.691   4.032  0.00  0.00    -0.077 S 
ENDROOT
BRANCH   2  10
ATOM     10  C   LIG    1       -9.587   2.739   0.366  0.00  0.00    +0.244 C 
ATOM     11  N   LIG    1       -9.448   3.660  -0.608  0.00  0.00    -0.325 N 
ATOM     12  H   LIG    1       -9.506   3.394  -1.539  0.00  0.00    +0.145 HD
ATOM     13  H   LIG    1       -9.289   4.589  -0.379  0.00  0.00    +0.145 HD
ATOM     14  O   LIG    1       -9.786   1.573   0.077  0.00  0.00    -0.270 OA
ENDBRANCH   2  10
BRANCH   1  16
ATOM     15  C   LIG    1       -5.956   2.869   2.772  0.00  0.00    +0.242 C 
ATOM     16  N   LIG    1       -7.032   2.798   1.964  0.00  0.00    -0.276 N 
ATOM     17  H   LIG    1       -6.930   2.505   1.045  0.00  0.00    +0.156 HD
ATOM     18  O   LIG    1       -6.084   3.238   3.926  0.00  0.00    -0.270 OA
BRANCH  15  20
ATOM     19  C   LIG    1       -3.594   2.588   3.094  0.00  0.00    +0.051 C 
ATOM     20  C   LIG    1       -4.678   2.517   2.280  0.00  0.00    +0.071 C 
BRANCH  19  25
ATOM     21  C   LIG    1       -0.013   1.086   0.008  0.00  0.00    +0.086 C 
ATOM     22  C   LIG    1       -0.718   1.572   1.248  0.00  0.00    +0.103 A 
ATOM     23  C   LIG    1       -0.127   1.835   2.435  0.00  0.00    +0.045 A 
ATOM     24  C   LIG    1       -1.134   2.261   3.314  0.00  0.00    +0.049 A 
ATOM     25  C   LIG    1       -2.315   2.235   2.601  0.00  0.00    +0.128 A 
ATOM     26  O   LIG    1       -2.031   1.818   1.350  0.00  0.00    -0.461 OA
ENDBRANCH  19  25
ENDBRANCH  15  20
ENDBRANCH   1  16
TORSDOF 4
