REMARK  Name = ZINC00636919
REMARK                            x       y       z     vdW  Elec       q    Type
REMARK                         _______ _______ _______ _____ _____    ______ ____
ROOT
ATOM      1  C   LIG    1        2.228  -5.069  -1.920  0.00  0.00    +0.073 A 
ATOM      2  C   LIG    1        2.233  -6.254  -2.639  0.00  0.00    +0.026 A 
ATOM      3  C   LIG    1        3.324  -6.583  -3.422  0.00  0.00    +0.002 A 
ATOM      4  C   LIG    1        4.412  -5.732  -3.491  0.00  0.00    +0.002 A 
ATOM      5  C   LIG    1        4.415  -4.548  -2.777  0.00  0.00    +0.026 A 
ATOM      6  C   LIG    1        3.323  -4.208  -1.994  0.00  0.00    +0.073 A 
ENDROOT
BRANCH   1   7
ATOM      7  N   LIG    1        1.123  -4.734  -1.127  0.00  0.00    -0.204 N 
ATOM      8  C   LIG    1       -0.029  -4.056  -1.725  0.00  0.00    +0.157 C 
BRANCH   7   9
ATOM      9  S   LIG    1        1.120  -5.104   0.487  0.00  0.00    +0.075 S 
ATOM     10  O   LIG    1        2.473  -5.344   0.851  0.00  0.00    -0.150 OA
ATOM     11  O   LIG    1        0.322  -4.118   1.128  0.00  0.00    -0.150 OA
BRANCH   9  16
ATOM     12  C   LIG    1       -1.790 -10.352   1.112  0.00  0.00    +0.044 C 
ATOM     13  C   LIG    1       -1.063  -9.041   0.956  0.00  0.00    -0.050 A 
ATOM     14  C   LIG    1        0.286  -9.031   0.658  0.00  0.00    +0.005 A 
ATOM     15  C   LIG    1        0.953  -7.828   0.514  0.00  0.00    +0.029 A 
ATOM     16  C   LIG    1        0.270  -6.636   0.669  0.00  0.00    +0.109 A 
ATOM     17  C   LIG    1       -1.080  -6.647   0.966  0.00  0.00    +0.029 A 
ATOM     18  C   LIG    1       -1.748  -7.849   1.105  0.00  0.00    +0.005 A 
ENDBRANCH   9  16
ENDBRANCH   7   9
ENDBRANCH   1   7
BRANCH   6  19
ATOM     19  N   LIG    1        3.321  -3.007  -1.274  0.00  0.00    -0.204 N 
ATOM     20  C   LIG    1        2.443  -1.909  -1.684  0.00  0.00    +0.157 C 
BRANCH  19  21
ATOM     21  S   LIG    1        4.313  -2.828   0.040  0.00  0.00    +0.075 S 
ATOM     22  O   LIG    1        4.571  -4.135   0.535  0.00  0.00    -0.150 OA
ATOM     23  O   LIG    1        3.739  -1.807   0.846  0.00  0.00    -0.150 OA
BRANCH  21  24
ATOM     24  C   LIG    1        5.850  -2.200  -0.549  0.00  0.00    +0.109 A 
ATOM     25  C   LIG    1        6.851  -3.072  -0.934  0.00  0.00    +0.029 A 
ATOM     26  C   LIG    1        8.057  -2.580  -1.396  0.00  0.00    +0.005 A 
ATOM     27  C   LIG    1        8.262  -1.215  -1.473  0.00  0.00    -0.050 A 
ATOM     28  C   LIG    1        9.578  -0.678  -1.976  0.00  0.00    +0.044 C 
ATOM     29  C   LIG    1        7.261  -0.343  -1.089  0.00  0.00    +0.005 A 
ATOM     30  C   LIG    1        6.053  -0.835  -0.631  0.00  0.00    +0.029 A 
ENDBRANCH  21  24
ENDBRANCH  19  21
ENDBRANCH   6  19
TORSDOF 6
