REMARK  Name = ZINC00678346
REMARK                            x       y       z     vdW  Elec       q    Type
REMARK                         _______ _______ _______ _____ _____    ______ ____
ROOT
ATOM      1  C   LIG    1       -0.017   1.377   0.010  0.00  0.00    +0.001 A 
ATOM      2  C   LIG    1        1.166   2.089   0.002  0.00  0.00    +0.013 A 
ATOM      3  C   LIG    1        2.390   1.417  -0.014  0.00  0.00    +0.037 A 
ATOM      4  C   LIG    1        2.416   0.024  -0.021  0.00  0.00    +0.026 A 
ATOM      5  C   LIG    1        1.219  -0.689  -0.013  0.00  0.00    +0.037 A 
ATOM      6  C   LIG    1        0.002  -0.004   0.002  0.00  0.00    +0.013 A 
ENDROOT
BRANCH   3   7
ATOM      7  C   LIG    1        3.656   2.182  -0.022  0.00  0.00    +0.244 C 
ATOM      8  N   LIG    1        3.629   3.529  -0.015  0.00  0.00    -0.307 N 
ATOM      9  H   LIG    1        2.779   3.997  -0.005  0.00  0.00    +0.149 HD
ATOM     10  O   LIG    1        4.720   1.595  -0.036  0.00  0.00    -0.270 OA
BRANCH   8  11
ATOM     11  C   LIG    1        4.882   4.287  -0.024  0.00  0.00    +0.140 C 
BRANCH  11  12
ATOM     12  C   LIG    1        4.577   5.763  -0.014  0.00  0.00    -0.027 A 
ATOM     13  C   LIG    1        4.420   6.443  -1.207  0.00  0.00    +0.009 A 
ATOM     14  C   LIG    1        4.140   7.797  -1.203  0.00  0.00    +0.050 A 
ATOM     15  C   LIG    1        4.016   8.475  -0.001  0.00  0.00    +0.166 A 
ATOM     16  C   LIG    1        4.175   7.790   1.201  0.00  0.00    +0.167 A 
ATOM     17  O   LIG    1        4.007   8.670   2.230  0.00  0.00    -0.453 OA
ATOM     18  C   LIG    1        4.150   9.978   1.645  0.00  0.00    +0.466 C 
ATOM     19  O   LIG    1        3.749   9.785   0.275  0.00  0.00    -0.453 OA
ATOM     20  C   LIG    1        4.450   6.432   1.189  0.00  0.00    +0.054 A 
ENDBRANCH  11  12
ENDBRANCH   8  11
ENDBRANCH   3   7
BRANCH   5  21
ATOM     21  C   LIG    1        1.238  -2.167  -0.022  0.00  0.00    +0.244 C 
ATOM     22  N   LIG    1        0.079  -2.856  -0.014  0.00  0.00    -0.307 N 
ATOM     23  H   LIG    1       -0.767  -2.381  -0.003  0.00  0.00    +0.149 HD
ATOM     24  O   LIG    1        2.298  -2.762  -0.036  0.00  0.00    -0.270 OA
BRANCH  22  25
ATOM     25  C   LIG    1        0.097  -4.321  -0.022  0.00  0.00    +0.140 C 
BRANCH  25  26
ATOM     26  C   LIG    1       -1.318  -4.840  -0.011  0.00  0.00    -0.027 A 
ATOM     27  C   LIG    1       -1.955  -5.080   1.192  0.00  0.00    +0.009 A 
ATOM     28  C   LIG    1       -3.252  -5.556   1.208  0.00  0.00    +0.050 A 
ATOM     29  C   LIG    1       -3.917  -5.796   0.016  0.00  0.00    +0.166 A 
ATOM     30  C   LIG    1       -3.276  -5.554  -1.196  0.00  0.00    +0.167 A 
ATOM     31  O   LIG    1       -4.132  -5.865  -2.212  0.00  0.00    -0.453 OA
ATOM     32  C   LIG    1       -5.156  -6.683  -1.616  0.00  0.00    +0.466 C 
ATOM     33  O   LIG    1       -5.176  -6.257  -0.241  0.00  0.00    -0.453 OA
ATOM     34  C   LIG    1       -1.977  -5.072  -1.204  0.00  0.00    +0.054 A 
ENDBRANCH  25  26
ENDBRANCH  22  25
ENDBRANCH   5  21
TORSDOF 6
