REMARK  Name = ZINC00640266
REMARK                            x       y       z     vdW  Elec       q    Type
REMARK                         _______ _______ _______ _____ _____    ______ ____
ROOT
ATOM      1  C   LIG    1        0.095   7.942  -1.518  0.00  0.00    -0.091 C 
ATOM      2  N   LIG    1       -0.351   6.977  -0.504  0.00  0.00    +0.381 N 
ATOM      3  C   LIG    1        0.546   7.033   0.659  0.00  0.00    -0.091 C 
ATOM      4  C   LIG    1       -1.722   7.302  -0.084  0.00  0.00    -0.070 C 
ATOM      5  C   LIG    1       -2.052   6.494   1.172  0.00  0.00    +0.017 C 
ATOM      6  C   LIG    1       -1.733   5.039   0.941  0.00  0.00    -0.044 A 
ATOM      7  C   LIG    1       -2.266   4.097   1.808  0.00  0.00    +0.053 A 
ATOM      8  C   LIG    1       -1.996   2.752   1.632  0.00  0.00    +0.162 A 
ATOM      9  C   LIG    1       -1.183   2.345   0.578  0.00  0.00    +0.162 A 
ATOM     10  C   LIG    1       -0.649   3.289  -0.281  0.00  0.00    +0.051 A 
ATOM     11  C   LIG    1       -0.929   4.636  -0.105  0.00  0.00    -0.053 A 
ATOM     12  C   LIG    1       -0.334   5.626  -1.072  0.00  0.00    -0.030 C 
ENDROOT
BRANCH   8  13
ATOM     13  O   LIG    1       -2.521   1.832   2.485  0.00  0.00    -0.491 OA
ATOM     14  C   LIG    1       -3.346   2.324   3.543  0.00  0.00    +0.277 C 
ENDBRANCH   8  13
BRANCH   9  15
ATOM     15  O   LIG    1       -0.910   1.025   0.396  0.00  0.00    -0.491 OA
ATOM     16  C   LIG    1       -0.068   0.682  -0.706  0.00  0.00    +0.277 C 
ENDBRANCH   9  15
BRANCH  12  17
ATOM     17  C   LIG    1        1.111   5.226  -1.377  0.00  0.00    +0.025 C 
BRANCH  17  18
ATOM     18  C   LIG    1        1.642   6.079  -2.501  0.00  0.00    -0.045 A 
ATOM     19  C   LIG    1        1.020   6.059  -3.735  0.00  0.00    +0.007 A 
ATOM     20  C   LIG    1        1.500   6.844  -4.767  0.00  0.00    +0.049 A 
ATOM     21  C   LIG    1        2.613   7.644  -4.568  0.00  0.00    +0.161 A 
ATOM     22  C   LIG    1        3.243   7.660  -3.327  0.00  0.00    +0.162 A 
ATOM     23  C   LIG    1        2.753   6.875  -2.296  0.00  0.00    +0.053 A 
BRANCH  21  24
ATOM     24  O   LIG    1        3.090   8.413  -5.584  0.00  0.00    -0.491 OA
ATOM     25  C   LIG    1        2.393   8.347  -6.830  0.00  0.00    +0.277 C 
ENDBRANCH  21  24
BRANCH  22  26
ATOM     26  O   LIG    1        4.336   8.444  -3.127  0.00  0.00    -0.491 OA
ATOM     27  C   LIG    1        4.930   8.409  -1.828  0.00  0.00    +0.277 C 
ENDBRANCH  22  26
ENDBRANCH  17  18
ENDBRANCH  12  17
TORSDOF 6
