REMARK  Name = ZINC00397937
REMARK                            x       y       z     vdW  Elec       q    Type
REMARK                         _______ _______ _______ _____ _____    ______ ____
ROOT
ATOM      1  C   LIG    1        1.863   1.810  -1.316  0.00  0.00    +0.065 A 
ATOM      2  C   LIG    1        3.074   2.511  -1.268  0.00  0.00    +0.019 A 
ATOM      3  C   LIG    1        3.650   2.822  -0.058  0.00  0.00    +0.047 A 
ATOM      4  C   LIG    1        3.038   2.445   1.131  0.00  0.00    +0.131 A 
ATOM      5  C   LIG    1        1.820   1.745   1.105  0.00  0.00    +0.106 A 
ATOM      6  C   LIG    1        1.233   1.421  -0.126  0.00  0.00    +0.142 A 
ENDROOT
BRANCH   1   7
ATOM      7  C   LIG    1        1.253   1.480  -2.615  0.00  0.00    +0.197 C 
ATOM      8  O   LIG    1        1.712   0.579  -3.291  0.00  0.00    -0.287 OA
BRANCH   7  12
ATOM      9  C   LIG    1       -2.108   3.676  -4.000  0.00  0.00    +0.000 A 
ATOM     10  C   LIG    1       -1.658   2.581  -4.717  0.00  0.00    +0.001 A 
ATOM     11  C   LIG    1       -0.567   1.863  -4.272  0.00  0.00    +0.012 A 
ATOM     12  C   LIG    1        0.083   2.244  -3.097  0.00  0.00    +0.022 A 
ATOM     13  C   LIG    1       -0.380   3.347  -2.376  0.00  0.00    +0.012 A 
ATOM     14  C   LIG    1       -1.469   4.059  -2.834  0.00  0.00    +0.001 A 
ENDBRANCH   7  12
ENDBRANCH   1   7
BRANCH   4  15
ATOM     15  O   LIG    1        3.614   2.756   2.317  0.00  0.00    -0.506 OA
ATOM     16  H   LIG    1        3.282   3.574   2.712  0.00  0.00    +0.292 HD
ENDBRANCH   4  15
BRANCH   5  17
ATOM     17  C   LIG    1        1.168   1.349   2.363  0.00  0.00    +0.200 C 
ATOM     18  O   LIG    1        1.490   0.315   2.916  0.00  0.00    -0.286 OA
BRANCH  17  19
ATOM     19  C   LIG    1        0.121   2.209   2.955  0.00  0.00    +0.023 A 
ATOM     20  C   LIG    1       -0.171   3.451   2.387  0.00  0.00    +0.012 A 
ATOM     21  C   LIG    1       -1.153   4.245   2.941  0.00  0.00    +0.001 A 
ATOM     22  C   LIG    1       -1.841   3.819   4.063  0.00  0.00    +0.000 A 
ATOM     23  C   LIG    1       -1.554   2.592   4.634  0.00  0.00    +0.001 A 
ATOM     24  C   LIG    1       -0.578   1.785   4.087  0.00  0.00    +0.012 A 
ENDBRANCH  17  19
ENDBRANCH   5  17
BRANCH   6  25
ATOM     25  O   LIG    1        0.062   0.742  -0.164  0.00  0.00    -0.505 OA
ATOM     26  H   LIG    1        0.165  -0.219  -0.190  0.00  0.00    +0.292 HD
ENDBRANCH   6  25
TORSDOF 6
