REMARK  Name = ZINC00614420
REMARK                            x       y       z     vdW  Elec       q    Type
REMARK                         _______ _______ _______ _____ _____    ______ ____
ROOT
ATOM      1  C   LIG    1       -1.325  -0.721   0.042  0.00  0.00    +0.044 C 
ATOM      2  C   LIG    1       -0.034   0.055   0.030  0.00  0.00    -0.037 A 
ATOM      3  C   LIG    1        1.175  -0.600   0.054  0.00  0.00    +0.027 A 
ATOM      4  C   LIG    1        2.362   0.117   0.044  0.00  0.00    +0.040 A 
ATOM      5  C   LIG    1        3.679  -0.616   0.070  0.00  0.00    +0.065 C 
ATOM      6  N   LIG    1        2.346   1.435   0.011  0.00  0.00    -0.245 NA
ATOM      7  C   LIG    1        1.216   2.107  -0.012  0.00  0.00    +0.111 A 
ATOM      8  S   LIG    1        0.822   3.838  -0.057  0.00  0.00    -0.062 S 
ATOM      9  C   LIG    1       -0.956   3.726  -0.065  0.00  0.00    +0.097 A 
ATOM     10  C   LIG    1       -1.191   2.369  -0.040  0.00  0.00    +0.054 A 
ATOM     11  C   LIG    1       -0.046   1.472  -0.004  0.00  0.00    +0.032 A 
ENDROOT
BRANCH   9  12
ATOM     12  C   LIG    1       -1.903   4.781  -0.097  0.00  0.00    +0.253 C 
ATOM     13  N   LIG    1       -1.484   6.062  -0.125  0.00  0.00    -0.309 N 
ATOM     14  H   LIG    1       -0.535   6.262  -0.124  0.00  0.00    +0.149 HD
ATOM     15  O   LIG    1       -3.094   4.530  -0.099  0.00  0.00    -0.270 OA
BRANCH  13  16
ATOM     16  C   LIG    1       -2.462   7.152  -0.158  0.00  0.00    +0.067 C 
ATOM     17  C   LIG    1       -1.825   8.389  -0.793  0.00  0.00    +0.027 C 
ATOM     18  C   LIG    1       -2.906   7.482   1.268  0.00  0.00    +0.027 C 
ENDBRANCH  13  16
ENDBRANCH   9  12
BRANCH  10  19
ATOM     19  N   LIG    1       -2.486   1.871  -0.042  0.00  0.00    -0.356 N 
ATOM     20  H   LIG    1       -2.662   0.981  -0.384  0.00  0.00    +0.142 HD
ATOM     21  H   LIG    1       -3.215   2.413   0.298  0.00  0.00    +0.142 HD
ENDBRANCH  10  19
TORSDOF 3
