REMARK  Name = ZINC00366960
REMARK                            x       y       z     vdW  Elec       q    Type
REMARK                         _______ _______ _______ _____ _____    ______ ____
ROOT
ATOM      1  C   LIG    1        1.292  -0.435  -0.154  0.00  0.00    +0.041 A 
ATOM      2  C   LIG    1        2.127   0.769  -0.049  0.00  0.00    +0.088 A 
ATOM      3  C   LIG    1        3.503   1.032  -0.083  0.00  0.00    +0.131 A 
ATOM      4  N   LIG    1        3.908   2.292   0.049  0.00  0.00    -0.220 NA
ATOM      5  C   LIG    1        3.036   3.271   0.208  0.00  0.00    +0.227 A 
ATOM      6  N   LIG    1        1.736   3.067   0.246  0.00  0.00    -0.200 NA
ATOM      7  C   LIG    1        1.235   1.840   0.123  0.00  0.00    +0.233 A 
ATOM      8  O   LIG    1       -0.012   1.339   0.122  0.00  0.00    -0.436 OA
ATOM      9  C   LIG    1        0.000  -0.000  -0.040  0.00  0.00    +0.146 A 
ENDROOT
BRANCH   1  13
ATOM     10  C   LIG    1        2.616  -4.438  -0.697  0.00  0.00    +0.120 A 
ATOM     11  C   LIG    1        1.908  -3.800  -1.706  0.00  0.00    +0.046 A 
ATOM     12  C   LIG    1        1.477  -2.502  -1.534  0.00  0.00    +0.012 A 
ATOM     13  C   LIG    1        1.754  -1.829  -0.343  0.00  0.00    -0.013 A 
ATOM     14  C   LIG    1        2.471  -2.472   0.667  0.00  0.00    +0.012 A 
ATOM     15  C   LIG    1        2.893  -3.772   0.489  0.00  0.00    +0.046 A 
BRANCH  10  17
ATOM     16  C   LIG    1        3.763  -6.314   0.208  0.00  0.00    +0.277 C 
ATOM     17  O   LIG    1        3.040  -5.718  -0.871  0.00  0.00    -0.495 OA
ENDBRANCH  10  17
ENDBRANCH   1  13
BRANCH   9  18
ATOM     18  C   LIG    1       -1.195  -0.863  -0.087  0.00  0.00    +0.018 A 
ATOM     19  C   LIG    1       -2.287  -0.505  -0.883  0.00  0.00    +0.015 A 
ATOM     20  C   LIG    1       -3.399  -1.317  -0.928  0.00  0.00    +0.046 A 
ATOM     21  C   LIG    1       -3.442  -2.483  -0.176  0.00  0.00    +0.120 A 
ATOM     22  C   LIG    1       -2.362  -2.840   0.622  0.00  0.00    +0.046 A 
ATOM     23  C   LIG    1       -1.242  -2.038   0.669  0.00  0.00    +0.015 A 
BRANCH  21  24
ATOM     24  O   LIG    1       -4.543  -3.278  -0.219  0.00  0.00    -0.495 OA
ATOM     25  C   LIG    1       -5.617  -2.852  -1.059  0.00  0.00    +0.277 C 
ENDBRANCH  21  24
ENDBRANCH   9  18
BRANCH   3  26
ATOM     26  N   LIG    1        4.417   0.007  -0.250  0.00  0.00    -0.342 N 
ATOM     27  H   LIG    1        5.367   0.203  -0.272  0.00  0.00    +0.144 HD
ATOM     28  H   LIG    1        4.109  -0.908  -0.344  0.00  0.00    +0.144 HD
ENDBRANCH   3  26
TORSDOF 5
