REMARK  Name = ZINC00672446
REMARK                            x       y       z     vdW  Elec       q    Type
REMARK                         _______ _______ _______ _____ _____    ______ ____
ROOT
ATOM      1  C   LIG    1       -1.334   2.121   0.017  0.00  0.00    +0.044 C 
ATOM      2  C   LIG    1       -0.017   1.388   0.006  0.00  0.00    -0.049 A 
ATOM      3  C   LIG    1       -0.001   0.005  -0.003  0.00  0.00    +0.005 A 
ATOM      4  C   LIG    1        1.203  -0.678  -0.038  0.00  0.00    +0.025 A 
ATOM      5  C   LIG    1        2.388   0.036  -0.049  0.00  0.00    +0.052 A 
ATOM      6  C   LIG    1        2.375   1.422  -0.007  0.00  0.00    +0.050 A 
ATOM      7  N   LIG    1        3.591   2.098   0.064  0.00  0.00    -0.331 N 
ATOM      8  H   LIG    1        3.865   2.666  -0.672  0.00  0.00    +0.147 HD
ATOM      9  C   LIG    1        4.450   1.964   1.221  0.00  0.00    +0.137 C 
ATOM     10  C   LIG    1        5.002   0.575   1.433  0.00  0.00    +0.036 C 
ATOM     11  C   LIG    1        4.599  -0.540   0.799  0.00  0.00    +0.017 C 
ATOM     12  C   LIG    1        5.248  -1.879   1.107  0.00  0.00    +0.058 C 
ATOM     13  C   LIG    1        5.678  -1.924   2.572  0.00  0.00    -0.023 C 
ATOM     14  C   LIG    1        6.347  -3.267   2.875  0.00  0.00    +0.011 C 
ATOM     15  C   LIG    1        4.459  -1.735   3.477  0.00  0.00    +0.011 C 
ATOM     16  C   LIG    1        6.677  -0.784   2.801  0.00  0.00    +0.086 C 
ATOM     17  C   LIG    1        6.025   0.508   2.409  0.00  0.00    +0.163 C 
ATOM     18  O   LIG    1        6.386   1.535   2.950  0.00  0.00    -0.292 OA
ATOM     19  N   LIG    1        3.629  -0.583  -0.150  0.00  0.00    -0.316 N 
ATOM     20  H   LIG    1        3.816  -1.084  -0.959  0.00  0.00    +0.152 HD
ATOM     21  C   LIG    1        1.168   2.103   0.000  0.00  0.00    +0.028 A 
ENDROOT
BRANCH   9  22
ATOM     22  C   LIG    1        3.667   2.359   2.446  0.00  0.00    -0.004 A 
ATOM     23  C   LIG    1        2.519   1.668   2.785  0.00  0.00    +0.007 A 
ATOM     24  C   LIG    1        1.800   2.031   3.909  0.00  0.00    +0.000 A 
ATOM     25  C   LIG    1        2.230   3.084   4.695  0.00  0.00    +0.001 A 
ATOM     26  C   LIG    1        3.378   3.775   4.357  0.00  0.00    +0.020 A 
ATOM     27  C   LIG    1        4.101   3.409   3.235  0.00  0.00    +0.046 A 
ATOM     28 CL   LIG    1        5.547   4.272   2.815  0.00  0.00    -0.083 Cl
ENDBRANCH   9  22
TORSDOF 1
