REMARK  Name = ZINC00598829
REMARK                            x       y       z     vdW  Elec       q    Type
REMARK                         _______ _______ _______ _____ _____    ______ ____
ROOT
ATOM      1  N   LIG    1       -0.066  -0.021  -0.158  0.00  0.00    +0.383 N 
ATOM      2  H   LIG    1       -0.989  -0.337   0.161  0.00  0.00    -0.081 HD
ATOM      3  C   LIG    1        0.242  -0.671  -1.451  0.00  0.00    -0.074 C 
ATOM      4  C   LIG    1        0.054  -2.185  -1.299  0.00  0.00    +0.013 C 
ATOM      5  C   LIG    1        0.904  -2.654  -0.138  0.00  0.00    -0.063 C 
ATOM      6  C   LIG    1        1.719  -3.710  -0.259  0.00  0.00    +0.007 C 
ATOM      7  C   LIG    1        1.889  -4.346  -1.585  0.00  0.00    -0.013 A 
ATOM      8  C   LIG    1        0.816  -4.930  -2.251  0.00  0.00    +0.010 A 
ATOM      9  C   LIG    1        1.029  -5.503  -3.491  0.00  0.00    +0.020 A 
ATOM     10  C   LIG    1        2.295  -5.489  -4.051  0.00  0.00    +0.041 A 
ATOM     11 CL   LIG    1        2.554  -6.205  -5.611  0.00  0.00    -0.084 Cl
ATOM     12  C   LIG    1        3.357  -4.908  -3.378  0.00  0.00    +0.024 A 
ATOM     13  C   LIG    1        3.148  -4.337  -2.133  0.00  0.00    -0.038 A 
ATOM     14  C   LIG    1        4.292  -3.719  -1.390  0.00  0.00    +0.040 C 
ATOM     15  C   LIG    1        4.740  -4.534  -0.207  0.00  0.00    +0.042 C 
ATOM     16  C   LIG    1        3.757  -4.598   0.932  0.00  0.00    -0.021 A 
ATOM     17  C   LIG    1        4.290  -5.108   2.123  0.00  0.00    +0.007 A 
ATOM     18  C   LIG    1        3.499  -5.190   3.251  0.00  0.00    +0.020 A 
ATOM     19  C   LIG    1        2.186  -4.760   3.184  0.00  0.00    +0.111 A 
ATOM     20  N   LIG    1        1.703  -4.298   2.056  0.00  0.00    -0.255 NA
ATOM     21  C   LIG    1        2.436  -4.213   0.934  0.00  0.00    +0.075 A 
ATOM     22  C   LIG    1        0.803  -1.889   1.166  0.00  0.00    +0.013 C 
ATOM     23  C   LIG    1        0.944  -0.394   0.857  0.00  0.00    -0.074 C 
ENDROOT
BRANCH   1  24
ATOM     24  C   LIG    1       -0.093   1.446  -0.326  0.00  0.00    -0.041 C 
BRANCH  24  28
ATOM     25  C   LIG    1        0.634   3.444   4.225  0.00  0.00    +0.045 C 
ATOM     26  C   LIG    1       -0.273   3.016   3.100  0.00  0.00    -0.032 A 
ATOM     27  C   LIG    1        0.255   2.446   1.951  0.00  0.00    +0.008 A 
ATOM     28  C   LIG    1       -0.617   2.068   0.942  0.00  0.00    -0.046 A 
ATOM     29  C   LIG    1       -1.973   2.274   1.112  0.00  0.00    +0.112 A 
ATOM     30  N   LIG    1       -2.440   2.814   2.221  0.00  0.00    -0.263 NA
ATOM     31  C   LIG    1       -1.640   3.185   3.201  0.00  0.00    +0.114 A 
ENDBRANCH  24  28
ENDBRANCH   1  24
TORSDOF 2
