REMARK  Name = ZINC00538314
REMARK                            x       y       z     vdW  Elec       q    Type
REMARK                         _______ _______ _______ _____ _____    ______ ____
ROOT
ATOM      1  N   LIG    1       -4.306   0.841  -1.408  0.00  0.00    +0.380 N 
ATOM      2  H   LIG    1       -4.946   0.353  -0.799  0.00  0.00    -0.082 HD
ATOM      3  C   LIG    1       -4.112   2.208  -0.910  0.00  0.00    -0.074 C 
ATOM      4  C   LIG    1       -5.476   2.885  -0.734  0.00  0.00    +0.013 C 
ATOM      5  C   LIG    1       -6.223   2.794  -2.048  0.00  0.00    -0.065 C 
ATOM      6  C   LIG    1       -6.275   1.445  -2.735  0.00  0.00    +0.013 C 
ATOM      7  C   LIG    1       -6.815   3.868  -2.584  0.00  0.00    -0.012 C 
ATOM      8  C   LIG    1       -4.854   0.870  -2.769  0.00  0.00    -0.074 C 
ENDROOT
BRANCH   7   9
ATOM      9  C   LIG    1       -6.747   5.176  -1.890  0.00  0.00    -0.017 A 
ATOM     10  C   LIG    1       -7.357   5.341  -0.647  0.00  0.00    +0.011 A 
ATOM     11  C   LIG    1       -7.290   6.560  -0.004  0.00  0.00    +0.039 A 
ATOM     12  C   LIG    1       -6.620   7.620  -0.593  0.00  0.00    +0.123 A 
ATOM     13  F   LIG    1       -6.557   8.812   0.040  0.00  0.00    -0.205 F 
ATOM     14  C   LIG    1       -6.013   7.461  -1.829  0.00  0.00    +0.039 A 
ATOM     15  C   LIG    1       -6.069   6.244  -2.476  0.00  0.00    +0.011 A 
ENDBRANCH   7   9
BRANCH   7  16
ATOM     16  C   LIG    1       -7.540   3.749  -3.873  0.00  0.00    -0.017 A 
ATOM     17  C   LIG    1       -6.845   3.430  -5.038  0.00  0.00    +0.011 A 
ATOM     18  C   LIG    1       -7.524   3.320  -6.235  0.00  0.00    +0.039 A 
ATOM     19  C   LIG    1       -8.893   3.526  -6.278  0.00  0.00    +0.123 A 
ATOM     20  F   LIG    1       -9.553   3.417  -7.452  0.00  0.00    -0.205 F 
ATOM     21  C   LIG    1       -9.588   3.843  -5.122  0.00  0.00    +0.039 A 
ATOM     22  C   LIG    1       -8.919   3.950  -3.921  0.00  0.00    +0.011 A 
ENDBRANCH   7  16
BRANCH   1  23
ATOM     23  C   LIG    1       -3.015   0.140  -1.419  0.00  0.00    -0.074 C 
BRANCH  23  24
ATOM     24  C   LIG    1       -2.499  -0.002   0.015  0.00  0.00    +0.024 C 
BRANCH  24  27
ATOM     25  C   LIG    1       -0.018   1.503   0.010  0.00  0.00    +0.066 C 
ATOM     26  C   LIG    1        0.002  -0.004   0.002  0.00  0.00    +0.049 A 
ATOM     27  C   LIG    1       -1.175  -0.722   0.004  0.00  0.00    +0.037 A 
ATOM     28  C   LIG    1       -1.136  -2.116  -0.005  0.00  0.00    +0.262 A 
ATOM     29  N   LIG    1        0.067  -2.764  -0.014  0.00  0.00    -0.262 N 
ATOM     30  C   LIG    1        0.268  -4.124  -0.024  0.00  0.00    +0.104 A 
ATOM     31  C   LIG    1        1.498  -4.637  -0.033  0.00  0.00    +0.067 A 
ATOM     32  S   LIG    1        2.509  -3.165  -0.029  0.00  0.00    -0.058 S 
ATOM     33  C   LIG    1        1.186  -1.975  -0.015  0.00  0.00    +0.180 A 
ATOM     34  O   LIG    1       -2.176  -2.757  -0.004  0.00  0.00    -0.267 OA
ATOM     35  N   LIG    1        1.157  -0.665  -0.013  0.00  0.00    -0.228 NA
ENDBRANCH  24  27
ENDBRANCH  23  24
ENDBRANCH   1  23
TORSDOF 5
