REMARK  Name = ZINC00602413
REMARK                            x       y       z     vdW  Elec       q    Type
REMARK                         _______ _______ _______ _____ _____    ______ ____
ROOT
ATOM      1  N   LIG    1        8.044  -5.289  -0.648  0.00  0.00    -0.269 N 
ATOM      2  C   LIG    1        7.335  -6.430  -0.701  0.00  0.00    +0.122 A 
ATOM      3  C   LIG    1        6.007  -6.103  -0.603  0.00  0.00    +0.083 A 
ATOM      4  C   LIG    1        5.938  -4.638  -0.482  0.00  0.00    +0.188 A 
ATOM      5  N   LIG    1        4.715  -4.055  -0.368  0.00  0.00    -0.192 NA
ATOM      6  C   LIG    1        3.616  -4.756  -0.365  0.00  0.00    +0.228 A 
ATOM      7  N   LIG    1        3.582  -6.121  -0.467  0.00  0.00    -0.180 N 
ATOM      8  N   LIG    1        2.537  -7.055  -0.490  0.00  0.00    -0.139 NA
ATOM      9  C   LIG    1        3.086  -8.247  -0.616  0.00  0.00    +0.218 A 
ATOM     10  N   LIG    1        4.418  -8.114  -0.678  0.00  0.00    -0.203 NA
ATOM     11  C   LIG    1        4.739  -6.843  -0.593  0.00  0.00    +0.172 A 
ATOM     12  N   LIG    1        7.176  -4.199  -0.513  0.00  0.00    -0.151 NA
ENDROOT
BRANCH   6  13
ATOM     13  N   LIG    1        2.416  -4.083  -0.245  0.00  0.00    -0.238 N 
ATOM     14  H   LIG    1        1.581  -4.577  -0.240  0.00  0.00    +0.159 HD
ATOM     15  C   LIG    1        2.405  -2.740  -0.137  0.00  0.00    +0.310 C 
ATOM     16  N   LIG    1        1.234  -2.083  -0.021  0.00  0.00    -0.269 N 
ATOM     17  H   LIG    1        0.405  -2.580   0.063  0.00  0.00    +0.156 HD
ATOM     18  O   LIG    1        3.451  -2.120  -0.144  0.00  0.00    -0.252 OA
BRANCH  16  19
ATOM     19  C   LIG    1        1.213  -0.681  -0.020  0.00  0.00    +0.035 A 
ATOM     20  C   LIG    1        2.137   0.027  -0.776  0.00  0.00    +0.027 A 
ATOM     21  C   LIG    1        2.116   1.408  -0.775  0.00  0.00    +0.047 A 
ATOM     22  C   LIG    1        1.172   2.087  -0.019  0.00  0.00    +0.120 A 
ATOM     23  C   LIG    1        0.249   1.380   0.736  0.00  0.00    +0.047 A 
ATOM     24  C   LIG    1        0.269  -0.001   0.737  0.00  0.00    +0.027 A 
BRANCH  22  25
ATOM     25  O   LIG    1        1.153   3.446  -0.019  0.00  0.00    -0.495 OA
ATOM     26  C   LIG    1        0.153   4.080   0.782  0.00  0.00    +0.277 C 
ENDBRANCH  22  25
ENDBRANCH  16  19
ENDBRANCH   6  13
BRANCH   9  27
ATOM     27  C   LIG    1        2.349  -9.527  -0.679  0.00  0.00    +0.173 A 
ATOM     28  C   LIG    1        0.999  -9.674  -0.617  0.00  0.00    +0.053 A 
ATOM     29  C   LIG    1        0.737 -11.055  -0.714  0.00  0.00    +0.042 A 
ATOM     30  C   LIG    1        1.927 -11.676  -0.828  0.00  0.00    +0.196 A 
ATOM     31  O   LIG    1        2.899 -10.750  -0.813  0.00  0.00    -0.460 OA
ENDBRANCH   9  27
BRANCH   1  32
ATOM     32  C   LIG    1        9.504  -5.200  -0.720  0.00  0.00    +0.143 C 
BRANCH  32  34
ATOM     33  C   LIG    1       11.427  -4.158  -1.928  0.00  0.00    +0.005 C 
ATOM     34  C   LIG    1        9.902  -4.251  -1.853  0.00  0.00    +0.020 C 
ENDBRANCH  32  34
ENDBRANCH   1  32
TORSDOF 6
