REMARK  Name = ZINC00671045
REMARK                            x       y       z     vdW  Elec       q    Type
REMARK                         _______ _______ _______ _____ _____    ______ ____
ROOT
ATOM      1  C   LIG    1        1.852  -1.977   6.371  0.00  0.00    +0.084 A 
ATOM      2  C   LIG    1        1.726  -0.630   6.680  0.00  0.00    +0.068 A 
ATOM      3  C   LIG    1        1.310   0.266   5.615  0.00  0.00    -0.023 A 
ATOM      4  C   LIG    1        1.088  -0.324   4.420  0.00  0.00    -0.004 A 
ATOM      5  C   LIG    1        0.655   0.343   3.151  0.00  0.00    +0.046 C 
ATOM      6  C   LIG    1        0.859   1.857   3.305  0.00  0.00    -0.000 C 
ATOM      7  C   LIG    1        0.267   2.300   4.646  0.00  0.00    +0.009 C 
ATOM      8  C   LIG    1        1.126   1.768   5.795  0.00  0.00    +0.037 C 
ATOM      9  S   LIG    1        1.423  -2.040   4.694  0.00  0.00    -0.077 S 
ENDROOT
BRANCH   2  10
ATOM     10  C   LIG    1        2.003  -0.130   8.030  0.00  0.00    +0.244 C 
ATOM     11  N   LIG    1        3.247   0.271   8.358  0.00  0.00    -0.325 N 
ATOM     12  H   LIG    1        3.430   0.602   9.251  0.00  0.00    +0.145 HD
ATOM     13  H   LIG    1        3.959   0.230   7.701  0.00  0.00    +0.145 HD
ATOM     14  O   LIG    1        1.109  -0.078   8.855  0.00  0.00    -0.270 OA
ENDBRANCH   2  10
BRANCH   1  16
ATOM     15  C   LIG    1        2.298  -4.277   6.721  0.00  0.00    +0.221 C 
ATOM     16  N   LIG    1        2.231  -3.020   7.203  0.00  0.00    -0.279 N 
ATOM     17  H   LIG    1        2.448  -2.845   8.132  0.00  0.00    +0.155 HD
ATOM     18  O   LIG    1        2.026  -4.496   5.560  0.00  0.00    -0.275 OA
BRANCH  15  19
ATOM     19  C   LIG    1        2.709  -5.410   7.625  0.00  0.00    +0.075 C 
BRANCH  19  21
ATOM     20  C   LIG    1        0.324  -5.808   8.255  0.00  0.00    +0.004 C 
ATOM     21  C   LIG    1        1.726  -5.514   8.793  0.00  0.00    +0.009 C 
ENDBRANCH  19  21
BRANCH  19  22
ATOM     22  C   LIG    1        2.703  -6.721   6.836  0.00  0.00    +0.009 C 
ATOM     23  C   LIG    1        3.246  -7.848   7.716  0.00  0.00    +0.004 C 
ENDBRANCH  19  22
ENDBRANCH  15  19
ENDBRANCH   1  16
BRANCH   6  24
ATOM     24  C   LIG    1        0.149   2.589   2.164  0.00  0.00    -0.032 C 
ATOM     25  C   LIG    1       -1.344   2.257   2.196  0.00  0.00    +0.011 C 
ATOM     26  C   LIG    1        0.339   4.098   2.330  0.00  0.00    +0.011 C 
BRANCH  24  27
ATOM     27  C   LIG    1        0.742   2.144   0.826  0.00  0.00    +0.003 C 
ATOM     28  C   LIG    1        0.032   2.876  -0.315  0.00  0.00    +0.004 C 
ENDBRANCH  24  27
ENDBRANCH   6  24
TORSDOF 7
