REMARK  Name = ZINC00394500
REMARK                            x       y       z     vdW  Elec       q    Type
REMARK                         _______ _______ _______ _____ _____    ______ ____
ROOT
ATOM      1  C   LIG    1        2.118   9.041   0.028  0.00  0.00    +0.104 C 
ATOM      2  N   LIG    1        1.472   7.726   0.027  0.00  0.00    -0.304 NA
ATOM      3  C   LIG    1        0.152   7.665   0.040  0.00  0.00    +0.085 C 
ATOM      4  C   LIG    1       -0.504   6.453   0.040  0.00  0.00    +0.025 C 
ATOM      5  C   LIG    1        0.253   5.282   0.026  0.00  0.00    +0.043 C 
ATOM      6  C   LIG    1       -0.065   3.845   0.023  0.00  0.00    -0.022 A 
ATOM      7  C   LIG    1       -1.258   3.124   0.032  0.00  0.00    +0.006 A 
ATOM      8  C   LIG    1       -1.226   1.747   0.017  0.00  0.00    +0.000 A 
ATOM      9  C   LIG    1       -0.013   1.076   0.008  0.00  0.00    +0.002 A 
ATOM     10  C   LIG    1        1.174   1.775   0.000  0.00  0.00    +0.023 A 
ATOM     11  C   LIG    1        1.164   3.167   0.007  0.00  0.00    +0.031 A 
ATOM     12  N   LIG    1        2.181   4.104   0.002  0.00  0.00    -0.339 N 
ATOM     13  H   LIG    1        3.128   3.895  -0.008  0.00  0.00    +0.146 HD
ATOM     14  C   LIG    1        1.655   5.382   0.013  0.00  0.00    +0.092 C 
ATOM     15  C   LIG    1        2.228   6.648   0.014  0.00  0.00    +0.106 C 
ENDROOT
TORSDOF 0
