REMARK  Name = ZINC00499358
REMARK                            x       y       z     vdW  Elec       q    Type
REMARK                         _______ _______ _______ _____ _____    ______ ____
ROOT
ATOM      1  C   LIG    1        1.451  -2.345  -2.521  0.00  0.00    +0.144 A 
ATOM      2  C   LIG    1        1.570  -3.718  -2.717  0.00  0.00    +0.033 A 
ATOM      3  C   LIG    1        2.261  -4.169  -3.867  0.00  0.00    +0.019 A 
ATOM      4  C   LIG    1        2.240  -5.527  -4.222  0.00  0.00    +0.015 A 
ATOM      5  C   LIG    1        2.874  -5.943  -5.355  0.00  0.00    +0.046 A 
ATOM      6  C   LIG    1        3.553  -5.029  -6.162  0.00  0.00    +0.124 A 
ATOM      7  C   LIG    1        3.602  -3.688  -5.818  0.00  0.00    +0.092 A 
ATOM      8  C   LIG    1        2.969  -3.248  -4.667  0.00  0.00    +0.143 A 
ATOM      9  O   LIG    1        3.046  -1.947  -4.297  0.00  0.00    -0.421 OA
ATOM     10  C   LIG    1        2.024  -1.461  -3.551  0.00  0.00    +0.351 A 
ATOM     11  O   LIG    1        1.596  -0.335  -3.723  0.00  0.00    -0.244 OA
ENDROOT
BRANCH   1  12
ATOM     12  C   LIG    1        0.776  -1.799  -1.335  0.00  0.00    +0.346 C 
ATOM     13  O   LIG    1        0.312  -2.551  -0.499  0.00  0.00    -0.245 OA
BRANCH  12  14
ATOM     14  O   LIG    1        0.671  -0.465  -1.174  0.00  0.00    -0.461 OA
BRANCH  14  16
ATOM     15  C   LIG    1       -0.019   1.526   0.010  0.00  0.00    +0.048 C 
ATOM     16  C   LIG    1        0.002  -0.004   0.002  0.00  0.00    +0.229 C 
ENDBRANCH  14  16
ENDBRANCH  12  14
ENDBRANCH   1  12
BRANCH   6  17
ATOM     17  O   LIG    1        4.169  -5.458  -7.292  0.00  0.00    -0.495 OA
ATOM     18  C   LIG    1        4.082  -6.853  -7.590  0.00  0.00    +0.277 C 
ENDBRANCH   6  17
TORSDOF 4
