REMARK  Name = ZINC00501435
REMARK                            x       y       z     vdW  Elec       q    Type
REMARK                         _______ _______ _______ _____ _____    ______ ____
ROOT
ATOM      1  S   LIG    1       -1.805   5.681   0.004  0.00  0.00    +0.009 S 
ENDROOT
BRANCH   1   5
ATOM      2  C   LIG    1       -2.279   9.789  -1.922  0.00  0.00    +0.003 C 
ATOM      3  C   LIG    1       -2.994   9.499  -0.599  0.00  0.00    +0.016 C 
ATOM      4  C   LIG    1       -3.093   7.985  -0.400  0.00  0.00    +0.098 C 
ATOM      5  N   LIG    1       -1.746   7.401  -0.388  0.00  0.00    -0.239 NA
ATOM      6  C   LIG    1       -1.058   7.626  -1.666  0.00  0.00    +0.098 C 
ATOM      7  C   LIG    1       -0.897   9.130  -1.902  0.00  0.00    +0.016 C 
ENDBRANCH   1   5
BRANCH   1   8
ATOM      8  S   LIG    1       -2.597   5.630   1.894  0.00  0.00    +0.009 S 
BRANCH   8   9
ATOM      9  N   LIG    1       -1.200   5.852   2.949  0.00  0.00    -0.239 NA
ATOM     10  C   LIG    1       -0.238   4.755   2.785  0.00  0.00    +0.098 C 
ATOM     11  C   LIG    1        1.022   5.053   3.602  0.00  0.00    +0.016 C 
ATOM     12  C   LIG    1        0.642   5.208   5.078  0.00  0.00    +0.003 C 
ATOM     13  C   LIG    1       -0.397   6.325   5.214  0.00  0.00    +0.016 C 
ATOM     14  C   LIG    1       -1.615   5.990   4.351  0.00  0.00    +0.098 C 
ENDBRANCH   8   9
ENDBRANCH   1   8
TORSDOF 3
