REMARK  Name = ZINC00608261
REMARK                            x       y       z     vdW  Elec       q    Type
REMARK                         _______ _______ _______ _____ _____    ______ ____
ROOT
ATOM      1  C   LIG    1        0.068  -2.828  -0.062  0.00  0.00    +0.248 C 
ATOM      2  N   LIG    1        0.124  -4.173  -0.136  0.00  0.00    -0.309 N 
ATOM      3  H   LIG    1        0.556  -4.599  -0.893  0.00  0.00    +0.149 HD
ATOM      4  O   LIG    1       -0.474  -2.294   0.887  0.00  0.00    -0.270 OA
ENDROOT
BRANCH   1  11
ATOM      5  C   LIG    1        0.605  -0.606  -1.054  0.00  0.00    +0.134 A 
ATOM      6  C   LIG    1        1.171   0.158  -2.059  0.00  0.00    +0.070 A 
ATOM      7  C   LIG    1        1.788  -0.464  -3.138  0.00  0.00    +0.047 A 
ATOM      8  C   LIG    1        1.837  -1.856  -3.211  0.00  0.00    +0.062 A 
ATOM      9 CL   LIG    1        2.609  -2.623  -4.564  0.00  0.00    -0.082 Cl
ATOM     10  C   LIG    1        1.280  -2.619  -2.225  0.00  0.00    +0.038 A 
ATOM     11  C   LIG    1        0.662  -2.006  -1.129  0.00  0.00    +0.080 A 
BRANCH   7  12
ATOM     12  N   LIG    1        2.357   0.304  -4.149  0.00  0.00    -0.357 N 
ATOM     13  H   LIG    1        2.788  -0.129  -4.902  0.00  0.00    +0.142 HD
ATOM     14  H   LIG    1        2.323   1.272  -4.099  0.00  0.00    +0.142 HD
ENDBRANCH   7  12
BRANCH   5  16
ATOM     15  C   LIG    1       -0.017   1.425   0.010  0.00  0.00    +0.277 C 
ATOM     16  O   LIG    1        0.002  -0.004   0.002  0.00  0.00    -0.494 OA
ENDBRANCH   5  16
ENDBRANCH   1  11
BRANCH   2  17
ATOM     17  C   LIG    1       -0.468  -4.990   0.926  0.00  0.00    +0.070 C 
ATOM     18  C   LIG    1       -1.959  -5.193   0.645  0.00  0.00    +0.004 C 
ATOM     19  C   LIG    1       -2.553  -6.113   1.714  0.00  0.00    -0.077 C 
ATOM     20  N   LIG    1       -1.867  -7.410   1.685  0.00  0.00    +0.382 N 
ATOM     21  H   LIG    1       -1.944  -7.809   0.761  0.00  0.00    -0.081 HD
ATOM     22  C   LIG    1       -0.450  -7.233   2.023  0.00  0.00    -0.077 C 
ATOM     23  C   LIG    1        0.225  -6.356   0.966  0.00  0.00    +0.004 C 
BRANCH  20  24
ATOM     24  C   LIG    1       -2.492  -8.316   2.659  0.00  0.00    -0.043 C 
BRANCH  24  25
ATOM     25  C   LIG    1       -1.871  -9.684   2.543  0.00  0.00    -0.064 A 
ATOM     26  C   LIG    1       -2.407 -10.615   1.673  0.00  0.00    +0.002 A 
ATOM     27  C   LIG    1       -1.837 -11.870   1.568  0.00  0.00    +0.000 A 
ATOM     28  C   LIG    1       -0.731 -12.194   2.332  0.00  0.00    +0.000 A 
ATOM     29  C   LIG    1       -0.195 -11.262   3.200  0.00  0.00    +0.000 A 
ATOM     30  C   LIG    1       -0.762 -10.006   3.303  0.00  0.00    +0.002 A 
ENDBRANCH  24  25
ENDBRANCH  20  24
ENDBRANCH   2  17
TORSDOF 6
