REMARK  Name = ZINC00602032
REMARK                            x       y       z     vdW  Elec       q    Type
REMARK                         _______ _______ _______ _____ _____    ______ ____
ROOT
ATOM      1  C   LIG    1        4.512  -0.004   1.427  0.00  0.00    +0.164 C 
ENDROOT
BRANCH   1   2
ATOM      2  C   LIG    1        3.106  -0.534   1.532  0.00  0.00    +0.236 C 
ATOM      3  N   LIG    1        2.078   0.316   1.728  0.00  0.00    -0.300 N 
ATOM      4  C   LIG    1        2.320   1.754   1.909  0.00  0.00    +0.110 C 
ATOM      5  C   LIG    1        1.643   2.208   3.206  0.00  0.00    +0.050 C 
ATOM      6  C   LIG    1        0.163   1.820   3.166  0.00  0.00    +0.118 C 
ATOM      7  C   LIG    1        0.035   0.299   3.062  0.00  0.00    +0.050 C 
ATOM      8  C   LIG    1        0.695  -0.177   1.764  0.00  0.00    +0.110 C 
ATOM      9  O   LIG    1        2.898  -1.725   1.440  0.00  0.00    -0.274 OA
BRANCH   6  10
ATOM     10  O   LIG    1       -0.480   2.272   4.360  0.00  0.00    -0.392 OA
ATOM     11  H   LIG    1       -1.422   2.060   4.404  0.00  0.00    +0.210 HD
ENDBRANCH   6  10
ENDBRANCH   1   2
BRANCH   1  12
ATOM     12  N   LIG    1        5.456  -1.124   1.412  0.00  0.00    -0.299 N 
ATOM     13  H   LIG    1        5.167  -1.998   1.107  0.00  0.00    +0.150 HD
ATOM     14  C   LIG    1        6.727  -0.940   1.823  0.00  0.00    +0.261 C 
ATOM     15  O   LIG    1        7.090   0.156   2.206  0.00  0.00    -0.269 OA
BRANCH  14  16
ATOM     16  C   LIG    1        7.674  -2.065   1.809  0.00  0.00    +0.103 A 
ATOM     17  C   LIG    1        8.975  -2.004   2.197  0.00  0.00    +0.041 A 
ATOM     18  C   LIG    1        9.536  -3.293   2.030  0.00  0.00    +0.002 A 
ATOM     19  C   LIG    1       10.811  -3.825   2.262  0.00  0.00    +0.030 A 
ATOM     20  C   LIG    1       11.056  -5.142   1.997  0.00  0.00    +0.042 A 
ATOM     21 CL   LIG    1       12.638  -5.797   2.284  0.00  0.00    -0.084 Cl
ATOM     22  C   LIG    1       10.050  -5.962   1.499  0.00  0.00    +0.022 A 
ATOM     23  C   LIG    1        8.789  -5.463   1.265  0.00  0.00    +0.027 A 
ATOM     24  C   LIG    1        8.515  -4.123   1.527  0.00  0.00    +0.047 A 
ATOM     25  N   LIG    1        7.382  -3.353   1.404  0.00  0.00    -0.351 N 
ATOM     26  H   LIG    1        6.521  -3.663   1.085  0.00  0.00    +0.166 HD
ENDBRANCH  14  16
ENDBRANCH   1  12
BRANCH   1  27
ATOM     27  C   LIG    1        4.659   0.802   0.135  0.00  0.00    +0.067 C 
BRANCH  27  34
ATOM     28  C   LIG    1        6.206   2.707   0.625  0.00  0.00    +0.006 A 
ATOM     29  C   LIG    1        7.457   3.294   0.593  0.00  0.00    +0.038 A 
ATOM     30  C   LIG    1        8.523   2.621   0.019  0.00  0.00    +0.123 A 
ATOM     31  F   LIG    1        9.745   3.196  -0.017  0.00  0.00    -0.205 F 
ATOM     32  C   LIG    1        8.335   1.358  -0.516  0.00  0.00    +0.038 A 
ATOM     33  C   LIG    1        7.085   0.771  -0.478  0.00  0.00    +0.006 A 
ATOM     34  C   LIG    1        6.022   1.444   0.094  0.00  0.00    -0.045 A 
ENDBRANCH  27  34
ENDBRANCH   1  27
TORSDOF 6
