REMARK  Name = ZINC00596596
REMARK                            x       y       z     vdW  Elec       q    Type
REMARK                         _______ _______ _______ _____ _____    ______ ____
ROOT
ATOM      1  C   LIG    1       -0.113   1.122  -0.877  0.00  0.00    +0.068 C 
ATOM      2  C   LIG    1       -0.203  -0.365  -0.650  0.00  0.00    +0.071 A 
ATOM      3  C   LIG    1       -0.442  -1.320  -1.606  0.00  0.00    +0.152 A 
ATOM      4  C   LIG    1       -0.677  -1.302  -3.049  0.00  0.00    +0.277 A 
ATOM      5  N   LIG    1       -0.880  -2.483  -3.675  0.00  0.00    -0.307 N 
ATOM      6  C   LIG    1       -0.865  -3.659  -2.968  0.00  0.00    +0.135 A 
ATOM      7  N   LIG    1       -0.661  -3.705  -1.694  0.00  0.00    -0.151 NA
ATOM      8  H   LIG    1       -1.038  -2.499  -4.632  0.00  0.00    +0.170 HD
ATOM      9  O   LIG    1       -0.688  -0.254  -3.669  0.00  0.00    -0.265 OA
ATOM     10  N   LIG    1       -0.439  -2.541  -0.952  0.00  0.00    -0.210 N 
ATOM     11  C   LIG    1       -0.205  -2.289   0.343  0.00  0.00    +0.137 A 
ATOM     12  N   LIG    1       -0.060  -0.996   0.516  0.00  0.00    -0.235 NA
ENDROOT
BRANCH   6  13
ATOM     13  C   LIG    1       -1.097  -4.950  -3.709  0.00  0.00    +0.111 C 
BRANCH  13  14
ATOM     14  C   LIG    1       -1.038  -6.103  -2.740  0.00  0.00    -0.036 A 
ATOM     15  C   LIG    1        0.169  -6.728  -2.486  0.00  0.00    +0.008 A 
ATOM     16  C   LIG    1        0.229  -7.786  -1.598  0.00  0.00    +0.049 A 
ATOM     17  C   LIG    1       -0.921  -8.222  -0.961  0.00  0.00    +0.161 A 
ATOM     18  C   LIG    1       -2.136  -7.593  -1.217  0.00  0.00    +0.162 A 
ATOM     19  C   LIG    1       -2.188  -6.530  -2.104  0.00  0.00    +0.053 A 
BRANCH  17  20
ATOM     20  O   LIG    1       -0.864  -9.263  -0.087  0.00  0.00    -0.491 OA
ATOM     21  C   LIG    1        0.416  -9.861   0.126  0.00  0.00    +0.277 C 
ENDBRANCH  17  20
BRANCH  18  22
ATOM     22  O   LIG    1       -3.268  -8.017  -0.594  0.00  0.00    -0.491 OA
ATOM     23  C   LIG    1       -4.478  -7.324  -0.905  0.00  0.00    +0.277 C 
ENDBRANCH  18  22
ENDBRANCH  13  14
ENDBRANCH   6  13
BRANCH  11  24
ATOM     24  C   LIG    1       -0.117  -3.328   1.430  0.00  0.00    +0.085 C 
BRANCH  24  25
ATOM     25  C   LIG    1       -1.190  -3.056   2.485  0.00  0.00    +0.122 C 
ATOM     26  C   LIG    1       -1.175  -4.174   3.529  0.00  0.00    +0.038 C 
BRANCH  25  27
ATOM     27  O   LIG    1       -0.925  -1.805   3.123  0.00  0.00    -0.391 OA
ATOM     28  H   LIG    1       -0.069  -1.766   3.571  0.00  0.00    +0.210 HD
ENDBRANCH  25  27
ENDBRANCH  24  25
BRANCH  24  29
ATOM     29  C   LIG    1        1.266  -3.268   2.082  0.00  0.00    +0.014 C 
BRANCH  29  30
ATOM     30  C   LIG    1        2.330  -3.680   1.062  0.00  0.00    +0.005 C 
BRANCH  30  31
ATOM     31  C   LIG    1        3.704  -3.693   1.735  0.00  0.00    +0.035 C 
BRANCH  31  32
ATOM     32  C   LIG    1        4.751  -4.099   0.731  0.00  0.00    -0.047 A 
ATOM     33  C   LIG    1        5.070  -5.434   0.566  0.00  0.00    +0.003 A 
ATOM     34  C   LIG    1        6.031  -5.806  -0.356  0.00  0.00    +0.000 A 
ATOM     35  C   LIG    1        6.672  -4.844  -1.112  0.00  0.00    +0.000 A 
ATOM     36  C   LIG    1        6.353  -3.509  -0.948  0.00  0.00    +0.000 A 
ATOM     37  C   LIG    1        5.389  -3.137  -0.029  0.00  0.00    +0.003 A 
ENDBRANCH  31  32
ENDBRANCH  30  31
ENDBRANCH  29  30
ENDBRANCH  24  29
ENDBRANCH  11  24
TORSDOF 11
