REMARK  Name = ZINC00446278
REMARK                            x       y       z     vdW  Elec       q    Type
REMARK                         _______ _______ _______ _____ _____    ______ ____
ROOT
ATOM      1  C   LIG    1       -6.289   1.908   0.044  0.00  0.00    +0.098 C 
ENDROOT
BRANCH   1   2
ATOM      2  C   LIG    1       -4.977   1.166   0.033  0.00  0.00    +0.165 C 
ATOM      3  O   LIG    1       -4.966  -0.046   0.026  0.00  0.00    -0.292 OA
BRANCH   2   4
ATOM      4  C   LIG    1       -3.709   1.913   0.030  0.00  0.00    +0.020 A 
ATOM      5  C   LIG    1       -3.718   3.312   0.039  0.00  0.00    +0.011 A 
ATOM      6  C   LIG    1       -2.526   4.005   0.037  0.00  0.00    +0.003 A 
ATOM      7  C   LIG    1       -1.323   3.320   0.032  0.00  0.00    +0.032 A 
ATOM      8  C   LIG    1       -1.306   1.936   0.019  0.00  0.00    +0.122 A 
ATOM      9  C   LIG    1       -2.490   1.229   0.021  0.00  0.00    +0.044 A 
BRANCH   8  10
ATOM     10  N   LIG    1       -0.014   1.214   0.009  0.00  0.00    +0.006 N 
ATOM     11  O   LIG    1        0.002  -0.004   0.002  0.00  0.00    -0.130 OA
BRANCH  10  12
ATOM     12  O   LIG    1        1.032   1.837   0.002  0.00  0.00    -0.396 OA
ATOM     13  H   LIG    1        1.019   2.774   0.007  0.00  0.00    +0.329 HD
ENDBRANCH  10  12
ENDBRANCH   8  10
ENDBRANCH   2   4
ENDBRANCH   1   2
BRANCH   1  14
ATOM     14  C   LIG    1       -7.443   0.903   0.044  0.00  0.00    +0.109 C 
BRANCH  14  15
ATOM     15  N   LIG    1       -8.718   1.624   0.055  0.00  0.00    -0.343 N 
ATOM     16  H   LIG    1       -8.727   2.594   0.060  0.00  0.00    +0.146 HD
BRANCH  15  22
ATOM     17  C   LIG    1      -13.632   1.632   0.080  0.00  0.00    +0.044 C 
ATOM     18  C   LIG    1      -12.319   0.893   0.070  0.00  0.00    -0.046 A 
ATOM     19  C   LIG    1      -12.305  -0.490   0.062  0.00  0.00    +0.004 A 
ATOM     20  C   LIG    1      -11.102  -1.172   0.052  0.00  0.00    +0.002 A 
ATOM     21  C   LIG    1       -9.911  -0.474   0.049  0.00  0.00    +0.023 A 
ATOM     22  C   LIG    1       -9.921   0.915   0.057  0.00  0.00    +0.030 A 
ATOM     23  C   LIG    1      -11.131   1.597   0.073  0.00  0.00    -0.027 A 
ATOM     24  C   LIG    1      -11.148   3.104   0.087  0.00  0.00    +0.046 C 
ENDBRANCH  15  22
ENDBRANCH  14  15
ENDBRANCH   1  14
TORSDOF 7
