REMARK  Name = ZINC00477382
REMARK                            x       y       z     vdW  Elec       q    Type
REMARK                         _______ _______ _______ _____ _____    ______ ____
ROOT
ATOM      1  C   LIG    1        2.788  -0.168  -0.026  0.00  0.00    +0.169 A 
ATOM      2  N   LIG    1        3.958  -0.067   0.577  0.00  0.00    -0.128 NA
ATOM      3  N   LIG    1        4.463   1.098   0.369  0.00  0.00    -0.126 NA
ATOM      4  C   LIG    1        3.643   1.812  -0.381  0.00  0.00    +0.199 A 
ATOM      5  C   LIG    1        3.692   3.126  -0.903  0.00  0.00    +0.174 A 
ATOM      6 CL   LIG    1        5.066   4.133  -0.566  0.00  0.00    -0.058 Cl
ATOM      7  N   LIG    1        2.715   3.591  -1.636  0.00  0.00    -0.230 NA
ATOM      8  C   LIG    1        1.626   2.836  -1.921  0.00  0.00    +0.090 A 
ATOM      9  C   LIG    1        0.590   3.353  -2.709  0.00  0.00    +0.030 A 
ATOM     10  C   LIG    1       -0.509   2.576  -2.991  0.00  0.00    +0.002 A 
ATOM     11  C   LIG    1       -0.598   1.279  -2.506  0.00  0.00    +0.002 A 
ATOM     12  C   LIG    1        0.409   0.754  -1.724  0.00  0.00    +0.028 A 
ATOM     13  C   LIG    1        1.528   1.522  -1.427  0.00  0.00    +0.075 A 
ATOM     14  N   LIG    1        2.554   1.018  -0.650  0.00  0.00    -0.271 N 
ENDROOT
BRANCH   1  18
ATOM     15  C   LIG    1        0.233  -3.561  -0.019  0.00  0.00    +0.000 A 
ATOM     16  C   LIG    1        1.544  -3.687  -0.443  0.00  0.00    +0.001 A 
ATOM     17  C   LIG    1        2.379  -2.589  -0.448  0.00  0.00    +0.011 A 
ATOM     18  C   LIG    1        1.899  -1.349  -0.024  0.00  0.00    +0.020 A 
ATOM     19  C   LIG    1        0.577  -1.230   0.408  0.00  0.00    +0.011 A 
ATOM     20  C   LIG    1       -0.250  -2.335   0.402  0.00  0.00    +0.001 A 
ENDBRANCH   1  18
TORSDOF 1
