REMARK  Name = ZINC00600558
REMARK                            x       y       z     vdW  Elec       q    Type
REMARK                         _______ _______ _______ _____ _____    ______ ____
ROOT
ATOM      1  C   LIG    1       -1.267  -0.764   0.001  0.00  0.00    +0.075 A 
ATOM      2  C   LIG    1       -2.528  -0.236   0.014  0.00  0.00    +0.062 A 
ATOM      3  C   LIG    1       -3.435  -1.295   0.032  0.00  0.00    +0.166 A 
ATOM      4  N   LIG    1       -2.766  -2.420   0.030  0.00  0.00    -0.162 NA
ATOM      5  N   LIG    1       -1.397  -2.123   0.004  0.00  0.00    -0.232 N 
ENDROOT
BRANCH   1  12
ATOM      6  C   LIG    1        1.155  -0.580  -0.555  0.00  0.00    +0.011 A 
ATOM      7  C   LIG    1        2.335   0.133  -0.572  0.00  0.00    +0.020 A 
ATOM      8  C   LIG    1        2.377   1.419  -0.059  0.00  0.00    +0.041 A 
ATOM      9 CL   LIG    1        3.867   2.311  -0.084  0.00  0.00    -0.084 Cl
ATOM     10  C   LIG    1        1.237   1.996   0.473  0.00  0.00    +0.020 A 
ATOM     11  C   LIG    1        0.051   1.292   0.496  0.00  0.00    +0.011 A 
ATOM     12  C   LIG    1        0.002  -0.004  -0.020  0.00  0.00    +0.001 A 
ENDBRANCH   1  12
BRANCH   5  13
ATOM     13  C   LIG    1       -0.350  -3.054  -0.011  0.00  0.00    +0.066 A 
ATOM     14  C   LIG    1        0.741  -2.888   0.833  0.00  0.00    +0.030 A 
ATOM     15  C   LIG    1        1.771  -3.807   0.816  0.00  0.00    +0.030 A 
ATOM     16  C   LIG    1        1.719  -4.891  -0.041  0.00  0.00    +0.105 A 
ATOM     17  C   LIG    1        0.635  -5.059  -0.883  0.00  0.00    +0.030 A 
ATOM     18  C   LIG    1       -0.402  -4.146  -0.866  0.00  0.00    +0.030 A 
BRANCH  16  19
ATOM     19  S   LIG    1        3.036  -6.061  -0.060  0.00  0.00    +0.056 S 
ATOM     20  O   LIG    1        4.186  -5.386   0.429  0.00  0.00    -0.153 OA
ATOM     21  O   LIG    1        3.005  -6.686  -1.336  0.00  0.00    -0.153 OA
BRANCH  19  22
ATOM     22  N   LIG    1        2.667  -7.232   1.050  0.00  0.00    -0.204 NA
ATOM     23  H   LIG    1        3.274  -7.976   1.192  0.00  0.00    +0.144 HD
ATOM     24  H   LIG    1        1.843  -7.176   1.560  0.00  0.00    +0.144 HD
ENDBRANCH  19  22
ENDBRANCH  16  19
ENDBRANCH   5  13
BRANCH   3  25
ATOM     25  C   LIG    1       -4.937  -1.166   0.051  0.00  0.00    +0.436 C 
ATOM     26  F   LIG    1       -5.295   0.016   0.709  0.00  0.00    -0.164 F 
ATOM     27  F   LIG    1       -5.490  -2.260   0.724  0.00  0.00    -0.164 F 
ATOM     28  F   LIG    1       -5.419  -1.133  -1.262  0.00  0.00    -0.164 F 
ENDBRANCH   3  25
TORSDOF 5
