REMARK  Name = ZINC00642562
REMARK                            x       y       z     vdW  Elec       q    Type
REMARK                         _______ _______ _______ _____ _____    ______ ____
ROOT
ATOM      1  N   LIG    1        3.156  -1.997  -0.063  0.00  0.00    -0.231 N 
ATOM      2  H   LIG    1        3.767  -1.296   0.215  0.00  0.00    +0.173 HD
ATOM      3  C   LIG    1        1.827  -1.770  -0.067  0.00  0.00    +0.262 C 
ATOM      4  O   LIG    1        1.061  -2.650  -0.415  0.00  0.00    -0.269 OA
ENDROOT
BRANCH   3   5
ATOM      5  C   LIG    1        1.305  -0.465   0.347  0.00  0.00    +0.067 A 
ATOM      6  C   LIG    1        2.161   0.561   0.751  0.00  0.00    +0.031 A 
ATOM      7  C   LIG    1        1.600   1.744   1.121  0.00  0.00    +0.022 A 
ATOM      8  S   LIG    1       -0.143   1.437   0.908  0.00  0.00    -0.073 S 
ATOM      9  C   LIG    1       -0.065  -0.203   0.352  0.00  0.00    +0.076 A 
BRANCH   7  10
ATOM     10  C   LIG    1        2.269   2.977   1.584  0.00  0.00    -0.011 A 
ATOM     11  C   LIG    1        3.660   3.022   1.692  0.00  0.00    +0.009 A 
ATOM     12  C   LIG    1        4.279   4.179   2.119  0.00  0.00    +0.001 A 
ATOM     13  C   LIG    1        3.523   5.288   2.453  0.00  0.00    +0.000 A 
ATOM     14  C   LIG    1        2.143   5.248   2.355  0.00  0.00    +0.001 A 
ATOM     15  C   LIG    1        1.512   4.100   1.923  0.00  0.00    +0.009 A 
ENDBRANCH   7  10
BRANCH   9  16
ATOM     16  N   LIG    1       -1.102  -1.043   0.000  0.00  0.00    -0.352 N 
ATOM     17  H   LIG    1       -0.915  -1.947  -0.298  0.00  0.00    +0.143 HD
ATOM     18  H   LIG    1       -2.018  -0.729   0.050  0.00  0.00    +0.143 HD
ENDBRANCH   9  16
ENDBRANCH   3   5
BRANCH   1  19
ATOM     19  N   LIG    1        3.655  -3.244  -0.459  0.00  0.00    -0.245 N 
ATOM     20  H   LIG    1        3.045  -3.945  -0.736  0.00  0.00    +0.172 HD
BRANCH  19  21
ATOM     21  C   LIG    1        4.984  -3.471  -0.454  0.00  0.00    +0.151 C 
ATOM     22  S   LIG    1        5.594  -4.995  -0.939  0.00  0.00    -0.017 S 
BRANCH  21  23
ATOM     23  N   LIG    1        5.832  -2.497  -0.069  0.00  0.00    -0.296 N 
ATOM     24  H   LIG    1        5.492  -1.614   0.146  0.00  0.00    +0.154 HD
BRANCH  23  28
ATOM     25  C   LIG    1        9.919  -3.279   0.201  0.00  0.00    +0.120 A 
ATOM     26  C   LIG    1        9.204  -3.703  -0.909  0.00  0.00    +0.047 A 
ATOM     27  C   LIG    1        7.850  -3.445  -1.000  0.00  0.00    +0.027 A 
ATOM     28  C   LIG    1        7.205  -2.760   0.022  0.00  0.00    +0.033 A 
ATOM     29  C   LIG    1        7.923  -2.331   1.130  0.00  0.00    +0.027 A 
ATOM     30  C   LIG    1        9.275  -2.595   1.221  0.00  0.00    +0.047 A 
BRANCH  25  32
ATOM     31  C   LIG    1       11.925  -3.068   1.460  0.00  0.00    +0.277 C 
ATOM     32  O   LIG    1       11.252  -3.534   0.289  0.00  0.00    -0.495 OA
ENDBRANCH  25  32
ENDBRANCH  23  28
ENDBRANCH  21  23
ENDBRANCH  19  21
ENDBRANCH   1  19
TORSDOF 8
