REMARK  Name = ZINC00388747
REMARK                            x       y       z     vdW  Elec       q    Type
REMARK                         _______ _______ _______ _____ _____    ______ ____
ROOT
ATOM      1  C   LIG    1        0.606  -0.608  -1.056  0.00  0.00    +0.120 A 
ATOM      2  C   LIG    1        1.173   0.161  -2.062  0.00  0.00    +0.049 A 
ATOM      3  C   LIG    1        1.786  -0.452  -3.137  0.00  0.00    +0.049 A 
ATOM      4  C   LIG    1        1.836  -1.836  -3.211  0.00  0.00    +0.120 A 
ATOM      5  C   LIG    1        1.270  -2.604  -2.204  0.00  0.00    +0.049 A 
ATOM      6  C   LIG    1        0.661  -1.992  -1.127  0.00  0.00    +0.049 A 
ENDROOT
BRANCH   1   8
ATOM      7  C   LIG    1       -0.017   1.425   0.010  0.00  0.00    +0.277 C 
ATOM      8  O   LIG    1        0.002  -0.004   0.002  0.00  0.00    -0.495 OA
ENDBRANCH   1   8
BRANCH   4   9
ATOM      9  O   LIG    1        2.440  -2.439  -4.269  0.00  0.00    -0.495 OA
ATOM     10  C   LIG    1        2.454  -3.868  -4.280  0.00  0.00    +0.277 C 
ENDBRANCH   4   9
TORSDOF 2
