REMARK  Name = ZINC00424907
REMARK                            x       y       z     vdW  Elec       q    Type
REMARK                         _______ _______ _______ _____ _____    ______ ____
ROOT
ATOM      1  C   LIG    1       -1.081  -3.455  -0.004  0.00  0.00    +0.090 C 
ATOM      2  C   LIG    1       -0.348  -2.139  -0.005  0.00  0.00    +0.149 A 
ATOM      3  N   LIG    1       -0.923  -0.940   0.006  0.00  0.00    -0.211 NA
ATOM      4  C   LIG    1        0.002  -0.004   0.002  0.00  0.00    +0.168 A 
ATOM      5  C   LIG    1       -0.018   1.463   0.010  0.00  0.00    +0.045 A 
ATOM      6  C   LIG    1       -1.208   2.186   0.020  0.00  0.00    +0.014 A 
ATOM      7  C   LIG    1       -1.168   3.563   0.032  0.00  0.00    +0.001 A 
ATOM      8  C   LIG    1        0.048   4.234   0.024  0.00  0.00    +0.002 A 
ATOM      9  C   LIG    1        1.235   3.540   0.009  0.00  0.00    +0.028 A 
ATOM     10  C   LIG    1        1.222   2.142   0.002  0.00  0.00    +0.077 A 
ATOM     11  N   LIG    1        2.371   1.426  -0.013  0.00  0.00    -0.222 NA
ATOM     12  C   LIG    1        2.372   0.117  -0.020  0.00  0.00    +0.192 A 
ATOM     13  N   LIG    1        1.222  -0.624  -0.013  0.00  0.00    -0.188 N 
ATOM     14  N   LIG    1        0.955  -2.000  -0.017  0.00  0.00    -0.148 NA
ENDROOT
BRANCH  12  15
ATOM     15  S   LIG    1        3.920  -0.726  -0.040  0.00  0.00    -0.081 S 
BRANCH  15  16
ATOM     16  C   LIG    1        5.048   0.689  -0.043  0.00  0.00    +0.112 C 
BRANCH  16  17
ATOM     17  C   LIG    1        6.472   0.196  -0.060  0.00  0.00    -0.034 A 
ATOM     18  C   LIG    1        7.156  -0.038   1.123  0.00  0.00    +0.024 A 
ATOM     19  C   LIG    1        8.460  -0.494   1.068  0.00  0.00    +0.111 A 
ATOM     20  N   LIG    1        9.055  -0.698  -0.091  0.00  0.00    -0.263 NA
ATOM     21  C   LIG    1        8.437  -0.482  -1.235  0.00  0.00    +0.111 A 
ATOM     22  C   LIG    1        7.131  -0.030  -1.259  0.00  0.00    +0.024 A 
ENDBRANCH  16  17
ENDBRANCH  15  16
ENDBRANCH  12  15
TORSDOF 3
