REMARK  Name = ZINC00395455
REMARK                            x       y       z     vdW  Elec       q    Type
REMARK                         _______ _______ _______ _____ _____    ______ ____
ROOT
ATOM      1  N   LIG    1       -0.118   0.554  -4.701  0.00  0.00    -0.269 N 
ATOM      2  H   LIG    1        0.941   0.260  -4.642  0.00  0.00    +0.156 HD
ATOM      3  C   LIG    1       -0.714   1.142  -3.645  0.00  0.00    +0.304 C 
ATOM      4  N   LIG    1       -0.046   1.273  -2.481  0.00  0.00    -0.296 N 
ATOM      5  H   LIG    1        0.985   0.900  -2.394  0.00  0.00    +0.151 HD
ATOM      6  O   LIG    1       -1.853   1.554  -3.742  0.00  0.00    -0.253 OA
ENDROOT
BRANCH   1  10
ATOM      7  C   LIG    1       -2.286  -0.152  -8.192  0.00  0.00    +0.120 A 
ATOM      8  C   LIG    1       -0.933   0.147  -8.265  0.00  0.00    +0.047 A 
ATOM      9  C   LIG    1       -0.215   0.381  -7.109  0.00  0.00    +0.027 A 
ATOM     10  C   LIG    1       -0.847   0.317  -5.874  0.00  0.00    +0.035 A 
ATOM     11  C   LIG    1       -2.199   0.012  -5.802  0.00  0.00    +0.027 A 
ATOM     12  C   LIG    1       -2.918  -0.216  -6.959  0.00  0.00    +0.047 A 
BRANCH   7  14
ATOM     13  C   LIG    1       -4.382  -0.685  -9.182  0.00  0.00    +0.277 C 
ATOM     14  O   LIG    1       -2.993  -0.382  -9.331  0.00  0.00    -0.495 OA
ENDBRANCH   7  14
ENDBRANCH   1  10
BRANCH   4  15
ATOM     15  C   LIG    1       -0.694   1.913  -1.333  0.00  0.00    +0.074 C 
ATOM     16  C   LIG    1       -0.050   1.411  -0.040  0.00  0.00    +0.022 C 
ATOM     17  C   LIG    1       -0.726   2.079   1.159  0.00  0.00    +0.002 C 
ATOM     18  C   LIG    1       -0.557   3.596   1.060  0.00  0.00    +0.000 C 
ATOM     19  C   LIG    1       -1.201   4.098  -0.233  0.00  0.00    +0.002 C 
ATOM     20  C   LIG    1       -0.525   3.430  -1.432  0.00  0.00    +0.022 C 
ENDBRANCH   4  15
TORSDOF 3
