REMARK  Name = ZINC00402702
REMARK                            x       y       z     vdW  Elec       q    Type
REMARK                         _______ _______ _______ _____ _____    ______ ____
ROOT
ATOM      1  C   LIG    1       -0.018   1.503   0.010  0.00  0.00    +0.010 C 
ATOM      2  C   LIG    1        0.002  -0.004   0.002  0.00  0.00    +0.017 C 
ATOM      3  C   LIG    1        0.006  -0.699  -1.194  0.00  0.00    +0.007 C 
ATOM      4  C   LIG    1        0.025  -2.086  -1.155  0.00  0.00    +0.015 C 
ATOM      5  C   LIG    1        0.039  -2.728   0.068  0.00  0.00    +0.082 C 
ATOM      6  N   LIG    1        0.035  -2.040   1.193  0.00  0.00    -0.301 NA
ATOM      7  H   LIG    1        0.045  -2.515   2.038  0.00  0.00    +0.123 HD
ATOM      8  C   LIG    1        0.023  -0.715   1.197  0.00  0.00    +0.122 C 
ENDROOT
BRANCH   8   9
ATOM      9  N   LIG    1        0.025  -0.030   2.407  0.00  0.00    -0.315 NA
ATOM     10  H   LIG    1        0.040  -0.522   3.243  0.00  0.00    +0.120 HD
ATOM     11  H   LIG    1        0.012   0.940   2.415  0.00  0.00    +0.120 HD
ENDBRANCH   8   9
TORSDOF 1
