REMARK  Name = ZINC00617116
REMARK                            x       y       z     vdW  Elec       q    Type
REMARK                         _______ _______ _______ _____ _____    ______ ____
ROOT
ATOM      1  C   LIG    1       -0.916  -1.527  -1.168  0.00  0.00    +0.248 C 
ATOM      2  N   LIG    1       -1.245  -2.108   0.002  0.00  0.00    -0.277 N 
ATOM      3  H   LIG    1       -0.653  -2.029   0.766  0.00  0.00    +0.155 HD
ATOM      4  O   LIG    1       -1.609  -1.704  -2.151  0.00  0.00    -0.270 OA
ENDROOT
BRANCH   2   5
ATOM      5  C   LIG    1       -2.442  -2.828   0.115  0.00  0.00    +0.105 A 
ATOM      6  C   LIG    1       -3.621  -2.170   0.447  0.00  0.00    +0.147 A 
ATOM      7  F   LIG    1       -3.614  -0.837   0.662  0.00  0.00    -0.203 F 
ATOM      8  C   LIG    1       -4.802  -2.883   0.552  0.00  0.00    +0.040 A 
ATOM      9  C   LIG    1       -4.809  -4.249   0.338  0.00  0.00    +0.006 A 
ATOM     10  C   LIG    1       -3.637  -4.907   0.013  0.00  0.00    +0.040 A 
ATOM     11  C   LIG    1       -2.453  -4.201  -0.099  0.00  0.00    +0.147 A 
ATOM     12  F   LIG    1       -1.309  -4.845  -0.417  0.00  0.00    -0.203 F 
ENDBRANCH   2   5
BRANCH   1  16
ATOM     13  C   LIG    1        2.546   0.925  -1.417  0.00  0.00    +0.162 A 
ATOM     14  C   LIG    1        2.205   0.325  -0.213  0.00  0.00    +0.050 A 
ATOM     15  C   LIG    1        1.084  -0.470  -0.128  0.00  0.00    +0.017 A 
ATOM     16  C   LIG    1        0.286  -0.675  -1.257  0.00  0.00    +0.041 A 
ATOM     17  C   LIG    1        0.628  -0.071  -2.470  0.00  0.00    +0.062 A 
ATOM     18  C   LIG    1        1.754   0.725  -2.547  0.00  0.00    +0.162 A 
BRANCH  13  20
ATOM     19  C   LIG    1        4.418   1.870  -0.300  0.00  0.00    +0.277 C 
ATOM     20  O   LIG    1        3.653   1.708  -1.496  0.00  0.00    -0.491 OA
ENDBRANCH  13  20
BRANCH  18  21
ATOM     21  O   LIG    1        2.091   1.314  -3.726  0.00  0.00    -0.491 OA
ATOM     22  C   LIG    1        1.235   1.066  -4.843  0.00  0.00    +0.277 C 
ENDBRANCH  18  21
ENDBRANCH   1  16
TORSDOF 4
