REMARK  Name = ZINC00521892
REMARK                            x       y       z     vdW  Elec       q    Type
REMARK                         _______ _______ _______ _____ _____    ______ ____
ROOT
ATOM      1  C   LIG    1        0.010   4.155   0.022  0.00  0.00    +0.142 A 
ATOM      2  C   LIG    1       -1.210   3.552   0.030  0.00  0.00    +0.098 A 
ATOM      3  C   LIG    1       -1.288   2.140   0.020  0.00  0.00    +0.193 A 
ATOM      4  C   LIG    1       -0.017   1.390   0.010  0.00  0.00    +0.065 A 
ATOM      5  C   LIG    1        0.002  -0.004   0.002  0.00  0.00    +0.035 A 
ATOM      6  C   LIG    1        1.211  -0.668  -0.013  0.00  0.00    +0.042 A 
ATOM      7 CL   LIG    1        1.244  -2.404  -0.022  0.00  0.00    -0.084 Cl
ATOM      8  C   LIG    1        2.401   0.046  -0.021  0.00  0.00    +0.023 A 
ATOM      9  C   LIG    1        2.394   1.425  -0.013  0.00  0.00    +0.048 A 
ATOM     10  C   LIG    1        1.186   2.112   0.002  0.00  0.00    +0.139 A 
ATOM     11  O   LIG    1       -2.364   1.565   0.022  0.00  0.00    -0.287 OA
ATOM     12  O   LIG    1        1.159   3.462   0.009  0.00  0.00    -0.455 OA
ENDROOT
BRANCH   1  18
ATOM     13  C   LIG    1       -0.620   7.745  -0.875  0.00  0.00    +0.001 A 
ATOM     14  C   LIG    1        0.188   8.398   0.040  0.00  0.00    +0.003 A 
ATOM     15  C   LIG    1        0.939   7.677   0.949  0.00  0.00    +0.039 A 
ATOM     16  C   LIG    1        0.887   6.295   0.951  0.00  0.00    +0.134 A 
ATOM     17  F   LIG    1        1.621   5.590   1.839  0.00  0.00    -0.205 F 
ATOM     18  C   LIG    1        0.072   5.629   0.029  0.00  0.00    +0.053 A 
ATOM     19  C   LIG    1       -0.678   6.368  -0.890  0.00  0.00    +0.014 A 
ENDBRANCH   1  18
TORSDOF 1
