REMARK  Name = ZINC00551310
REMARK                            x       y       z     vdW  Elec       q    Type
REMARK                         _______ _______ _______ _____ _____    ______ ____
ROOT
ATOM      1  C   LIG    1       -0.018   1.503   0.010  0.00  0.00    +0.044 C 
ATOM      2  C   LIG    1        0.002  -0.004   0.002  0.00  0.00    -0.050 A 
ATOM      3  C   LIG    1        0.006  -0.686  -1.207  0.00  0.00    +0.005 A 
ATOM      4  C   LIG    1        0.024  -2.063  -1.236  0.00  0.00    +0.026 A 
ATOM      5  C   LIG    1        0.040  -2.780  -0.045  0.00  0.00    +0.047 A 
ATOM      6  C   LIG    1        0.036  -2.084   1.179  0.00  0.00    +0.003 A 
ATOM      7  C   LIG    1        0.055  -3.108   2.219  0.00  0.00    -0.018 A 
ATOM      8  C   LIG    1        0.068  -4.306   1.604  0.00  0.00    +0.032 A 
ATOM      9  C   LIG    1        0.091  -5.626   2.341  0.00  0.00    +0.121 C 
ATOM     10  C   LIG    1        0.516  -5.367   3.791  0.00  0.00    +0.019 C 
ATOM     11  C   LIG    1       -0.332  -4.237   4.379  0.00  0.00    +0.006 C 
ATOM     12  C   LIG    1        0.057  -2.911   3.713  0.00  0.00    +0.037 C 
ATOM     13  N   LIG    1        0.060  -4.126   0.250  0.00  0.00    -0.357 N 
ATOM     14  H   LIG    1        0.066  -4.840  -0.407  0.00  0.00    +0.166 HD
ATOM     15  C   LIG    1        0.023  -0.688   1.184  0.00  0.00    +0.013 A 
ENDROOT
BRANCH   9  16
ATOM     16  C   LIG    1        1.073  -6.558   1.679  0.00  0.00    +0.219 C 
ATOM     17  N   LIG    1        1.260  -7.799   2.170  0.00  0.00    -0.329 N 
ATOM     18  H   LIG    1        1.892  -8.399   1.744  0.00  0.00    +0.145 HD
ATOM     19  H   LIG    1        0.761  -8.093   2.949  0.00  0.00    +0.145 HD
ATOM     20  O   LIG    1        1.696  -6.191   0.705  0.00  0.00    -0.275 OA
ENDBRANCH   9  16
TORSDOF 1
