REMARK  Name = ZINC00356680
REMARK                            x       y       z     vdW  Elec       q    Type
REMARK                         _______ _______ _______ _____ _____    ______ ____
ROOT
ATOM      1  C   LIG    1       -2.245  -1.431  -5.926  0.00  0.00    +0.138 C 
ATOM      2  N   LIG    1       -1.638  -1.854  -6.992  0.00  0.00    -0.187 NA
ENDROOT
BRANCH   1   6
ATOM      3  C   LIG    1       -0.037  -0.712  -2.371  0.00  0.00    +0.030 A 
ATOM      4  C   LIG    1       -1.411  -0.493  -2.391  0.00  0.00    +0.024 A 
ATOM      5  C   LIG    1       -2.130  -0.725  -3.542  0.00  0.00    +0.011 A 
ATOM      6  C   LIG    1       -1.479  -1.181  -4.692  0.00  0.00    -0.005 A 
ATOM      7  C   LIG    1       -0.098  -1.400  -4.668  0.00  0.00    +0.011 A 
ATOM      8  C   LIG    1        0.615  -1.161  -3.514  0.00  0.00    +0.024 A 
BRANCH   3   9
ATOM      9  N   LIG    1        0.688  -0.476  -1.203  0.00  0.00    -0.330 N 
BRANCH   9  11
ATOM     10  C   LIG    1       -0.019   1.526   0.010  0.00  0.00    +0.024 C 
ATOM     11  C   LIG    1        0.002  -0.004   0.002  0.00  0.00    +0.102 C 
ENDBRANCH   9  11
BRANCH   9  12
ATOM     12  C   LIG    1        2.135  -0.701  -1.182  0.00  0.00    +0.102 C 
ATOM     13  C   LIG    1        2.421  -2.145  -0.763  0.00  0.00    +0.024 C 
ENDBRANCH   9  12
ENDBRANCH   3   9
ENDBRANCH   1   6
BRANCH   2  14
ATOM     14  N   LIG    1       -2.367  -2.091  -8.165  0.00  0.00    -0.203 N 
ATOM     15  H   LIG    1       -3.325  -1.939  -8.180  0.00  0.00    +0.178 HD
ATOM     16  C   LIG    1       -1.737  -2.531  -9.273  0.00  0.00    +0.263 C 
ATOM     17  O   LIG    1       -0.536  -2.721  -9.254  0.00  0.00    -0.268 OA
BRANCH  16  18
ATOM     18  C   LIG    1       -2.504  -2.781 -10.508  0.00  0.00    +0.039 A 
ATOM     19  C   LIG    1       -3.884  -2.557 -10.533  0.00  0.00    +0.016 A 
ATOM     20  C   LIG    1       -4.596  -2.792 -11.688  0.00  0.00    +0.046 A 
ATOM     21  C   LIG    1       -3.945  -3.250 -12.827  0.00  0.00    +0.117 A 
ATOM     22  C   LIG    1       -2.574  -3.474 -12.806  0.00  0.00    +0.046 A 
ATOM     23  C   LIG    1       -1.853  -3.237 -11.657  0.00  0.00    +0.016 A 
BRANCH  21  24
ATOM     24  O   LIG    1       -4.651  -3.481 -13.963  0.00  0.00    -0.507 OA
ATOM     25  H   LIG    1       -4.716  -2.714 -14.549  0.00  0.00    +0.292 HD
ENDBRANCH  21  24
ENDBRANCH  16  18
ENDBRANCH   2  14
TORSDOF 7
