REMARK  Name = ZINC00366897
REMARK                            x       y       z     vdW  Elec       q    Type
REMARK                         _______ _______ _______ _____ _____    ______ ____
ROOT
ATOM      1  S   LIG    1        0.295  -0.342   2.763  0.00  0.00    -0.078 S 
ENDROOT
BRANCH   1   7
ATOM      2  C   LIG    1        0.014   1.461   0.007  0.00  0.00    +0.153 C 
ATOM      3  N   LIG    1        0.016  -0.004   0.001  0.00  0.00    -0.305 N 
ATOM      4  C   LIG    1       -0.087  -0.831  -1.094  0.00  0.00    +0.165 A 
ATOM      5  N   LIG    1       -0.042  -2.065  -0.651  0.00  0.00    -0.128 NA
ATOM      6  N   LIG    1        0.081  -2.067   0.629  0.00  0.00    -0.122 NA
ATOM      7  C   LIG    1        0.127  -0.834   1.080  0.00  0.00    +0.192 A 
BRANCH   4   8
ATOM      8  C   LIG    1       -0.223  -0.408  -2.504  0.00  0.00    +0.019 A 
ATOM      9  C   LIG    1        0.142   0.883  -2.888  0.00  0.00    +0.011 A 
ATOM     10  C   LIG    1        0.013   1.271  -4.205  0.00  0.00    +0.001 A 
ATOM     11  C   LIG    1       -0.479   0.383  -5.146  0.00  0.00    +0.000 A 
ATOM     12  C   LIG    1       -0.844  -0.898  -4.772  0.00  0.00    +0.001 A 
ATOM     13  C   LIG    1       -0.713  -1.301  -3.459  0.00  0.00    +0.011 A 
ENDBRANCH   4   8
ENDBRANCH   1   7
BRANCH   1  14
ATOM     14  C   LIG    1        0.390  -1.910   3.671  0.00  0.00    +0.157 C 
BRANCH  14  15
ATOM     15  C   LIG    1        0.538  -1.629   5.144  0.00  0.00    +0.173 C 
ATOM     16  O   LIG    1        0.575  -0.484   5.543  0.00  0.00    -0.291 OA
BRANCH  15  17
ATOM     17  C   LIG    1        0.637  -2.742   6.098  0.00  0.00    +0.022 A 
ATOM     18  C   LIG    1        0.600  -4.064   5.639  0.00  0.00    +0.015 A 
ATOM     19  C   LIG    1        0.693  -5.106   6.535  0.00  0.00    +0.050 A 
ATOM     20  C   LIG    1        0.824  -4.848   7.894  0.00  0.00    +0.158 A 
ATOM     21  C   LIG    1        0.861  -3.534   8.358  0.00  0.00    +0.159 A 
ATOM     22  C   LIG    1        0.774  -2.483   7.467  0.00  0.00    +0.060 A 
BRANCH  20  23
ATOM     23  O   LIG    1        0.914  -5.879   8.772  0.00  0.00    -0.503 OA
ATOM     24  H   LIG    1        1.820  -6.173   8.941  0.00  0.00    +0.292 HD
ENDBRANCH  20  23
BRANCH  21  25
ATOM     25  O   LIG    1        0.989  -3.286   9.690  0.00  0.00    -0.503 OA
ATOM     26  H   LIG    1        1.905  -3.210   9.990  0.00  0.00    +0.292 HD
ENDBRANCH  21  25
ENDBRANCH  15  17
ENDBRANCH  14  15
ENDBRANCH   1  14
TORSDOF 7
