REMARK  Name = ZINC00597802
REMARK                            x       y       z     vdW  Elec       q    Type
REMARK                         _______ _______ _______ _____ _____    ______ ____
ROOT
ATOM      1  N   LIG    1        2.430  -5.721  -3.188  0.00  0.00    +0.381 N 
ATOM      2  H   LIG    1        2.277  -6.263  -2.330  0.00  0.00    -0.082 HD
ATOM      3  C   LIG    1        1.608  -6.298  -4.273  0.00  0.00    -0.078 C 
ATOM      4  C   LIG    1        1.954  -7.781  -4.423  0.00  0.00    -0.015 C 
ATOM      5  C   LIG    1        3.439  -7.921  -4.770  0.00  0.00    -0.010 C 
ATOM      6  C   LIG    1        4.276  -7.254  -3.676  0.00  0.00    -0.015 C 
ATOM      7  C   LIG    1        3.863  -5.786  -3.547  0.00  0.00    -0.078 C 
ENDROOT
BRANCH   1   8
ATOM      8  C   LIG    1        2.035  -4.318  -2.946  0.00  0.00    -0.058 C 
BRANCH   8   9
ATOM      9  C   LIG    1        2.738  -3.818  -1.683  0.00  0.00    +0.114 C 
BRANCH   9  15
ATOM     10  C   LIG    1       -0.869  -2.160   0.517  0.00  0.00    +0.002 A 
ATOM     11  C   LIG    1       -0.971  -0.779   0.584  0.00  0.00    +0.005 A 
ATOM     12  C   LIG    1        0.002  -0.004   0.002  0.00  0.00    -0.023 A 
ATOM     13  C   LIG    1        1.082  -0.619  -0.641  0.00  0.00    +0.078 A 
ATOM     14  C   LIG    1        1.194  -1.989  -0.721  0.00  0.00    +0.075 A 
ATOM     15  N   LIG    1        2.339  -2.434  -1.417  0.00  0.00    -0.191 N 
ATOM     16  S   LIG    1        3.140  -1.036  -1.873  0.00  0.00    +0.129 S 
ATOM     17  O   LIG    1        3.068  -0.941  -3.289  0.00  0.00    -0.135 OA
ATOM     18  O   LIG    1        4.360  -0.982  -1.146  0.00  0.00    -0.135 OA
ATOM     19  N   LIG    1        2.131   0.110  -1.242  0.00  0.00    -0.188 N 
ATOM     20  C   LIG    1        2.189   1.564  -1.226  0.00  0.00    +0.133 C 
ATOM     21  C   LIG    1        1.406   2.058  -0.000  0.00  0.00    +0.025 C 
ATOM     22  C   LIG    1       -0.018   1.501   0.010  0.00  0.00    +0.039 C 
ATOM     23  C   LIG    1        0.193  -2.764  -0.125  0.00  0.00    +0.027 A 
ENDBRANCH   9  15
ENDBRANCH   8   9
ENDBRANCH   1   8
BRANCH   5  24
ATOM     24  C   LIG    1        3.804  -9.404  -4.864  0.00  0.00    +0.040 C 
BRANCH  24  25
ATOM     25  C   LIG    1        5.232  -9.541  -5.325  0.00  0.00    -0.022 A 
ATOM     26  C   LIG    1        5.648  -9.732  -6.587  0.00  0.00    +0.087 A 
ATOM     27  N   LIG    1        7.014  -9.806  -6.622  0.00  0.00    -0.360 N 
ATOM     28  C   LIG    1        7.523  -9.671  -5.348  0.00  0.00    +0.047 A 
ATOM     29  C   LIG    1        8.813  -9.676  -4.829  0.00  0.00    +0.029 A 
ATOM     30  C   LIG    1        9.010  -9.514  -3.475  0.00  0.00    +0.040 A 
ATOM     31  C   LIG    1        7.930  -9.345  -2.617  0.00  0.00    +0.124 A 
ATOM     32  F   LIG    1        8.142  -9.187  -1.292  0.00  0.00    -0.205 F 
ATOM     33  C   LIG    1        6.643  -9.336  -3.111  0.00  0.00    +0.048 A 
ATOM     34  H   LIG    1        7.545  -9.938  -7.423  0.00  0.00    +0.165 HD
ATOM     35  C   LIG    1        6.428  -9.499  -4.481  0.00  0.00    +0.006 A 
ENDBRANCH  24  25
ENDBRANCH   5  24
TORSDOF 5
