REMARK  Name = ZINC00392017
REMARK                            x       y       z     vdW  Elec       q    Type
REMARK                         _______ _______ _______ _____ _____    ______ ____
ROOT
ATOM      1  C   LIG    1       -1.199  -0.637   0.010  0.00  0.00    +0.162 A 
ATOM      2  C   LIG    1       -2.373   0.105   0.019  0.00  0.00    +0.050 A 
ATOM      3  C   LIG    1       -3.594  -0.531   0.027  0.00  0.00    +0.019 A 
ATOM      4  C   LIG    1       -3.654  -1.928   0.026  0.00  0.00    +0.063 A 
ATOM      5  C   LIG    1       -2.471  -2.676   0.016  0.00  0.00    +0.064 A 
ATOM      6  C   LIG    1       -1.251  -2.030   0.003  0.00  0.00    +0.162 A 
ENDROOT
BRANCH   1   8
ATOM      7  C   LIG    1       -0.017   1.425   0.010  0.00  0.00    +0.277 C 
ATOM      8  O   LIG    1        0.002  -0.004   0.002  0.00  0.00    -0.491 OA
ENDBRANCH   1   8
BRANCH   4   9
ATOM      9  C   LIG    1       -4.959  -2.611   0.034  0.00  0.00    +0.337 C 
ATOM     10  O   LIG    1       -5.992  -1.956   0.043  0.00  0.00    -0.245 OA
BRANCH   9  11
ATOM     11  O   LIG    1       -5.009  -3.833   0.033  0.00  0.00    -0.477 OA
ATOM     12  H   LIG    1       -4.218  -4.335   0.026  0.00  0.00    +0.295 HD
ENDBRANCH   9  11
ENDBRANCH   4   9
BRANCH   6  13
ATOM     13  O   LIG    1       -0.099  -2.754  -0.012  0.00  0.00    -0.491 OA
ATOM     14  C   LIG    1       -0.227  -4.177  -0.018  0.00  0.00    +0.277 C 
ENDBRANCH   6  13
TORSDOF 4
