REMARK  Name = ZINC00595076
REMARK                            x       y       z     vdW  Elec       q    Type
REMARK                         _______ _______ _______ _____ _____    ______ ____
ROOT
ATOM      1  C   LIG    1       -0.403   1.624  -0.277  0.00  0.00    +0.076 C 
ENDROOT
BRANCH   1   5
ATOM      2  N   LIG    1       -2.785   3.143  -2.592  0.00  0.00    -0.209 N 
ATOM      3  C   LIG    1       -1.910   2.608  -3.469  0.00  0.00    +0.344 A 
ATOM      4  N   LIG    1       -0.945   1.996  -2.754  0.00  0.00    -0.293 N 
ATOM      5  C   LIG    1       -1.230   2.155  -1.420  0.00  0.00    +0.132 A 
ATOM      6  H   LIG    1       -0.181   1.523  -3.119  0.00  0.00    +0.172 HD
ATOM      7  O   LIG    1       -1.979   2.668  -4.684  0.00  0.00    -0.245 OA
ATOM      8  N   LIG    1       -2.326   2.832  -1.304  0.00  0.00    -0.154 NA
BRANCH   2   9
ATOM      9  C   LIG    1       -3.993   3.902  -2.923  0.00  0.00    +0.184 C 
BRANCH   9  14
ATOM     10  C   LIG    1       -8.468   0.281  -3.423  0.00  0.00    +0.044 C 
ATOM     11  C   LIG    1       -7.302   1.226  -3.293  0.00  0.00    -0.050 A 
ATOM     12  C   LIG    1       -7.003   1.790  -2.067  0.00  0.00    +0.004 A 
ATOM     13  C   LIG    1       -5.933   2.657  -1.948  0.00  0.00    +0.006 A 
ATOM     14  C   LIG    1       -5.160   2.958  -3.054  0.00  0.00    -0.026 A 
ATOM     15  C   LIG    1       -5.462   2.397  -4.281  0.00  0.00    +0.006 A 
ATOM     16  C   LIG    1       -6.530   1.528  -4.399  0.00  0.00    +0.004 A 
ENDBRANCH   9  14
ENDBRANCH   2   9
ENDBRANCH   1   5
BRANCH   1  17
ATOM     17  C   LIG    1       -1.056   2.014   1.050  0.00  0.00    +0.012 C 
BRANCH  17  18
ATOM     18  C   LIG    1       -0.217   1.474   2.210  0.00  0.00    +0.035 C 
BRANCH  18  19
ATOM     19  C   LIG    1       -0.860   1.858   3.517  0.00  0.00    -0.047 A 
ATOM     20  C   LIG    1       -0.516   3.048   4.132  0.00  0.00    +0.007 A 
ATOM     21  C   LIG    1       -1.109   3.405   5.328  0.00  0.00    +0.046 A 
ATOM     22  C   LIG    1       -2.042   2.564   5.917  0.00  0.00    +0.122 A 
ATOM     23  C   LIG    1       -2.381   1.368   5.301  0.00  0.00    +0.046 A 
ATOM     24  C   LIG    1       -1.790   1.018   4.102  0.00  0.00    +0.007 A 
BRANCH  22  25
ATOM     25  O   LIG    1       -2.622   2.911   7.096  0.00  0.00    -0.475 OA
BRANCH  25  26
ATOM     26  C   LIG    1       -2.136   4.092   7.736  0.00  0.00    +0.200 C 
ATOM     27  C   LIG    1       -0.637   3.945   8.008  0.00  0.00    +0.067 C 
ATOM     28  C   LIG    1       -2.877   4.298   9.059  0.00  0.00    +0.067 C 
BRANCH  26  29
ATOM     29  C   LIG    1       -2.369   5.281   6.840  0.00  0.00    +0.348 C 
ATOM     30  O   LIG    1       -2.897   5.132   5.763  0.00  0.00    -0.247 OA
BRANCH  29  31
ATOM     31  O   LIG    1       -1.989   6.506   7.237  0.00  0.00    -0.478 OA
ATOM     32  H   LIG    1       -1.580   6.621   8.072  0.00  0.00    +0.295 HD
ENDBRANCH  29  31
ENDBRANCH  26  29
ENDBRANCH  25  26
ENDBRANCH  22  25
ENDBRANCH  18  19
ENDBRANCH  17  18
ENDBRANCH   1  17
TORSDOF 10
