REMARK  Name = ZINC00402771
REMARK                            x       y       z     vdW  Elec       q    Type
REMARK                         _______ _______ _______ _____ _____    ______ ____
ROOT
ATOM      1  S   LIG    1        1.177  -2.451  -0.022  0.00  0.00    +0.061 S 
ATOM      2  O   LIG    1       -0.189  -2.830   0.069  0.00  0.00    -0.153 OA
ATOM      3  O   LIG    1        2.154  -2.889   0.913  0.00  0.00    -0.153 OA
ENDROOT
BRANCH   1   8
ATOM      4  C   LIG    1        1.929   1.386  -0.964  0.00  0.00    +0.003 A 
ATOM      5  C   LIG    1        1.295   2.104   0.003  0.00  0.00    +0.010 A 
ATOM      6  C   LIG    1        0.590   1.435   1.017  0.00  0.00    +0.002 A 
ATOM      7  C   LIG    1        0.549   0.018   1.016  0.00  0.00    +0.010 A 
ATOM      8  C   LIG    1        1.214  -0.689   0.000  0.00  0.00    +0.113 A 
ATOM      9  C   LIG    1       -0.157  -0.652   2.030  0.00  0.00    +0.010 A 
ATOM     10  C   LIG    1       -0.789   0.066   2.998  0.00  0.00    +0.002 A 
ATOM     11  C   LIG    1       -0.750   1.459   3.000  0.00  0.00    +0.020 A 
ATOM     12  C   LIG    1       -0.077   2.143   2.033  0.00  0.00    +0.049 A 
ATOM     13 CL   LIG    1       -0.041   3.878   2.056  0.00  0.00    -0.083 Cl
ATOM     14  C   LIG    1        1.888  -0.007  -0.965  0.00  0.00    +0.029 A 
ENDBRANCH   1   8
BRANCH   1  15
ATOM     15  N   LIG    1        1.703  -2.933  -1.516  0.00  0.00    -0.178 NA
ATOM     16  C   LIG    1        0.783  -3.034  -2.618  0.00  0.00    +0.107 C 
ATOM     17  C   LIG    1        0.114  -4.412  -2.823  0.00  0.00    -0.002 C 
ATOM     18  C   LIG    1        1.151  -5.542  -2.618  0.00  0.00    -0.081 C 
ATOM     19  N   LIG    1        2.423  -5.147  -3.176  0.00  0.00    +0.380 N 
ATOM     20  H   LIG    1        2.300  -4.384  -3.825  0.00  0.00    -0.086 HD
ATOM     21  H   LIG    1        2.867  -5.930  -3.630  0.00  0.00    -0.086 HD
ATOM     22  C   LIG    1        3.207  -4.714  -2.023  0.00  0.00    -0.065 C 
ATOM     23  C   LIG    1        3.150  -3.266  -1.746  0.00  0.00    +0.090 C 
ENDBRANCH   1  15
TORSDOF 2
