REMARK  Name = ZINC00491073
REMARK                            x       y       z     vdW  Elec       q    Type
REMARK                         _______ _______ _______ _____ _____    ______ ____
ROOT
ATOM      1  C   LIG    1       -0.018   1.465   0.010  0.00  0.00    -0.096 C 
ATOM      2  N   LIG    1        0.002  -0.004   0.002  0.00  0.00    +0.381 N 
ATOM      3  H   LIG    1        0.512  -0.311  -0.813  0.00  0.00    -0.082 HD
ATOM      4  C   LIG    1       -1.349  -0.477  -0.105  0.00  0.00    -0.077 C 
ATOM      5  C   LIG    1       -1.496  -1.821  -0.755  0.00  0.00    +0.001 C 
ATOM      6  C   LIG    1       -1.199  -2.961   0.198  0.00  0.00    +0.053 C 
ATOM      7  C   LIG    1       -2.077  -2.907   1.404  0.00  0.00    -0.014 C 
ATOM      8  C   LIG    1       -2.921  -3.819   1.753  0.00  0.00    +0.001 C 
ATOM      9  C   LIG    1       -3.138  -5.086   0.990  0.00  0.00    +0.141 C 
ATOM     10  C   LIG    1       -2.620  -4.984  -0.430  0.00  0.00    +0.081 C 
ATOM     11  C   LIG    1        0.253  -2.933   0.643  0.00  0.00    +0.013 A 
ATOM     12  C   LIG    1        1.022  -1.927   1.141  0.00  0.00    -0.056 A 
ATOM     13  C   LIG    1        2.312  -2.279   1.567  0.00  0.00    +0.006 A 
ATOM     14  C   LIG    1        2.800  -3.556   1.429  0.00  0.00    +0.049 A 
ATOM     15  C   LIG    1        2.030  -4.576   0.883  0.00  0.00    +0.162 A 
ATOM     16  C   LIG    1        0.723  -4.246   0.501  0.00  0.00    +0.167 A 
ATOM     17  O   LIG    1       -0.223  -5.079   0.015  0.00  0.00    -0.484 OA
ATOM     18  C   LIG    1       -1.287  -4.297  -0.542  0.00  0.00    +0.191 C 
ATOM     19  C   LIG    1        0.707  -0.460   1.183  0.00  0.00    -0.043 C 
ENDROOT
BRANCH   9  20
ATOM     20  O   LIG    1       -2.459  -6.153   1.656  0.00  0.00    -0.388 OA
ATOM     21  H   LIG    1       -2.760  -6.305   2.562  0.00  0.00    +0.210 HD
ENDBRANCH   9  20
BRANCH  15  22
ATOM     22  O   LIG    1        2.521  -5.835   0.727  0.00  0.00    -0.491 OA
ATOM     23  C   LIG    1        3.867  -6.063   1.149  0.00  0.00    +0.277 C 
ENDBRANCH  15  22
TORSDOF 2
