REMARK  Name = ZINC00411286
REMARK                            x       y       z     vdW  Elec       q    Type
REMARK                         _______ _______ _______ _____ _____    ______ ____
ROOT
ATOM      1  C   LIG    1       -1.133  -2.220  -0.001  0.00  0.00    +0.054 A 
ATOM      2  C   LIG    1       -2.298  -3.089  -0.056  0.00  0.00    -0.025 A 
ATOM      3  C   LIG    1       -2.006  -4.406  -0.059  0.00  0.00    -0.005 A 
ATOM      4  C   LIG    1       -2.979  -5.543  -0.107  0.00  0.00    +0.043 C 
ATOM      5  C   LIG    1       -4.375  -4.998   0.228  0.00  0.00    +0.005 C 
ATOM      6  C   LIG    1       -4.628  -3.737  -0.604  0.00  0.00    +0.005 C 
ATOM      7  S   LIG    1       -0.240  -4.477   0.006  0.00  0.00    -0.078 S 
ATOM      8  C   LIG    1       -3.737  -2.597  -0.106  0.00  0.00    +0.037 C 
ATOM      9  C   LIG    1        0.114  -2.835   0.033  0.00  0.00    +0.074 A 
ENDROOT
BRANCH   9  10
ATOM     10  N   LIG    1        1.355  -2.235   0.081  0.00  0.00    -0.352 N 
ATOM     11  H   LIG    1        2.158  -2.777   0.028  0.00  0.00    +0.143 HD
ATOM     12  H   LIG    1        1.425  -1.271   0.167  0.00  0.00    +0.143 HD
ENDBRANCH   9  10
BRANCH   1  13
ATOM     13  C   LIG    1       -1.267  -0.764   0.010  0.00  0.00    +0.196 C 
ATOM     14  O   LIG    1       -1.373  -0.154  -1.039  0.00  0.00    -0.287 OA
BRANCH  13  21
ATOM     15  C   LIG    1       -1.286   1.364   1.306  0.00  0.00    +0.013 A 
ATOM     16  C   LIG    1       -1.293   2.042   2.507  0.00  0.00    +0.021 A 
ATOM     17  C   LIG    1       -1.286   1.340   3.701  0.00  0.00    +0.041 A 
ATOM     18 CL   LIG    1       -1.293   2.199   5.209  0.00  0.00    -0.084 Cl
ATOM     19  C   LIG    1       -1.272  -0.045   3.696  0.00  0.00    +0.021 A 
ATOM     20  C   LIG    1       -1.265  -0.734   2.501  0.00  0.00    +0.013 A 
ATOM     21  C   LIG    1       -1.273  -0.032   1.295  0.00  0.00    +0.022 A 
ENDBRANCH  13  21
ENDBRANCH   1  13
TORSDOF 3
