REMARK  Name = ZINC00643055
REMARK                            x       y       z     vdW  Elec       q    Type
REMARK                         _______ _______ _______ _____ _____    ______ ____
ROOT
ATOM      1  C   LIG    1       -2.941  -1.740  -1.438  0.00  0.00    +0.170 C 
ENDROOT
BRANCH   1   2
ATOM      2  C   LIG    1       -2.937  -2.550  -2.709  0.00  0.00    +0.001 A 
ATOM      3  C   LIG    1       -2.152  -2.156  -3.777  0.00  0.00    +0.009 A 
ATOM      4  C   LIG    1       -2.148  -2.898  -4.943  0.00  0.00    +0.020 A 
ATOM      5  C   LIG    1       -2.929  -4.037  -5.041  0.00  0.00    +0.042 A 
ATOM      6 CL   LIG    1       -2.924  -4.969  -6.506  0.00  0.00    -0.083 Cl
ATOM      7  C   LIG    1       -3.713  -4.431  -3.973  0.00  0.00    +0.040 A 
ATOM      8  C   LIG    1       -3.713  -3.690  -2.805  0.00  0.00    +0.048 A 
ATOM      9 CL   LIG    1       -4.694  -4.188  -1.461  0.00  0.00    -0.083 Cl
ENDBRANCH   1   2
BRANCH   1  10
ATOM     10  O   LIG    1       -1.715  -1.011  -1.334  0.00  0.00    -0.366 OA
BRANCH  10  11
ATOM     11  C   LIG    1       -1.293  -0.775   0.011  0.00  0.00    +0.196 C 
BRANCH  11  18
ATOM     12  C   LIG    1       -0.017   1.378   0.010  0.00  0.00    +0.007 A 
ATOM     13  C   LIG    1        1.171   2.086   0.002  0.00  0.00    +0.020 A 
ATOM     14  C   LIG    1        2.378   1.410  -0.013  0.00  0.00    +0.041 A 
ATOM     15 CL   LIG    1        3.870   2.298  -0.023  0.00  0.00    -0.084 Cl
ATOM     16  C   LIG    1        2.396   0.027  -0.021  0.00  0.00    +0.020 A 
ATOM     17  C   LIG    1        1.208  -0.679  -0.013  0.00  0.00    +0.007 A 
ATOM     18  C   LIG    1        0.002  -0.004   0.002  0.00  0.00    -0.022 A 
ENDBRANCH  11  18
ENDBRANCH  10  11
ENDBRANCH   1  10
BRANCH   1  19
ATOM     19  C   LIG    1       -4.116  -0.760  -1.462  0.00  0.00    +0.159 C 
BRANCH  19  20
ATOM     20  N   LIG    1       -4.191  -0.057  -0.179  0.00  0.00    -0.336 N 
ATOM     21  C   LIG    1       -4.892  -0.457   0.927  0.00  0.00    +0.104 A 
ATOM     22  C   LIG    1       -4.686   0.475   1.877  0.00  0.00    +0.101 A 
ATOM     23  N   LIG    1       -3.882   1.419   1.365  0.00  0.00    -0.352 N 
ATOM     24  H   LIG    1       -3.573   2.208   1.836  0.00  0.00    +0.166 HD
ATOM     25  C   LIG    1       -3.577   1.104   0.136  0.00  0.00    +0.173 A 
ENDBRANCH  19  20
ENDBRANCH   1  19
TORSDOF 6
