REMARK  Name = ZINC00370724
REMARK                            x       y       z     vdW  Elec       q    Type
REMARK                         _______ _______ _______ _____ _____    ______ ____
ROOT
ATOM      1  N   LIG    1       -2.649   0.718   2.504  0.00  0.00    -0.275 N 
ATOM      2  H   LIG    1       -1.827   1.205   2.672  0.00  0.00    +0.156 HD
ATOM      3  C   LIG    1       -3.387   0.265   3.537  0.00  0.00    +0.249 C 
ATOM      4  O   LIG    1       -4.417  -0.346   3.327  0.00  0.00    -0.270 OA
ENDROOT
BRANCH   1  10
ATOM      5  C   LIG    1       -2.523   0.850  -2.554  0.00  0.00    +0.045 C 
ATOM      6  C   LIG    1       -3.103   0.493  -1.210  0.00  0.00    -0.027 A 
ATOM      7  C   LIG    1       -4.255  -0.194  -1.103  0.00  0.00    -0.008 A 
ATOM      8  C   LIG    1       -5.140  -0.713  -2.207  0.00  0.00    +0.052 C 
ATOM      9  S   LIG    1       -4.482  -0.344   0.657  0.00  0.00    -0.078 S 
ATOM     10  C   LIG    1       -3.065   0.489   1.203  0.00  0.00    +0.085 A 
ATOM     11  C   LIG    1       -2.447   0.874   0.018  0.00  0.00    +0.068 A 
BRANCH  11  12
ATOM     12  C   LIG    1       -1.187   1.624   0.017  0.00  0.00    +0.244 C 
ATOM     13  N   LIG    1       -0.011   0.966   0.007  0.00  0.00    -0.325 N 
ATOM     14  H   LIG    1        0.822   1.462   0.002  0.00  0.00    +0.145 HD
ATOM     15  H   LIG    1        0.002  -0.004   0.002  0.00  0.00    +0.145 HD
ATOM     16  O   LIG    1       -1.204   2.841   0.023  0.00  0.00    -0.270 OA
ENDBRANCH  11  12
ENDBRANCH   1  10
BRANCH   3  17
ATOM     17  C   LIG    1       -2.944   0.509   4.923  0.00  0.00    +0.041 A 
ATOM     18  C   LIG    1       -1.757   1.205   5.167  0.00  0.00    +0.017 A 
ATOM     19  C   LIG    1       -1.347   1.436   6.462  0.00  0.00    +0.050 A 
ATOM     20  C   LIG    1       -2.106   0.970   7.527  0.00  0.00    +0.162 A 
ATOM     21  C   LIG    1       -3.288   0.270   7.291  0.00  0.00    +0.162 A 
ATOM     22  C   LIG    1       -3.707   0.039   5.995  0.00  0.00    +0.062 A 
BRANCH  20  23
ATOM     23  O   LIG    1       -1.696   1.196   8.802  0.00  0.00    -0.491 OA
ATOM     24  C   LIG    1       -0.475   1.920   8.971  0.00  0.00    +0.277 C 
ENDBRANCH  20  23
BRANCH  21  25
ATOM     25  O   LIG    1       -4.029  -0.186   8.337  0.00  0.00    -0.491 OA
ATOM     26  C   LIG    1       -5.229  -0.895   8.022  0.00  0.00    +0.277 C 
ENDBRANCH  21  25
ENDBRANCH   3  17
TORSDOF 5
