REMARK  Name = ZINC00602739
REMARK                            x       y       z     vdW  Elec       q    Type
REMARK                         _______ _______ _______ _____ _____    ______ ____
ROOT
ATOM      1  C   LIG    1        0.509   7.331   0.432  0.00  0.00    +0.071 A 
ATOM      2  C   LIG    1       -0.648   7.334  -0.351  0.00  0.00    +0.069 A 
ATOM      3  C   LIG    1       -0.980   6.040  -0.611  0.00  0.00    +0.130 A 
ATOM      4  N   LIG    1       -0.057   5.251   0.003  0.00  0.00    -0.218 N 
ATOM      5  N   LIG    1        0.864   6.089   0.645  0.00  0.00    -0.169 NA
ENDROOT
BRANCH   3   6
ATOM      6  N   LIG    1       -2.068   5.602  -1.366  0.00  0.00    -0.254 N 
ATOM      7  H   LIG    1       -2.221   4.653  -1.491  0.00  0.00    +0.158 HD
ATOM      8  C   LIG    1       -2.908   6.499  -1.920  0.00  0.00    +0.309 C 
ATOM      9  N   LIG    1       -3.960   6.077  -2.649  0.00  0.00    -0.268 N 
ATOM     10  H   LIG    1       -4.076   5.131  -2.829  0.00  0.00    +0.156 HD
ATOM     11  O   LIG    1       -2.716   7.690  -1.762  0.00  0.00    -0.252 OA
BRANCH   9  12
ATOM     12  C   LIG    1       -4.884   7.003  -3.146  0.00  0.00    +0.055 A 
ATOM     13  C   LIG    1       -4.460   8.262  -3.550  0.00  0.00    +0.025 A 
ATOM     14  C   LIG    1       -5.374   9.174  -4.040  0.00  0.00    +0.003 A 
ATOM     15  C   LIG    1       -6.712   8.835  -4.130  0.00  0.00    +0.021 A 
ATOM     16  C   LIG    1       -7.139   7.582  -3.728  0.00  0.00    +0.061 A 
ATOM     17 CL   LIG    1       -8.820   7.161  -3.843  0.00  0.00    -0.082 Cl
ATOM     18  C   LIG    1       -6.228   6.662  -3.241  0.00  0.00    +0.080 A 
ATOM     19 CL   LIG    1       -6.763   5.087  -2.745  0.00  0.00    -0.080 Cl
ENDBRANCH   9  12
ENDBRANCH   3   6
BRANCH   4  20
ATOM     20  C   LIG    1       -0.028   3.849  -0.010  0.00  0.00    +0.069 A 
ATOM     21  C   LIG    1       -1.216   3.130   0.002  0.00  0.00    +0.028 A 
ATOM     22  C   LIG    1       -1.189   1.749  -0.015  0.00  0.00    +0.004 A 
ATOM     23  C   LIG    1        0.019   1.079  -0.035  0.00  0.00    +0.023 A 
ATOM     24  C   LIG    1        1.211   1.792  -0.047  0.00  0.00    +0.027 A 
ATOM     25  C   LIG    1        1.187   3.180  -0.035  0.00  0.00    +0.050 A 
BRANCH  24  26
ATOM     26  N   LIG    1        2.432   1.115  -0.071  0.00  0.00    -0.358 N 
ATOM     27  H   LIG    1        3.264   1.614  -0.080  0.00  0.00    +0.142 HD
ATOM     28  H   LIG    1        2.448   0.145  -0.080  0.00  0.00    +0.142 HD
ENDBRANCH  24  26
ENDBRANCH   4  20
BRANCH   1  30
ATOM     29  C   LIG    1        0.437   9.159   2.107  0.00  0.00    +0.017 C 
ATOM     30  C   LIG    1        1.228   8.552   0.946  0.00  0.00    +0.006 C 
ATOM     31  C   LIG    1        1.353   9.582  -0.179  0.00  0.00    +0.017 C 
ATOM     32  C   LIG    1        2.623   8.156   1.432  0.00  0.00    +0.017 C 
ENDBRANCH   1  30
TORSDOF 5
