REMARK  Name = ZINC00444715
REMARK                            x       y       z     vdW  Elec       q    Type
REMARK                         _______ _______ _______ _____ _____    ______ ____
ROOT
ATOM      1  C   LIG    1        1.480  -2.240   2.621  0.00  0.00    +0.034 A 
ATOM      2  C   LIG    1        1.896  -1.294   3.551  0.00  0.00    +0.025 A 
ATOM      3  C   LIG    1        2.495  -1.695   4.730  0.00  0.00    +0.022 A 
ATOM      4  C   LIG    1        2.684  -3.038   4.992  0.00  0.00    +0.053 A 
ATOM      5 CL   LIG    1        3.438  -3.536   6.474  0.00  0.00    -0.083 Cl
ATOM      6  C   LIG    1        2.269  -3.996   4.063  0.00  0.00    +0.057 A 
ATOM      7  C   LIG    1        1.660  -3.590   2.876  0.00  0.00    +0.038 A 
ENDROOT
BRANCH   6   8
ATOM      8  C   LIG    1        2.471  -5.433   4.339  0.00  0.00    +0.230 A 
ATOM      9  N   LIG    1        3.022  -5.919   5.423  0.00  0.00    -0.209 NA
ATOM     10  C   LIG    1        3.041  -7.274   5.333  0.00  0.00    +0.110 A 
ATOM     11  C   LIG    1        3.499  -8.290   6.175  0.00  0.00    +0.035 A 
ATOM     12  C   LIG    1        3.373  -9.606   5.790  0.00  0.00    -0.048 A 
ATOM     13  C   LIG    1        3.867 -10.703   6.697  0.00  0.00    +0.044 C 
ATOM     14  C   LIG    1        2.794  -9.928   4.571  0.00  0.00    +0.007 A 
ATOM     15  C   LIG    1        2.337  -8.935   3.728  0.00  0.00    +0.049 A 
ATOM     16  C   LIG    1        2.455  -7.605   4.100  0.00  0.00    +0.156 A 
ATOM     17  O   LIG    1        2.110  -6.436   3.516  0.00  0.00    -0.435 OA
ENDBRANCH   6   8
BRANCH   1  19
ATOM     18  C   LIG    1       -0.114  -2.565   0.884  0.00  0.00    +0.217 C 
ATOM     19  N   LIG    1        0.874  -1.828   1.428  0.00  0.00    -0.285 N 
ATOM     20  H   LIG    1        1.165  -1.011   0.993  0.00  0.00    +0.155 HD
ATOM     21  O   LIG    1       -0.422  -3.628   1.381  0.00  0.00    -0.275 OA
BRANCH  18  23
ATOM     22  C   LIG    1       -1.903  -3.088  -0.751  0.00  0.00    +0.013 C 
ATOM     23  C   LIG    1       -0.837  -2.070  -0.342  0.00  0.00    +0.093 C 
ENDBRANCH  18  23
ENDBRANCH   1  19
TORSDOF 3
