REMARK  Name = ZINC00394310
REMARK                            x       y       z     vdW  Elec       q    Type
REMARK                         _______ _______ _______ _____ _____    ______ ____
ROOT
ATOM      1  C   LIG    1        1.504   1.569   2.415  0.00  0.00    +0.025 C 
ATOM      2  C   LIG    1        0.015   1.805   2.411  0.00  0.00    +0.068 C 
ATOM      3  C   LIG    1       -0.718   1.572   1.248  0.00  0.00    +0.069 C 
ATOM      4  C   LIG    1       -0.013   1.086   0.008  0.00  0.00    +0.025 C 
ATOM      5  N   LIG    1       -2.018   1.776   1.218  0.00  0.00    -0.296 NA
ATOM      6  H   LIG    1       -2.451   0.891   0.955  0.00  0.00    +0.124 HD
ATOM      7  C   LIG    1       -2.643   2.202   2.319  0.00  0.00    +0.144 C 
ATOM      8  N   LIG    1       -4.005   2.409   2.282  0.00  0.00    -0.272 NA
ATOM      9  H   LIG    1       -4.450   1.525   2.034  0.00  0.00    +0.126 HD
ATOM     10  C   LIG    1       -4.562   2.846   3.439  0.00  0.00    +0.194 C 
ATOM     11  N   LIG    1       -3.921   3.087   4.579  0.00  0.00    -0.273 NA
ATOM     12  H   LIG    1       -2.933   2.946   4.636  0.00  0.00    +0.126 HD
ATOM     13  C   LIG    1       -2.612   2.909   4.683  0.00  0.00    +0.141 C 
ATOM     14  C   LIG    1       -1.893   2.437   3.498  0.00  0.00    +0.117 C 
ATOM     15  N   LIG    1       -0.580   2.230   3.505  0.00  0.00    -0.304 NA
ATOM     16  H   LIG    1       -0.141   3.115   3.757  0.00  0.00    +0.123 HD
ENDROOT
BRANCH  10  17
ATOM     17  N   LIG    1       -5.928   3.053   3.400  0.00  0.00    -0.303 NA
ATOM     18  H   LIG    1       -6.394   3.366   4.191  0.00  0.00    +0.121 HD
ATOM     19  H   LIG    1       -6.420   2.884   2.582  0.00  0.00    +0.121 HD
ENDBRANCH  10  17
BRANCH  13  20
ATOM     20  N   LIG    1       -1.950   3.159   5.865  0.00  0.00    -0.314 NA
ATOM     21  H   LIG    1       -2.443   3.472   6.640  0.00  0.00    +0.120 HD
ATOM     22  H   LIG    1       -0.992   3.023   5.923  0.00  0.00    +0.120 HD
ENDBRANCH  13  20
TORSDOF 2
