REMARK  Name = ZINC00365623
REMARK                            x       y       z     vdW  Elec       q    Type
REMARK                         _______ _______ _______ _____ _____    ______ ____
ROOT
ATOM      1  C   LIG    1       -0.694   1.558   3.746  0.00  0.00    +0.213 C 
ATOM      2  N   LIG    1       -0.218   1.232   4.964  0.00  0.00    -0.312 N 
ATOM      3  H   LIG    1        0.686   0.612   5.053  0.00  0.00    +0.149 HD
ATOM      4  O   LIG    1       -1.691   2.243   3.648  0.00  0.00    -0.276 OA
ENDROOT
BRANCH   2   5
ATOM      5  C   LIG    1       -0.903   1.705   6.169  0.00  0.00    +0.073 C 
ATOM      6  C   LIG    1       -0.414   3.112   6.516  0.00  0.00    +0.022 C 
ATOM      7  C   LIG    1       -1.130   3.606   7.775  0.00  0.00    +0.002 C 
ATOM      8  C   LIG    1       -0.827   2.659   8.938  0.00  0.00    +0.000 C 
ATOM      9  C   LIG    1       -1.316   1.252   8.591  0.00  0.00    +0.002 C 
ATOM     10  C   LIG    1       -0.600   0.759   7.333  0.00  0.00    +0.022 C 
ENDBRANCH   2   5
BRANCH   1  11
ATOM     11  C   LIG    1        0.011   1.072   2.506  0.00  0.00    +0.096 C 
BRANCH  11  12
ATOM     12  C   LIG    1       -0.729   1.579   1.267  0.00  0.00    +0.014 C 
BRANCH  12  13
ATOM     13  C   LIG    1       -0.013   1.086   0.008  0.00  0.00    +0.035 C 
BRANCH  13  17
ATOM     14  C   LIG    1       -2.079   2.501  -3.453  0.00  0.00    +0.000 A 
ATOM     15  C   LIG    1       -1.066   3.259  -2.894  0.00  0.00    +0.000 A 
ATOM     16  C   LIG    1       -0.398   2.801  -1.774  0.00  0.00    +0.003 A 
ATOM     17  C   LIG    1       -0.742   1.585  -1.213  0.00  0.00    -0.047 A 
ATOM     18  C   LIG    1       -1.750   0.825  -1.775  0.00  0.00    +0.003 A 
ATOM     19  C   LIG    1       -2.422   1.285  -2.892  0.00  0.00    +0.000 A 
ENDBRANCH  13  17
ENDBRANCH  12  13
ENDBRANCH  11  12
ENDBRANCH   1  11
TORSDOF 5
