REMARK  Name = ZINC00538316
REMARK                            x       y       z     vdW  Elec       q    Type
REMARK                         _______ _______ _______ _____ _____    ______ ____
ROOT
ATOM      1  C   LIG    1       -7.180   1.286   0.074  0.00  0.00    +0.123 A 
ATOM      2  C   LIG    1       -7.320  -0.095   0.070  0.00  0.00    +0.046 A 
ATOM      3  C   LIG    1       -8.579  -0.664   0.079  0.00  0.00    +0.005 A 
ATOM      4  C   LIG    1       -9.703   0.139   0.094  0.00  0.00    +0.025 A 
ATOM      5  C   LIG    1       -9.569   1.522   0.099  0.00  0.00    +0.051 A 
ATOM      6  C   LIG    1       -8.305   2.095   0.094  0.00  0.00    +0.070 A 
ENDROOT
BRANCH   5   7
ATOM      7  N   LIG    1      -10.706   2.334   0.114  0.00  0.00    -0.213 N 
ATOM      8  H   LIG    1      -10.761   3.102  -0.476  0.00  0.00    +0.174 HD
BRANCH   7   9
ATOM      9  S   LIG    1      -11.959   1.986   1.139  0.00  0.00    +0.141 S 
ATOM     10  O   LIG    1      -12.246   0.614   0.908  0.00  0.00    -0.147 OA
ATOM     11  O   LIG    1      -12.933   2.985   0.873  0.00  0.00    -0.147 OA
BRANCH   9  12
ATOM     12  C   LIG    1      -11.274   2.210   2.804  0.00  0.00    +0.538 C 
ATOM     13  F   LIG    1      -10.198   1.335   2.987  0.00  0.00    -0.149 F 
ATOM     14  F   LIG    1      -12.264   1.937   3.755  0.00  0.00    -0.149 F 
ATOM     15  F   LIG    1      -10.834   3.529   2.954  0.00  0.00    -0.149 F 
ENDBRANCH   9  12
ENDBRANCH   7   9
ENDBRANCH   5   7
BRANCH   1  16
ATOM     16  O   LIG    1       -5.941   1.844   0.066  0.00  0.00    -0.486 OA
BRANCH  16  17
ATOM     17  C   LIG    1       -4.827   0.949   0.052  0.00  0.00    +0.284 C 
BRANCH  17  25
ATOM     18  C   LIG    1        1.159   3.168   0.007  0.00  0.00    +0.001 A 
ATOM     19  C   LIG    1        1.155   1.775   0.001  0.00  0.00    +0.002 A 
ATOM     20  C   LIG    1       -0.013   1.076   0.008  0.00  0.00    +0.028 A 
ATOM     21  C   LIG    1       -1.238   1.765   0.018  0.00  0.00    +0.071 A 
ATOM     22  C   LIG    1       -1.232   3.182   0.029  0.00  0.00    +0.000 A 
ATOM     23  C   LIG    1       -2.459   3.870   0.044  0.00  0.00    +0.012 A 
ATOM     24  C   LIG    1       -3.610   3.134   0.051  0.00  0.00    +0.027 A 
ATOM     25  C   LIG    1       -3.546   1.743   0.044  0.00  0.00    +0.079 A 
ATOM     26  N   LIG    1       -2.400   1.105   0.030  0.00  0.00    -0.248 NA
ATOM     27  C   LIG    1       -0.007   3.870   0.021  0.00  0.00    +0.010 A 
ENDBRANCH  17  25
ENDBRANCH  16  17
ENDBRANCH   1  16
TORSDOF 6
