REMARK  Name = ZINC00361081
REMARK                            x       y       z     vdW  Elec       q    Type
REMARK                         _______ _______ _______ _____ _____    ______ ____
ROOT
ATOM      1  C   LIG    1       -4.911   0.794   0.030  0.00  0.00    +0.046 C 
ATOM      2  C   LIG    1       -3.627   1.582   0.028  0.00  0.00    -0.021 A 
ATOM      3  C   LIG    1       -2.426   0.932   0.019  0.00  0.00    +0.028 A 
ATOM      4  C   LIG    1       -1.231   1.648   0.017  0.00  0.00    +0.027 A 
ATOM      5  C   LIG    1       -1.246   3.034   0.030  0.00  0.00    +0.050 A 
ATOM      6  C   LIG    1       -2.459   3.707   0.034  0.00  0.00    +0.068 A 
ATOM      7  N   LIG    1       -2.813   5.042   0.042  0.00  0.00    -0.338 N 
ATOM      8  H   LIG    1       -2.187   5.822   0.043  0.00  0.00    +0.167 HD
ATOM      9  C   LIG    1       -4.182   5.098   0.049  0.00  0.00    +0.139 A 
ATOM     10  N   LIG    1       -4.675   3.884   0.045  0.00  0.00    -0.227 NA
ATOM     11  C   LIG    1       -3.664   2.981   0.036  0.00  0.00    +0.092 A 
ENDROOT
BRANCH   9  12
ATOM     12  C   LIG    1       -4.983   6.341   0.059  0.00  0.00    +0.017 A 
ATOM     13  C   LIG    1       -4.347   7.583   0.069  0.00  0.00    +0.011 A 
ATOM     14  C   LIG    1       -5.100   8.740   0.073  0.00  0.00    +0.001 A 
ATOM     15  C   LIG    1       -6.481   8.669   0.080  0.00  0.00    +0.000 A 
ATOM     16  C   LIG    1       -7.118   7.441   0.076  0.00  0.00    +0.001 A 
ATOM     17  C   LIG    1       -6.377   6.277   0.066  0.00  0.00    +0.011 A 
ENDBRANCH   9  12
BRANCH   4  18
ATOM     18  N   LIG    1       -0.011   0.966   0.007  0.00  0.00    -0.358 N 
ATOM     19  H   LIG    1        0.822   1.462   0.002  0.00  0.00    +0.142 HD
ATOM     20  H   LIG    1        0.002  -0.004   0.002  0.00  0.00    +0.142 HD
ENDBRANCH   4  18
TORSDOF 2
