REMARK  Name = ZINC00602675
REMARK                            x       y       z     vdW  Elec       q    Type
REMARK                         _______ _______ _______ _____ _____    ______ ____
ROOT
ATOM      1  C   LIG    1       -3.629   1.711   0.133  0.00  0.00    +0.221 A 
ATOM      2  N   LIG    1       -3.622   3.040   0.143  0.00  0.00    -0.222 NA
ATOM      3  C   LIG    1       -4.743   3.729   0.245  0.00  0.00    +0.126 A 
ATOM      4  C   LIG    1       -5.954   3.028   0.354  0.00  0.00    +0.037 A 
ATOM      5  C   LIG    1       -7.186   3.711   0.471  0.00  0.00    +0.027 A 
ATOM      6  C   LIG    1       -8.341   2.982   0.575  0.00  0.00    +0.050 A 
ATOM      7  C   LIG    1       -8.271   1.519   0.563  0.00  0.00    +0.260 A 
ATOM      8  N   LIG    1       -7.083   0.895   0.450  0.00  0.00    -0.295 N 
ATOM      9  C   LIG    1       -7.030  -0.569   0.439  0.00  0.00    +0.154 C 
ATOM     10  O   LIG    1       -9.294   0.863   0.654  0.00  0.00    -0.267 OA
ATOM     11  C   LIG    1       -5.921   1.617   0.345  0.00  0.00    +0.148 A 
ATOM     12  N   LIG    1       -4.746   1.007   0.234  0.00  0.00    -0.196 NA
ENDROOT
BRANCH   6  13
ATOM     13  C   LIG    1       -9.649   3.667   0.700  0.00  0.00    +0.024 A 
ATOM     14  C   LIG    1      -10.158   3.981   1.960  0.00  0.00    +0.050 A 
ATOM     15 CL   LIG    1       -9.261   3.570   3.388  0.00  0.00    -0.083 Cl
ATOM     16  C   LIG    1      -11.375   4.625   2.069  0.00  0.00    +0.021 A 
ATOM     17  C   LIG    1      -12.094   4.949   0.932  0.00  0.00    +0.003 A 
ATOM     18  C   LIG    1      -11.597   4.635  -0.320  0.00  0.00    +0.021 A 
ATOM     19  C   LIG    1      -10.379   3.996  -0.443  0.00  0.00    +0.050 A 
ATOM     20 CL   LIG    1       -9.757   3.603  -2.016  0.00  0.00    -0.083 Cl
ENDBRANCH   6  13
BRANCH   1  21
ATOM     21  N   LIG    1       -2.427   1.040   0.020  0.00  0.00    -0.284 N 
ATOM     22  H   LIG    1       -2.418   0.074  -0.066  0.00  0.00    +0.155 HD
BRANCH  21  26
ATOM     23  C   LIG    1        2.202   1.548  -1.556  0.00  0.00    +0.047 C 
ATOM     24  C   LIG    1        1.037   2.022  -0.726  0.00  0.00    -0.014 A 
ATOM     25  C   LIG    1       -0.149   1.313  -0.733  0.00  0.00    +0.029 A 
ATOM     26  C   LIG    1       -1.224   1.753   0.029  0.00  0.00    +0.034 A 
ATOM     27  C   LIG    1       -1.101   2.900   0.802  0.00  0.00    +0.026 A 
ATOM     28  C   LIG    1        0.087   3.605   0.806  0.00  0.00    +0.040 A 
ATOM     29  C   LIG    1        1.156   3.167   0.042  0.00  0.00    +0.126 A 
ATOM     30  F   LIG    1        2.316   3.859   0.048  0.00  0.00    -0.205 F 
ENDBRANCH  21  26
ENDBRANCH   1  21
TORSDOF 3
