REMARK  Name = ZINC00607971
REMARK                            x       y       z     vdW  Elec       q    Type
REMARK                         _______ _______ _______ _____ _____    ______ ____
ROOT
ATOM      1  C   LIG    1        4.556   4.413  -0.021  0.00  0.00    +0.170 C 
ENDROOT
BRANCH   1   2
ATOM      2  C   LIG    1        4.246   5.711  -0.721  0.00  0.00    +0.001 A 
ATOM      3  C   LIG    1        2.946   6.178  -0.769  0.00  0.00    +0.009 A 
ATOM      4  C   LIG    1        2.661   7.367  -1.412  0.00  0.00    +0.020 A 
ATOM      5  C   LIG    1        3.678   8.093  -2.007  0.00  0.00    +0.042 A 
ATOM      6 CL   LIG    1        3.320   9.588  -2.814  0.00  0.00    -0.083 Cl
ATOM      7  C   LIG    1        4.979   7.627  -1.959  0.00  0.00    +0.040 A 
ATOM      8  C   LIG    1        5.264   6.438  -1.311  0.00  0.00    +0.048 A 
ATOM      9 CL   LIG    1        6.898   5.855  -1.245  0.00  0.00    -0.083 Cl
ENDBRANCH   1   2
BRANCH   1  10
ATOM     10  O   LIG    1        3.390   3.586  -0.013  0.00  0.00    -0.366 OA
BRANCH  10  11
ATOM     11  C   LIG    1        3.671   2.185  -0.023  0.00  0.00    +0.197 C 
BRANCH  11  14
ATOM     12  C   LIG    1       -0.017   1.379   0.010  0.00  0.00    +0.020 A 
ATOM     13  C   LIG    1        1.171   2.087   0.002  0.00  0.00    +0.009 A 
ATOM     14  C   LIG    1        2.377   1.413  -0.013  0.00  0.00    -0.004 A 
ATOM     15  C   LIG    1        2.397   0.029  -0.021  0.00  0.00    +0.048 A 
ATOM     16 CL   LIG    1        3.913  -0.817  -0.041  0.00  0.00    -0.083 Cl
ATOM     17  C   LIG    1        1.210  -0.679  -0.013  0.00  0.00    +0.040 A 
ATOM     18  C   LIG    1        0.002  -0.004   0.002  0.00  0.00    +0.042 A 
ATOM     19 CL   LIG    1       -1.489  -0.893   0.012  0.00  0.00    -0.083 Cl
ENDBRANCH  11  14
ENDBRANCH  10  11
ENDBRANCH   1  10
BRANCH   1  20
ATOM     20  C   LIG    1        4.986   4.701   1.419  0.00  0.00    +0.159 C 
BRANCH  20  21
ATOM     21  N   LIG    1        5.401   3.453   2.064  0.00  0.00    -0.334 N 
ATOM     22  C   LIG    1        4.596   2.591   2.759  0.00  0.00    +0.107 A 
ATOM     23  C   LIG    1        5.379   1.579   3.178  0.00  0.00    +0.130 A 
ATOM     24  N   LIG    1        6.628   1.816   2.751  0.00  0.00    -0.244 NA
ATOM     25  C   LIG    1        6.648   2.934   2.078  0.00  0.00    +0.199 A 
ENDBRANCH  20  21
ENDBRANCH   1  20
TORSDOF 6
