REMARK  Name = ZINC00597434
REMARK                            x       y       z     vdW  Elec       q    Type
REMARK                         _______ _______ _______ _____ _____    ______ ____
ROOT
ATOM      1  C   LIG    1       -4.292  -2.850  -1.709  0.00  0.00    +0.125 C 
ATOM      2  C   LIG    1       -5.110  -2.344  -2.708  0.00  0.00    +0.043 C 
ATOM      3  C   LIG    1       -5.908  -3.221  -3.429  0.00  0.00    +0.026 C 
ATOM      4  C   LIG    1       -5.886  -4.614  -3.144  0.00  0.00    +0.014 C 
ATOM      5  C   LIG    1       -5.062  -5.018  -2.129  0.00  0.00    +0.059 C 
ATOM      6  C   LIG    1       -4.919  -6.436  -1.631  0.00  0.00    +0.019 C 
ATOM      7  C   LIG    1       -4.113  -7.294  -2.585  0.00  0.00    +0.002 C 
ATOM      8  C   LIG    1       -4.239  -6.870  -4.040  0.00  0.00    +0.000 C 
ATOM      9  C   LIG    1       -5.522  -7.506  -4.524  0.00  0.00    +0.000 C 
ATOM     10  C   LIG    1       -6.760  -6.916  -3.854  0.00  0.00    +0.000 C 
ATOM     11  C   LIG    1       -6.798  -5.411  -4.042  0.00  0.00    +0.005 C 
ATOM     12  N   LIG    1       -4.303  -4.143  -1.464  0.00  0.00    -0.298 NA
ATOM     13  H   LIG    1       -3.727  -4.485  -0.761  0.00  0.00    +0.124 HD
ENDROOT
BRANCH   1  18
ATOM     14  N   LIG    1       -1.198  -0.599  -0.159  0.00  0.00    +0.381 N 
ATOM     15  H   LIG    1       -1.665  -0.152   0.617  0.00  0.00    -0.082 HD
ATOM     16  C   LIG    1       -1.866  -0.223  -1.411  0.00  0.00    -0.063 C 
ATOM     17  C   LIG    1       -3.354  -0.577  -1.321  0.00  0.00    +0.067 C 
ATOM     18  N   LIG    1       -3.474  -2.001  -0.973  0.00  0.00    -0.291 NA
ATOM     19  C   LIG    1       -2.705  -2.501   0.177  0.00  0.00    +0.067 C 
ATOM     20  C   LIG    1       -1.247  -2.056   0.017  0.00  0.00    -0.063 C 
BRANCH  14  22
ATOM     21  C   LIG    1        0.257   1.368  -0.259  0.00  0.00    -0.017 C 
ATOM     22  C   LIG    1        0.203  -0.160  -0.202  0.00  0.00    -0.082 C 
ENDBRANCH  14  22
ENDBRANCH   1  18
BRANCH   3  23
ATOM     23  C   LIG    1       -6.785  -2.676  -4.494  0.00  0.00    -0.044 A 
ATOM     24  C   LIG    1       -8.160  -2.901  -4.450  0.00  0.00    +0.007 A 
ATOM     25  C   LIG    1       -8.972  -2.392  -5.442  0.00  0.00    +0.038 A 
ATOM     26  C   LIG    1       -8.423  -1.659  -6.482  0.00  0.00    +0.123 A 
ATOM     27  F   LIG    1       -9.222  -1.163  -7.452  0.00  0.00    -0.205 F 
ATOM     28  C   LIG    1       -7.057  -1.433  -6.530  0.00  0.00    +0.038 A 
ATOM     29  C   LIG    1       -6.238  -1.932  -5.538  0.00  0.00    +0.007 A 
ENDBRANCH   3  23
TORSDOF 3
