REMARK  Name = ZINC00402830
REMARK                            x       y       z     vdW  Elec       q    Type
REMARK                         _______ _______ _______ _____ _____    ______ ____
ROOT
ATOM      1  C   LIG    1        0.641   1.243   0.614  0.00  0.00    +0.052 C 
ATOM      2  C   LIG    1        0.010  -0.007  -0.001  0.00  0.00    +0.116 C 
ENDROOT
BRANCH   2   3
ATOM      3  C   LIG    1       -1.491   0.090   0.092  0.00  0.00    -0.012 A 
ATOM      4  C   LIG    1       -2.096   0.295   1.318  0.00  0.00    +0.008 A 
ATOM      5  C   LIG    1       -3.473   0.385   1.403  0.00  0.00    +0.020 A 
ATOM      6  C   LIG    1       -4.245   0.270   0.261  0.00  0.00    +0.041 A 
ATOM      7 CL   LIG    1       -5.974   0.383   0.367  0.00  0.00    -0.084 Cl
ATOM      8  C   LIG    1       -3.639   0.065  -0.966  0.00  0.00    +0.020 A 
ATOM      9  C   LIG    1       -2.262  -0.019  -1.050  0.00  0.00    +0.008 A 
ENDBRANCH   2   3
BRANCH   2  10
ATOM     10  C   LIG    1        0.480  -1.228   0.748  0.00  0.00    -0.012 A 
ATOM     11  C   LIG    1        0.631  -1.180   2.122  0.00  0.00    +0.007 A 
ATOM     12  C   LIG    1        1.063  -2.299   2.809  0.00  0.00    +0.000 A 
ATOM     13  C   LIG    1        1.344  -3.466   2.123  0.00  0.00    +0.000 A 
ATOM     14  C   LIG    1        1.192  -3.514   0.749  0.00  0.00    +0.000 A 
ATOM     15  C   LIG    1        0.756  -2.396   0.063  0.00  0.00    +0.007 A 
ENDBRANCH   2  10
BRANCH   2  16
ATOM     16  O   LIG    1        0.397  -0.112  -1.372  0.00  0.00    -0.364 OA
BRANCH  16  17
ATOM     17  C   LIG    1        1.810  -0.088  -1.581  0.00  0.00    +0.160 C 
BRANCH  17  18
ATOM     18  C   LIG    1        2.112  -0.331  -3.061  0.00  0.00    +0.013 C 
BRANCH  18  19
ATOM     19  C   LIG    1        3.625  -0.306  -3.284  0.00  0.00    -0.067 C 
ATOM     20  C   LIG    1        3.956  -0.601  -4.768  0.00  0.00    -0.017 C 
ATOM     21  C   LIG    1        5.348   0.069  -4.918  0.00  0.00    -0.020 C 
ATOM     22  C   LIG    1        5.233   1.315  -4.015  0.00  0.00    -0.079 C 
ATOM     23  N   LIG    1        4.160   1.050  -3.038  0.00  0.00    +0.380 N 
ATOM     24  H   LIG    1        3.423   1.731  -3.150  0.00  0.00    -0.082 HD
ATOM     25  C   LIG    1        4.699   1.129  -1.673  0.00  0.00    -0.096 C 
ENDBRANCH  18  19
ENDBRANCH  17  18
ENDBRANCH  16  17
ENDBRANCH   2  16
TORSDOF 6
