REMARK  Name = ZINC00499809
REMARK                            x       y       z     vdW  Elec       q    Type
REMARK                         _______ _______ _______ _____ _____    ______ ____
ROOT
ATOM      1  C   LIG    1       -5.294  -1.605   4.783  0.00  0.00    +0.002 A 
ATOM      2  C   LIG    1       -5.121  -2.185   3.528  0.00  0.00    +0.002 A 
ATOM      3  C   LIG    1       -4.391  -1.562   2.564  0.00  0.00    +0.030 A 
ATOM      4  C   LIG    1       -3.800  -0.313   2.830  0.00  0.00    +0.092 A 
ATOM      5  C   LIG    1       -3.976   0.277   4.106  0.00  0.00    +0.090 A 
ATOM      6  N   LIG    1       -3.425   1.464   4.385  0.00  0.00    -0.241 NA
ATOM      7  C   LIG    1       -2.714   2.083   3.463  0.00  0.00    +0.128 A 
ATOM      8  C   LIG    1       -1.981   3.358   3.411  0.00  0.00    +0.118 A 
ATOM      9  C   LIG    1       -1.429   3.444   2.139  0.00  0.00    +0.118 A 
ATOM     10  N   LIG    1       -1.753   2.343   1.404  0.00  0.00    -0.307 N 
ATOM     11  C   LIG    1       -2.535   1.477   2.141  0.00  0.00    +0.163 A 
ATOM     12  N   LIG    1       -3.079   0.306   1.887  0.00  0.00    -0.226 NA
ATOM     13  C   LIG    1       -4.739  -0.399   5.078  0.00  0.00    +0.030 A 
ENDROOT
BRANCH   9  14
ATOM     14  N   LIG    1       -0.665   4.490   1.686  0.00  0.00    -0.343 N 
ATOM     15  H   LIG    1       -0.477   5.241   2.270  0.00  0.00    +0.144 HD
ATOM     16  H   LIG    1       -0.313   4.478   0.782  0.00  0.00    +0.144 HD
ENDBRANCH   9  14
BRANCH   8  17
ATOM     17  C   LIG    1       -1.861   4.321   4.464  0.00  0.00    +0.105 C 
ATOM     18  N   LIG    1       -1.766   5.085   5.299  0.00  0.00    -0.191 NA
ENDBRANCH   8  17
BRANCH  10  19
ATOM     19  C   LIG    1       -1.333   2.112   0.020  0.00  0.00    +0.160 C 
BRANCH  19  20
ATOM     20  C   LIG    1       -0.017   1.378   0.010  0.00  0.00    -0.024 A 
ATOM     21  C   LIG    1        0.002  -0.004   0.002  0.00  0.00    +0.009 A 
ATOM     22  C   LIG    1        1.207  -0.682  -0.013  0.00  0.00    +0.050 A 
ATOM     23  C   LIG    1        2.399   0.024  -0.020  0.00  0.00    +0.166 A 
ATOM     24  C   LIG    1        2.380   1.416  -0.013  0.00  0.00    +0.167 A 
ATOM     25  O   LIG    1        3.668   1.870  -0.022  0.00  0.00    -0.453 OA
ATOM     26  C   LIG    1        4.467   0.750  -0.448  0.00  0.00    +0.466 C 
ATOM     27  O   LIG    1        3.698  -0.395  -0.035  0.00  0.00    -0.453 OA
ATOM     28  C   LIG    1        1.169   2.089   0.002  0.00  0.00    +0.055 A 
ENDBRANCH  19  20
ENDBRANCH  10  19
TORSDOF 4
