REMARK  Name = ZINC00614127
REMARK                            x       y       z     vdW  Elec       q    Type
REMARK                         _______ _______ _______ _____ _____    ______ ____
ROOT
ATOM      1  S   LIG    1       -0.120  -4.525   0.115  0.00  0.00    +0.061 S 
ATOM      2  O   LIG    1       -0.275  -4.976  -1.224  0.00  0.00    -0.153 OA
ATOM      3  O   LIG    1       -1.047  -4.851   1.141  0.00  0.00    -0.153 OA
ENDROOT
BRANCH   1   8
ATOM      4  C   LIG    1        0.149   1.498  -0.116  0.00  0.00    +0.044 C 
ATOM      5  C   LIG    1        0.082  -0.006  -0.058  0.00  0.00    -0.048 A 
ATOM      6  C   LIG    1       -0.057  -0.737  -1.224  0.00  0.00    +0.005 A 
ATOM      7  C   LIG    1       -0.118  -2.117  -1.171  0.00  0.00    +0.031 A 
ATOM      8  C   LIG    1       -0.040  -2.766   0.047  0.00  0.00    +0.135 A 
ATOM      9  C   LIG    1        0.100  -2.036   1.212  0.00  0.00    +0.148 A 
ATOM     10  C   LIG    1        0.166  -0.656   1.159  0.00  0.00    +0.038 A 
BRANCH   9  11
ATOM     11  N   LIG    1        0.183  -2.731   2.516  0.00  0.00    +0.008 N 
ATOM     12  O   LIG    1       -0.357  -2.258   3.489  0.00  0.00    -0.130 OA
BRANCH  11  13
ATOM     13  O   LIG    1        0.791  -3.772   2.609  0.00  0.00    -0.396 OA
ATOM     14  H   LIG    1        1.210  -4.138   1.855  0.00  0.00    +0.329 HD
ENDBRANCH  11  13
ENDBRANCH   9  11
ENDBRANCH   1   8
BRANCH   1  15
ATOM     15  N   LIG    1        1.361  -5.063   0.626  0.00  0.00    -0.185 NA
ATOM     16  H   LIG    1        1.531  -4.635   1.537  0.00  0.00    +0.148 HD
BRANCH  15  17
ATOM     17  C   LIG    1        1.593  -6.430   0.775  0.00  0.00    +0.094 C 
ATOM     18  C   LIG    1        0.596  -7.338   0.491  0.00  0.00    +0.022 C 
ATOM     19  C   LIG    1        0.815  -8.705   0.635  0.00  0.00    +0.002 C 
ATOM     20  C   LIG    1        2.018  -9.181   1.058  0.00  0.00    +0.005 C 
ATOM     21  C   LIG    1        3.059  -8.288   1.357  0.00  0.00    +0.008 C 
ATOM     22  C   LIG    1        4.315  -8.748   1.798  0.00  0.00    +0.006 C 
ATOM     23  C   LIG    1        5.287  -7.824   2.055  0.00  0.00    +0.015 C 
ATOM     24  C   LIG    1        5.015  -6.467   1.895  0.00  0.00    +0.081 C 
ATOM     25  N   LIG    1        3.843  -6.042   1.489  0.00  0.00    -0.311 NA
ATOM     26  H   LIG    1        3.692  -5.089   1.389  0.00  0.00    +0.122 HD
ATOM     27  C   LIG    1        2.853  -6.894   1.211  0.00  0.00    +0.075 C 
ENDBRANCH  15  17
ENDBRANCH   1  15
TORSDOF 5
