REMARK  Name = ZINC00598965
REMARK                            x       y       z     vdW  Elec       q    Type
REMARK                         _______ _______ _______ _____ _____    ______ ____
ROOT
ATOM      1  C   LIG    1        7.343   5.338  -0.775  0.00  0.00    +0.162 A 
ATOM      2  C   LIG    1        7.304   3.993  -0.435  0.00  0.00    +0.050 A 
ATOM      3  C   LIG    1        6.104   3.318  -0.417  0.00  0.00    +0.017 A 
ATOM      4  C   LIG    1        4.922   3.985  -0.751  0.00  0.00    +0.041 A 
ATOM      5  C   LIG    1        4.961   5.339  -1.093  0.00  0.00    +0.062 A 
ATOM      6  C   LIG    1        6.167   6.011  -1.104  0.00  0.00    +0.163 A 
ENDROOT
BRANCH   4   7
ATOM      7  C   LIG    1        3.636   3.262  -0.738  0.00  0.00    +0.248 C 
ATOM      8  N   LIG    1        3.600   1.955  -0.408  0.00  0.00    -0.279 N 
ATOM      9  H   LIG    1        4.412   1.503  -0.129  0.00  0.00    +0.155 HD
ATOM     10  O   LIG    1        2.608   3.845  -1.024  0.00  0.00    -0.270 OA
BRANCH   8  11
ATOM     11  C   LIG    1        2.396   1.253  -0.467  0.00  0.00    +0.074 A 
ATOM     12  C   LIG    1        2.052   0.337   0.526  0.00  0.00    +0.082 A 
ATOM     13 CL   LIG    1        3.119   0.048   1.865  0.00  0.00    -0.080 Cl
ATOM     14  C   LIG    1        0.851  -0.338   0.430  0.00  0.00    +0.132 A 
ATOM     15  N   LIG    1        0.034  -0.123  -0.584  0.00  0.00    -0.260 NA
ATOM     16  C   LIG    1        0.323   0.735  -1.543  0.00  0.00    +0.132 A 
ATOM     17  C   LIG    1        1.504   1.450  -1.521  0.00  0.00    +0.082 A 
ATOM     18 CL   LIG    1        1.874   2.577  -2.789  0.00  0.00    -0.080 Cl
ENDBRANCH   8  11
ENDBRANCH   4   7
BRANCH   1  20
ATOM     19  C   LIG    1        9.694   5.250  -0.438  0.00  0.00    +0.277 C 
ATOM     20  O   LIG    1        8.529   6.001  -0.786  0.00  0.00    -0.491 OA
ENDBRANCH   1  20
BRANCH   6  21
ATOM     21  O   LIG    1        6.208   7.330  -1.435  0.00  0.00    -0.485 OA
BRANCH  21  22
ATOM     22  C   LIG    1        4.955   7.992  -1.619  0.00  0.00    +0.174 C 
ATOM     23  C   LIG    1        4.560   7.969  -3.110  0.00  0.00    +0.044 C 
ATOM     24  C   LIG    1        3.891   9.346  -3.346  0.00  0.00    +0.004 C 
ATOM     25  C   LIG    1        4.753  10.299  -2.481  0.00  0.00    +0.004 C 
ATOM     26  C   LIG    1        5.078   9.472  -1.219  0.00  0.00    +0.044 C 
ENDBRANCH  21  22
ENDBRANCH   6  21
TORSDOF 5
