REMARK  Name = ZINC00361399
REMARK                            x       y       z     vdW  Elec       q    Type
REMARK                         _______ _______ _______ _____ _____    ______ ____
ROOT
ATOM      1  N   LIG    1       -0.016   1.344   0.009  0.00  0.00    -0.281 N 
ATOM      2  H   LIG    1       -0.216   0.529  -0.478  0.00  0.00    +0.155 HD
ATOM      3  C   LIG    1       -0.958   1.911   0.788  0.00  0.00    +0.248 C 
ATOM      4  O   LIG    1       -0.679   2.872   1.478  0.00  0.00    -0.270 OA
ENDROOT
BRANCH   3   5
ATOM      5  C   LIG    1       -2.331   1.364   0.804  0.00  0.00    +0.038 A 
ATOM      6  C   LIG    1       -2.656   0.264   0.009  0.00  0.00    +0.014 A 
ATOM      7  C   LIG    1       -3.938  -0.246   0.032  0.00  0.00    +0.022 A 
ATOM      8  C   LIG    1       -4.905   0.339   0.833  0.00  0.00    +0.059 A 
ATOM      9 CL   LIG    1       -6.517  -0.304   0.850  0.00  0.00    -0.082 Cl
ATOM     10  C   LIG    1       -4.590   1.435   1.621  0.00  0.00    +0.060 A 
ATOM     11 CL   LIG    1       -5.808   2.161   2.622  0.00  0.00    -0.082 Cl
ATOM     12  C   LIG    1       -3.309   1.950   1.610  0.00  0.00    +0.034 A 
ENDBRANCH   3   5
BRANCH   1  17
ATOM     13  C   LIG    1        2.648   3.878  -0.125  0.00  0.00    +0.122 A 
ATOM     14  C   LIG    1        3.765   3.072  -0.293  0.00  0.00    +0.046 A 
ATOM     15  C   LIG    1        3.626   1.699  -0.359  0.00  0.00    +0.005 A 
ATOM     16  C   LIG    1        2.373   1.124  -0.259  0.00  0.00    +0.023 A 
ATOM     17  C   LIG    1        1.251   1.926  -0.091  0.00  0.00    +0.037 A 
ATOM     18  C   LIG    1        1.389   3.305  -0.029  0.00  0.00    +0.069 A 
BRANCH  13  20
ATOM     19  C   LIG    1        4.112   5.750  -0.173  0.00  0.00    +0.277 C 
ATOM     20  O   LIG    1        2.787   5.229  -0.061  0.00  0.00    -0.495 OA
ENDBRANCH  13  20
ENDBRANCH   1  17
TORSDOF 3
