REMARK  Name = ZINC00398963
REMARK                            x       y       z     vdW  Elec       q    Type
REMARK                         _______ _______ _______ _____ _____    ______ ____
ROOT
ATOM      1  C   LIG    1        3.695  -0.684  -0.038  0.00  0.00    +0.053 A 
ATOM      2  C   LIG    1        3.703  -2.047  -0.051  0.00  0.00    +0.076 A 
ATOM      3  C   LIG    1        4.925  -2.736  -0.068  0.00  0.00    +0.175 A 
ATOM      4  C   LIG    1        6.117  -1.999  -0.070  0.00  0.00    +0.113 A 
ATOM      5  C   LIG    1        6.060  -0.587  -0.056  0.00  0.00    +0.262 A 
ATOM      6  O   LIG    1        7.088   0.068  -0.058  0.00  0.00    -0.267 OA
ATOM      7  C   LIG    1        7.211  -2.974  -0.088  0.00  0.00    +0.126 A 
ATOM      8  N   LIG    1        6.665  -4.165  -0.095  0.00  0.00    -0.077 NA
ATOM      9  O   LIG    1        5.257  -4.037  -0.083  0.00  0.00    -0.354 OA
ATOM     10  N   LIG    1        4.863   0.033  -0.047  0.00  0.00    -0.321 N 
ATOM     11  H   LIG    1        4.827   1.002  -0.041  0.00  0.00    +0.169 HD
ENDROOT
BRANCH   1  15
ATOM     12  C   LIG    1       -0.017   1.379   0.010  0.00  0.00    +0.000 A 
ATOM     13  C   LIG    1        1.168   2.094   0.002  0.00  0.00    +0.001 A 
ATOM     14  C   LIG    1        2.377   1.430  -0.013  0.00  0.00    +0.010 A 
ATOM     15  C   LIG    1        2.404   0.034  -0.021  0.00  0.00    -0.002 A 
ATOM     16  C   LIG    1        1.204  -0.681  -0.013  0.00  0.00    +0.010 A 
ATOM     17  C   LIG    1        0.002  -0.004   0.002  0.00  0.00    +0.001 A 
ENDBRANCH   1  15
BRANCH   7  18
ATOM     18  C   LIG    1        8.662  -2.670  -0.097  0.00  0.00    +0.004 A 
ATOM     19  C   LIG    1        9.139  -1.551  -0.777  0.00  0.00    +0.010 A 
ATOM     20  C   LIG    1       10.490  -1.273  -0.782  0.00  0.00    +0.001 A 
ATOM     21  C   LIG    1       11.372  -2.103  -0.114  0.00  0.00    +0.000 A 
ATOM     22  C   LIG    1       10.905  -3.216   0.562  0.00  0.00    +0.001 A 
ATOM     23  C   LIG    1        9.555  -3.500   0.579  0.00  0.00    +0.010 A 
ENDBRANCH   7  18
TORSDOF 2
