REMARK  Name = ZINC00388631
REMARK                            x       y       z     vdW  Elec       q    Type
REMARK                         _______ _______ _______ _____ _____    ______ ____
ROOT
ATOM      1  C   LIG    1        1.476   1.578   2.433  0.00  0.00    +0.045 C 
ATOM      2  C   LIG    1       -0.013   1.802   2.386  0.00  0.00    -0.030 A 
ATOM      3  C   LIG    1       -0.718   1.572   1.248  0.00  0.00    +0.037 A 
ATOM      4  C   LIG    1       -0.013   1.086   0.008  0.00  0.00    +0.051 C 
ATOM      5  C   LIG    1       -2.110   1.794   1.228  0.00  0.00    +0.340 A 
ATOM      6  O   LIG    1       -2.772   2.222   2.314  0.00  0.00    -0.422 OA
ATOM      7  C   LIG    1       -2.131   2.470   3.477  0.00  0.00    +0.143 A 
ATOM      8  C   LIG    1       -2.829   2.917   4.589  0.00  0.00    +0.092 A 
ATOM      9  C   LIG    1       -2.152   3.165   5.772  0.00  0.00    +0.120 A 
ATOM     10  C   LIG    1       -0.775   2.969   5.854  0.00  0.00    +0.046 A 
ATOM     11  C   LIG    1       -0.073   2.530   4.769  0.00  0.00    +0.015 A 
ATOM     12  O   LIG    1       -2.729   1.588   0.199  0.00  0.00    -0.245 OA
ATOM     13  C   LIG    1       -0.740   2.274   3.566  0.00  0.00    +0.021 A 
ENDROOT
BRANCH   9  14
ATOM     14  O   LIG    1       -2.836   3.602   6.860  0.00  0.00    -0.507 OA
ATOM     15  H   LIG    1       -3.168   2.892   7.427  0.00  0.00    +0.292 HD
ENDBRANCH   9  14
TORSDOF 1
