REMARK  Name = ZINC00608368
REMARK                            x       y       z     vdW  Elec       q    Type
REMARK                         _______ _______ _______ _____ _____    ______ ____
ROOT
ATOM      1  C   LIG    1       -0.440  -2.880   5.689  0.00  0.00    -0.010 A 
ATOM      2  C   LIG    1       -1.804  -2.943   5.711  0.00  0.00    +0.026 A 
ATOM      3  C   LIG    1       -2.500  -2.545   6.849  0.00  0.00    +0.112 A 
ATOM      4  N   LIG    1       -1.881  -2.103   7.918  0.00  0.00    -0.255 NA
ATOM      5  C   LIG    1       -0.548  -2.016   7.962  0.00  0.00    +0.072 A 
ATOM      6  C   LIG    1        0.109  -1.542   9.111  0.00  0.00    +0.032 A 
ATOM      7  C   LIG    1        1.467  -1.479   9.136  0.00  0.00    +0.048 A 
ATOM      8  C   LIG    1        2.227  -1.863   8.027  0.00  0.00    +0.121 A 
ATOM      9  C   LIG    1        1.622  -2.323   6.892  0.00  0.00    +0.056 A 
ATOM     10  C   LIG    1        0.222  -2.411   6.840  0.00  0.00    +0.009 A 
ENDROOT
BRANCH   1  11
ATOM     11  C   LIG    1        0.336  -3.306   4.469  0.00  0.00    +0.132 C 
BRANCH  11  18
ATOM     12  C   LIG    1        1.786  -0.360   1.709  0.00  0.00    -0.025 C 
ATOM     13  C   LIG    1        0.984  -1.562   1.206  0.00  0.00    -0.075 C 
ATOM     14  N   LIG    1        0.987  -2.625   2.214  0.00  0.00    +0.384 N 
ATOM     15  H   LIG    1        0.457  -3.406   1.857  0.00  0.00    -0.081 HD
ATOM     16  C   LIG    1        2.353  -3.086   2.473  0.00  0.00    -0.078 C 
ATOM     17  C   LIG    1        3.200  -1.935   3.019  0.00  0.00    -0.015 C 
ATOM     18  C   LIG    1        0.355  -2.163   3.452  0.00  0.00    -0.035 C 
ATOM     19  C   LIG    1        1.136  -0.978   4.031  0.00  0.00    -0.009 C 
ATOM     20  C   LIG    1        2.325  -0.674   3.111  0.00  0.00    -0.013 C 
BRANCH  12  22
ATOM     21  C   LIG    1        2.411   0.339  -0.606  0.00  0.00    +0.004 C 
ATOM     22  C   LIG    1        2.953  -0.088   0.759  0.00  0.00    -0.002 C 
ENDBRANCH  12  22
ENDBRANCH  11  18
BRANCH  11  23
ATOM     23  O   LIG    1       -0.286  -4.453   3.886  0.00  0.00    -0.389 OA
ATOM     24  H   LIG    1       -1.167  -4.282   3.526  0.00  0.00    +0.210 HD
ENDBRANCH  11  23
ENDBRANCH   1  11
BRANCH   8  25
ATOM     25  O   LIG    1        3.582  -1.778   8.079  0.00  0.00    -0.492 OA
BRANCH  25  26
ATOM     26  C   LIG    1        4.155  -1.289   9.293  0.00  0.00    +0.229 C 
BRANCH  26  27
ATOM     27  C   LIG    1        5.680  -1.264   9.163  0.00  0.00    +0.044 C 
BRANCH  27  28
ATOM     28  C   LIG    1        6.294  -0.741  10.463  0.00  0.00    -0.014 C 
ATOM     29  C   LIG    1        7.807  -0.599  10.291  0.00  0.00    +0.007 C 
ATOM     30  C   LIG    1        6.000  -1.724  11.598  0.00  0.00    +0.007 C 
ENDBRANCH  27  28
ENDBRANCH  26  27
ENDBRANCH  25  26
ENDBRANCH   8  25
TORSDOF 8
