REMARK  Name = ZINC00394310
REMARK                            x       y       z     vdW  Elec       q    Type
REMARK                         _______ _______ _______ _____ _____    ______ ____
ROOT
ATOM      1  C   LIG    1        1.504   1.569   2.415  0.00  0.00    +0.067 C 
ATOM      2  C   LIG    1        0.015   1.805   2.411  0.00  0.00    +0.060 A 
ATOM      3  C   LIG    1       -0.718   1.572   1.248  0.00  0.00    +0.062 A 
ATOM      4  C   LIG    1       -0.013   1.086   0.008  0.00  0.00    +0.067 C 
ATOM      5  N   LIG    1       -2.018   1.776   1.218  0.00  0.00    -0.229 NA
ATOM      6  C   LIG    1       -2.643   2.202   2.319  0.00  0.00    +0.185 A 
ATOM      7  C   LIG    1       -1.893   2.437   3.498  0.00  0.00    +0.148 A 
ATOM      8  C   LIG    1       -2.612   2.909   4.683  0.00  0.00    +0.149 A 
ATOM      9  N   LIG    1       -3.921   3.087   4.579  0.00  0.00    -0.198 NA
ATOM     10  C   LIG    1       -4.562   2.846   3.439  0.00  0.00    +0.216 A 
ATOM     11  N   LIG    1       -3.963   2.421   2.345  0.00  0.00    -0.193 NA
ATOM     12  N   LIG    1       -0.580   2.230   3.505  0.00  0.00    -0.244 NA
ENDROOT
BRANCH   8  13
ATOM     13  N   LIG    1       -1.950   3.159   5.865  0.00  0.00    -0.341 N 
ATOM     14  H   LIG    1       -2.443   3.472   6.640  0.00  0.00    +0.144 HD
ATOM     15  H   LIG    1       -0.992   3.023   5.923  0.00  0.00    +0.144 HD
ENDBRANCH   8  13
BRANCH  10  16
ATOM     16  N   LIG    1       -5.928   3.053   3.400  0.00  0.00    -0.327 N 
ATOM     17  H   LIG    1       -6.394   3.366   4.191  0.00  0.00    +0.145 HD
ATOM     18  H   LIG    1       -6.420   2.884   2.582  0.00  0.00    +0.145 HD
ENDBRANCH  10  16
TORSDOF 2
