REMARK  Name = ZINC00405539
REMARK                            x       y       z     vdW  Elec       q    Type
REMARK                         _______ _______ _______ _____ _____    ______ ____
ROOT
ATOM      1  N   LIG    1        3.585   2.125  -0.021  0.00  0.00    -0.299 N 
ATOM      2  C   LIG    1        4.648   1.927   0.808  0.00  0.00    +0.205 A 
ATOM      3  N   LIG    1        5.599   2.768   0.524  0.00  0.00    -0.235 NA
ATOM      4  C   LIG    1        5.214   3.564  -0.507  0.00  0.00    +0.091 A 
ATOM      5  C   LIG    1        5.830   4.610  -1.197  0.00  0.00    +0.050 A 
ATOM      6  C   LIG    1        5.163   5.238  -2.226  0.00  0.00    +0.043 A 
ATOM      7 CL   LIG    1        5.929   6.538  -3.084  0.00  0.00    -0.083 Cl
ATOM      8  C   LIG    1        3.882   4.838  -2.582  0.00  0.00    +0.022 A 
ATOM      9  C   LIG    1        3.260   3.807  -1.911  0.00  0.00    +0.030 A 
ATOM     10  C   LIG    1        3.919   3.160  -0.876  0.00  0.00    +0.073 A 
ENDROOT
BRANCH   1  14
ATOM     11  C   LIG    1        0.002  -0.004   0.002  0.00  0.00    +0.000 A 
ATOM     12  C   LIG    1       -0.017   1.379   0.010  0.00  0.00    +0.002 A 
ATOM     13  C   LIG    1        1.169   2.087   0.002  0.00  0.00    +0.026 A 
ATOM     14  C   LIG    1        2.381   1.409  -0.013  0.00  0.00    +0.048 A 
ATOM     15  C   LIG    1        2.396   0.021  -0.021  0.00  0.00    +0.026 A 
ATOM     16  C   LIG    1        1.207  -0.682  -0.013  0.00  0.00    +0.002 A 
ENDBRANCH   1  14
TORSDOF 1
