REMARK  Name = ZINC00592819
REMARK                            x       y       z     vdW  Elec       q    Type
REMARK                         _______ _______ _______ _____ _____    ______ ____
ROOT
ATOM      1  C   LIG    1       -1.281  -0.775   0.016  0.00  0.00    +0.046 C 
ATOM      2  C   LIG    1        0.010   0.001   0.017  0.00  0.00    -0.027 A 
ATOM      3  C   LIG    1        1.218  -0.668   0.014  0.00  0.00    +0.033 A 
ATOM      4  C   LIG    1        2.408   0.047   0.015  0.00  0.00    +0.073 A 
ATOM      5  C   LIG    1        2.384   1.436   0.019  0.00  0.00    +0.030 A 
ATOM      6  C   LIG    1        1.176   2.105   0.023  0.00  0.00    +0.026 A 
ATOM      7  C   LIG    1       -0.014   1.389   0.021  0.00  0.00    +0.039 A 
ENDROOT
BRANCH   4   8
ATOM      8  N   LIG    1        3.634  -0.632   0.011  0.00  0.00    -0.159 N 
ATOM      9  C   LIG    1        4.863  -0.074   0.006  0.00  0.00    +0.445 A 
ATOM     10  O   LIG    1        5.758  -1.077   0.007  0.00  0.00    -0.358 OA
ATOM     11  C   LIG    1        5.097  -2.252   0.004  0.00  0.00    +0.417 A 
ATOM     12  O   LIG    1        5.115   1.117   0.004  0.00  0.00    -0.221 OA
ATOM     13  N   LIG    1        3.820  -2.022   0.006  0.00  0.00    -0.087 NA
BRANCH  11  14
ATOM     14  O   LIG    1        5.675  -3.478  -0.002  0.00  0.00    -0.452 OA
ATOM     15  C   LIG    1        4.799  -4.607  -0.005  0.00  0.00    +0.282 C 
ENDBRANCH  11  14
ENDBRANCH   4   8
BRANCH   7  16
ATOM     16  N   LIG    1       -1.240   2.068   0.019  0.00  0.00    -0.251 N 
ATOM     17  H   LIG    1       -2.034   1.637   0.371  0.00  0.00    +0.158 HD
ATOM     18  C   LIG    1       -1.315   3.321  -0.472  0.00  0.00    +0.405 C 
ATOM     19  O   LIG    1       -0.345   3.824  -1.005  0.00  0.00    -0.226 OA
BRANCH  18  20
ATOM     20  O   LIG    1       -2.464   4.016  -0.372  0.00  0.00    -0.445 OA
BRANCH  20  21
ATOM     21  C   LIG    1       -2.473   5.359  -0.923  0.00  0.00    +0.269 C 
BRANCH  21  22
ATOM     22  C   LIG    1       -3.832   5.976  -0.720  0.00  0.00    -0.010 A 
ATOM     23  C   LIG    1       -4.809   5.829  -1.687  0.00  0.00    +0.007 A 
ATOM     24  C   LIG    1       -6.058   6.391  -1.498  0.00  0.00    +0.000 A 
ATOM     25  C   LIG    1       -6.327   7.109  -0.348  0.00  0.00    +0.000 A 
ATOM     26  C   LIG    1       -5.347   7.262   0.616  0.00  0.00    +0.000 A 
ATOM     27  C   LIG    1       -4.100   6.695   0.430  0.00  0.00    +0.007 A 
ENDBRANCH  21  22
ENDBRANCH  20  21
ENDBRANCH  18  20
ENDBRANCH   7  16
TORSDOF 6
