REMARK  Name = ZINC00509842
REMARK                            x       y       z     vdW  Elec       q    Type
REMARK                         _______ _______ _______ _____ _____    ______ ____
ROOT
ATOM      1  C   LIG    1       -1.274   2.068   0.031  0.00  0.00    +0.131 A 
ATOM      2  C   LIG    1       -0.017   1.413   0.010  0.00  0.00    +0.040 A 
ATOM      3  C   LIG    1        1.189   2.122   0.002  0.00  0.00    +0.013 A 
ATOM      4  C   LIG    1        2.370   1.439  -0.013  0.00  0.00    +0.001 A 
ATOM      5  C   LIG    1        2.391   0.047  -0.021  0.00  0.00    +0.002 A 
ATOM      6  C   LIG    1        1.234  -0.673  -0.013  0.00  0.00    +0.028 A 
ATOM      7  C   LIG    1        0.002  -0.004   0.002  0.00  0.00    +0.077 A 
ATOM      8  N   LIG    1       -1.163  -0.665   0.010  0.00  0.00    -0.227 NA
ATOM      9  C   LIG    1       -2.305  -0.006   0.025  0.00  0.00    +0.162 A 
ATOM     10  N   LIG    1       -2.370   1.324   0.033  0.00  0.00    -0.212 NA
ENDROOT
BRANCH   9  11
ATOM     11  C   LIG    1       -3.572  -0.779   0.033  0.00  0.00    +0.022 A 
ATOM     12  C   LIG    1       -4.809  -0.129   0.055  0.00  0.00    +0.031 A 
ATOM     13  C   LIG    1       -5.963  -0.887   0.057  0.00  0.00    +0.111 A 
ATOM     14  N   LIG    1       -5.908  -2.204   0.049  0.00  0.00    -0.263 NA
ATOM     15  C   LIG    1       -4.762  -2.856   0.034  0.00  0.00    +0.111 A 
ATOM     16  C   LIG    1       -3.561  -2.176   0.026  0.00  0.00    +0.031 A 
ENDBRANCH   9  11
BRANCH   1  17
ATOM     17  N   LIG    1       -1.354   3.444   0.040  0.00  0.00    -0.324 N 
ATOM     18  H   LIG    1       -0.543   3.977   0.031  0.00  0.00    +0.148 HD
BRANCH  17  19
ATOM     19  C   LIG    1       -2.663   4.102   0.062  0.00  0.00    +0.138 C 
BRANCH  19  23
ATOM     20  C   LIG    1       -2.127   8.340   0.077  0.00  0.00    +0.000 A 
ATOM     21  C   LIG    1       -2.231   7.660  -1.123  0.00  0.00    +0.000 A 
ATOM     22  C   LIG    1       -2.404   6.289  -1.127  0.00  0.00    +0.005 A 
ATOM     23  C   LIG    1       -2.474   5.597   0.067  0.00  0.00    -0.030 A 
ATOM     24  C   LIG    1       -2.376   6.277   1.267  0.00  0.00    +0.005 A 
ATOM     25  C   LIG    1       -2.197   7.648   1.271  0.00  0.00    +0.000 A 
ENDBRANCH  19  23
ENDBRANCH  17  19
ENDBRANCH   1  17
TORSDOF 4
