REMARK  Name = ZINC00610058
REMARK                            x       y       z     vdW  Elec       q    Type
REMARK                         _______ _______ _______ _____ _____    ______ ____
ROOT
ATOM      1  N   LIG    1        1.523  -4.407  -2.926  0.00  0.00    -0.297 N 
ATOM      2  H   LIG    1        1.774  -3.756  -3.600  0.00  0.00    +0.154 HD
ENDROOT
BRANCH   1   3
ATOM      3  C   LIG    1        1.678  -5.773  -3.183  0.00  0.00    +0.033 A 
ATOM      4  C   LIG    1        0.656  -6.660  -2.871  0.00  0.00    +0.025 A 
ATOM      5  C   LIG    1        0.811  -8.009  -3.126  0.00  0.00    +0.030 A 
ATOM      6  C   LIG    1        1.983  -8.476  -3.692  0.00  0.00    +0.105 A 
ATOM      7  C   LIG    1        3.003  -7.596  -4.004  0.00  0.00    +0.030 A 
ATOM      8  C   LIG    1        2.851  -6.245  -3.757  0.00  0.00    +0.025 A 
BRANCH   6   9
ATOM      9  S   LIG    1        2.178 -10.197  -4.015  0.00  0.00    +0.056 S 
ATOM     10  O   LIG    1        1.299 -10.878  -3.130  0.00  0.00    -0.153 OA
ATOM     11  O   LIG    1        3.576 -10.449  -4.043  0.00  0.00    -0.153 OA
BRANCH   9  12
ATOM     12  N   LIG    1        1.616 -10.475  -5.547  0.00  0.00    -0.204 NA
ATOM     13  H   LIG    1        1.637 -11.371  -5.917  0.00  0.00    +0.144 HD
ATOM     14  H   LIG    1        1.266  -9.740  -6.076  0.00  0.00    +0.144 HD
ENDBRANCH   9  12
ENDBRANCH   6   9
ENDBRANCH   1   3
BRANCH   1  15
ATOM     15  C   LIG    1        1.026  -3.996  -1.743  0.00  0.00    +0.135 C 
ATOM     16  S   LIG    1        0.483  -5.145  -0.597  0.00  0.00    -0.019 S 
BRANCH  15  17
ATOM     17  N   LIG    1        0.957  -2.679  -1.462  0.00  0.00    -0.321 N 
ATOM     18  H   LIG    1        1.264  -2.028  -2.112  0.00  0.00    +0.148 HD
BRANCH  17  19
ATOM     19  C   LIG    1        0.417  -2.232  -0.176  0.00  0.00    +0.158 C 
BRANCH  19  24
ATOM     20  C   LIG    1       -0.634   1.381  -0.405  0.00  0.00    +0.003 A 
ATOM     21  C   LIG    1        0.541   1.989   0.009  0.00  0.00    +0.020 A 
ATOM     22  C   LIG    1        1.625   1.200   0.346  0.00  0.00    +0.111 A 
ATOM     23  N   LIG    1        1.550  -0.115   0.276  0.00  0.00    -0.258 NA
ATOM     24  C   LIG    1        0.449  -0.727  -0.113  0.00  0.00    +0.058 A 
ATOM     25  C   LIG    1       -0.675  -0.004  -0.465  0.00  0.00    +0.025 A 
ENDBRANCH  19  24
ENDBRANCH  17  19
ENDBRANCH  15  17
ENDBRANCH   1  15
TORSDOF 7
