REMARK  Name = ZINC00391789
REMARK                            x       y       z     vdW  Elec       q    Type
REMARK                         _______ _______ _______ _____ _____    ______ ____
ROOT
ATOM      1  C   LIG    1       -0.013   1.086   0.008  0.00  0.00    +0.150 C 
ATOM      2  N   LIG    1       -0.721   1.571  -1.179  0.00  0.00    -0.328 N 
ATOM      3  C   LIG    1       -0.162   1.865  -2.406  0.00  0.00    +0.151 A 
ATOM      4  C   LIG    1        1.145   1.818  -2.936  0.00  0.00    +0.280 A 
ATOM      5  O   LIG    1        2.078   1.452  -2.244  0.00  0.00    -0.265 OA
ATOM      6  N   LIG    1        1.350   2.186  -4.218  0.00  0.00    -0.273 N 
ATOM      7  H   LIG    1        2.247   2.156  -4.587  0.00  0.00    +0.173 HD
ATOM      8  C   LIG    1        0.330   2.593  -4.993  0.00  0.00    +0.328 A 
ATOM      9  O   LIG    1        0.552   2.917  -6.144  0.00  0.00    -0.247 OA
ATOM     10  N   LIG    1       -0.933   2.643  -4.529  0.00  0.00    -0.291 N 
ATOM     11  H   LIG    1       -1.651   2.942  -5.110  0.00  0.00    +0.172 HD
ATOM     12  C   LIG    1       -1.208   2.284  -3.220  0.00  0.00    +0.165 A 
ATOM     13  N   LIG    1       -2.322   2.242  -2.485  0.00  0.00    -0.218 NA
ATOM     14  C   LIG    1       -2.041   1.821  -1.278  0.00  0.00    +0.202 A 
ENDROOT
TORSDOF 0
