REMARK  Name = ZINC00446424
REMARK                            x       y       z     vdW  Elec       q    Type
REMARK                         _______ _______ _______ _____ _____    ______ ____
ROOT
ATOM      1  C   LIG    1        5.114  -4.109  -0.070  0.00  0.00    +0.165 C 
ATOM      2  O   LIG    1        4.073  -4.731  -0.063  0.00  0.00    -0.292 OA
ENDROOT
BRANCH   1   3
ATOM      3  C   LIG    1        6.399  -4.826  -0.086  0.00  0.00    +0.020 A 
ATOM      4  C   LIG    1        7.602  -4.112  -0.088  0.00  0.00    +0.011 A 
ATOM      5  C   LIG    1        8.802  -4.791  -0.104  0.00  0.00    +0.003 A 
ATOM      6  C   LIG    1        8.818  -6.175  -0.117  0.00  0.00    +0.032 A 
ATOM      7  C   LIG    1        7.632  -6.888  -0.115  0.00  0.00    +0.122 A 
ATOM      8  C   LIG    1        6.424  -6.224  -0.094  0.00  0.00    +0.044 A 
BRANCH   7   9
ATOM      9  N   LIG    1        7.661  -8.368  -0.130  0.00  0.00    +0.006 N 
ATOM     10  O   LIG    1        8.720  -8.952  -0.144  0.00  0.00    -0.130 OA
BRANCH   9  11
ATOM     11  O   LIG    1        6.626  -8.993  -0.128  0.00  0.00    -0.396 OA
ATOM     12  H   LIG    1        5.806  -8.540  -0.117  0.00  0.00    +0.329 HD
ENDBRANCH   9  11
ENDBRANCH   7   9
ENDBRANCH   1   3
BRANCH   1  13
ATOM     13  C   LIG    1        5.091  -2.602  -0.061  0.00  0.00    +0.098 C 
BRANCH  13  14
ATOM     14  C   LIG    1        3.641  -2.114  -0.044  0.00  0.00    +0.109 C 
BRANCH  14  15
ATOM     15  N   LIG    1        3.620  -0.649  -0.036  0.00  0.00    -0.343 N 
ATOM     16  H   LIG    1        4.452  -0.152  -0.042  0.00  0.00    +0.146 HD
BRANCH  15  20
ATOM     17  C   LIG    1       -0.017   1.379   0.010  0.00  0.00    +0.000 A 
ATOM     18  C   LIG    1        1.169   2.089   0.002  0.00  0.00    +0.002 A 
ATOM     19  C   LIG    1        2.377   1.420  -0.013  0.00  0.00    +0.023 A 
ATOM     20  C   LIG    1        2.400   0.031  -0.021  0.00  0.00    +0.027 A 
ATOM     21  C   LIG    1        1.206  -0.680  -0.013  0.00  0.00    +0.023 A 
ATOM     22  C   LIG    1        0.002  -0.004   0.002  0.00  0.00    +0.002 A 
ENDBRANCH  15  20
ENDBRANCH  14  15
ENDBRANCH  13  14
ENDBRANCH   1  13
TORSDOF 7
