REMARK  Name = ZINC00595659
REMARK                            x       y       z     vdW  Elec       q    Type
REMARK                         _______ _______ _______ _____ _____    ______ ____
ROOT
ATOM      1  N   LIG    1        4.848   0.005  -0.148  0.00  0.00    -0.257 N 
ATOM      2  C   LIG    1        3.697  -0.687  -0.261  0.00  0.00    +0.251 C 
ATOM      3  O   LIG    1        3.691  -1.889  -0.084  0.00  0.00    -0.270 OA
ENDROOT
BRANCH   1   8
ATOM      4  C   LIG    1        9.757  -2.751   0.549  0.00  0.00    +0.044 C 
ATOM      5  C   LIG    1        8.453  -2.019   0.364  0.00  0.00    -0.050 A 
ATOM      6  C   LIG    1        7.298  -2.727   0.085  0.00  0.00    +0.005 A 
ATOM      7  C   LIG    1        6.101  -2.058  -0.085  0.00  0.00    +0.024 A 
ATOM      8  C   LIG    1        6.058  -0.674   0.024  0.00  0.00    +0.037 A 
ATOM      9  C   LIG    1        7.221   0.034   0.299  0.00  0.00    +0.024 A 
ATOM     10  C   LIG    1        8.414  -0.641   0.474  0.00  0.00    +0.005 A 
ENDBRANCH   1   8
BRANCH   2  11
ATOM     11  C   LIG    1        2.442   0.017  -0.601  0.00  0.00    +0.037 A 
ATOM     12  C   LIG    1        1.442  -0.641  -1.319  0.00  0.00    +0.013 A 
ATOM     13  C   LIG    1        0.274   0.022  -1.634  0.00  0.00    +0.001 A 
ATOM     14  C   LIG    1        0.092   1.335  -1.240  0.00  0.00    +0.000 A 
ATOM     15  C   LIG    1        1.080   1.993  -0.528  0.00  0.00    +0.001 A 
ATOM     16  C   LIG    1        2.253   1.342  -0.206  0.00  0.00    +0.013 A 
ENDBRANCH   2  11
BRANCH   1  17
ATOM     17  C   LIG    1        4.832   1.469  -0.204  0.00  0.00    +0.234 C 
BRANCH  17  18
ATOM     18  C   LIG    1        4.872   2.026   1.196  0.00  0.00    +0.323 C 
ATOM     19  O   LIG    1        4.910   1.277   2.143  0.00  0.00    -0.249 OA
BRANCH  18  20
ATOM     20  O   LIG    1        4.865   3.354   1.390  0.00  0.00    -0.480 OA
ATOM     21  H   LIG    1        4.835   3.935   0.655  0.00  0.00    +0.295 HD
ENDBRANCH  18  20
ENDBRANCH  17  18
ENDBRANCH   1  17
TORSDOF 5
