REMARK  Name = ZINC00607803
REMARK                            x       y       z     vdW  Elec       q    Type
REMARK                         _______ _______ _______ _____ _____    ______ ____
ROOT
ATOM      1  C   LIG    1       -4.963  -2.617   0.027  0.00  0.00    +0.075 A 
ATOM      2  C   LIG    1       -6.192  -2.019   0.035  0.00  0.00    +0.059 A 
ATOM      3  C   LIG    1       -7.157  -3.027   0.057  0.00  0.00    +0.129 A 
ATOM      4  N   LIG    1       -6.551  -4.187   0.061  0.00  0.00    -0.165 NA
ATOM      5  N   LIG    1       -5.168  -3.967   0.037  0.00  0.00    -0.232 N 
ENDROOT
BRANCH   1   9
ATOM      6  C   LIG    1       -1.201  -0.638  -0.036  0.00  0.00    +0.155 A 
ATOM      7  C   LIG    1       -2.312   0.003   0.492  0.00  0.00    +0.049 A 
ATOM      8  C   LIG    1       -3.534  -0.636   0.514  0.00  0.00    +0.014 A 
ATOM      9  C   LIG    1       -3.654  -1.929   0.004  0.00  0.00    +0.003 A 
ATOM     10  C   LIG    1       -2.535  -2.572  -0.527  0.00  0.00    +0.052 A 
ATOM     11  C   LIG    1       -1.316  -1.925  -0.551  0.00  0.00    +0.165 A 
ATOM     12  F   LIG    1       -0.232  -2.544  -1.069  0.00  0.00    -0.202 F 
BRANCH   6  14
ATOM     13  C   LIG    1        0.049   1.315   0.489  0.00  0.00    +0.277 C 
ATOM     14  O   LIG    1        0.002  -0.005  -0.056  0.00  0.00    -0.492 OA
ENDBRANCH   6  14
ENDBRANCH   1   9
BRANCH   5  15
ATOM     15  C   LIG    1       -4.174  -4.954   0.028  0.00  0.00    +0.066 A 
ATOM     16  C   LIG    1       -3.078  -4.845   0.874  0.00  0.00    +0.030 A 
ATOM     17  C   LIG    1       -2.100  -5.821   0.863  0.00  0.00    +0.030 A 
ATOM     18  C   LIG    1       -2.211  -6.904   0.011  0.00  0.00    +0.105 A 
ATOM     19  C   LIG    1       -3.301  -7.015  -0.832  0.00  0.00    +0.030 A 
ATOM     20  C   LIG    1       -4.286  -6.046  -0.822  0.00  0.00    +0.030 A 
BRANCH  18  21
ATOM     21  S   LIG    1       -0.962  -8.146   0.001  0.00  0.00    +0.056 S 
ATOM     22  O   LIG    1        0.224  -7.534   0.490  0.00  0.00    -0.153 OA
ATOM     23  O   LIG    1       -1.025  -8.775  -1.272  0.00  0.00    -0.153 OA
BRANCH  21  24
ATOM     24  N   LIG    1       -1.398  -9.290   1.117  0.00  0.00    -0.204 NA
ATOM     25  H   LIG    1       -1.915  -9.034   1.897  0.00  0.00    +0.144 HD
ATOM     26  H   LIG    1       -1.137 -10.215   0.990  0.00  0.00    +0.144 HD
ENDBRANCH  21  24
ENDBRANCH  18  21
ENDBRANCH   5  15
BRANCH   3  27
ATOM     27  C   LIG    1       -8.649  -2.814   0.073  0.00  0.00    +0.391 C 
ATOM     28  F   LIG    1       -8.942  -1.611   0.724  0.00  0.00    -0.202 F 
ATOM     29  F   LIG    1       -9.264  -3.873   0.750  0.00  0.00    -0.202 F 
ENDBRANCH   3  27
TORSDOF 6
