REMARK  Name = ZINC00591443
REMARK                            x       y       z     vdW  Elec       q    Type
REMARK                         _______ _______ _______ _____ _____    ______ ____
ROOT
ATOM      1  C   LIG    1        2.293   1.446   0.157  0.00  0.00    +0.205 A 
ATOM      2  N   LIG    1        1.105   1.993   0.297  0.00  0.00    -0.127 NA
ATOM      3  N   LIG    1        0.024   1.303   0.344  0.00  0.00    -0.153 NA
ATOM      4  C   LIG    1        0.031  -0.010   0.254  0.00  0.00    +0.163 A 
ATOM      5  C   LIG    1        1.262  -0.674   0.102  0.00  0.00    +0.096 A 
ATOM      6  C   LIG    1        1.643  -1.998  -0.021  0.00  0.00    +0.048 A 
ATOM      7  C   LIG    1        3.030  -2.026  -0.143  0.00  0.00    +0.239 A 
ATOM      8  N   LIG    1        3.488  -0.790  -0.099  0.00  0.00    -0.126 NA
ATOM      9  N   LIG    1        2.411   0.085   0.054  0.00  0.00    -0.206 N 
ENDROOT
BRANCH   1  13
ATOM     10  C   LIG    1        5.493   5.377   0.148  0.00  0.00    +0.089 C 
ATOM     11  C   LIG    1        4.867   4.007   0.109  0.00  0.00    +0.135 A 
ATOM     12  C   LIG    1        3.548   3.720   0.198  0.00  0.00    +0.079 A 
ATOM     13  C   LIG    1        3.500   2.299   0.111  0.00  0.00    +0.152 A 
ATOM     14  N   LIG    1        4.743   1.901  -0.025  0.00  0.00    -0.075 NA
ATOM     15  O   LIG    1        5.508   2.838  -0.027  0.00  0.00    -0.359 OA
ENDBRANCH   1  13
BRANCH   6  16
ATOM     16  C   LIG    1        0.725  -3.193  -0.023  0.00  0.00    -0.006 C 
ATOM     17  C   LIG    1       -0.056  -3.238   1.292  0.00  0.00    +0.016 C 
ATOM     18  C   LIG    1        1.553  -4.472  -0.168  0.00  0.00    +0.016 C 
ATOM     19  C   LIG    1       -0.253  -3.083  -1.194  0.00  0.00    +0.016 C 
ENDBRANCH   6  16
BRANCH   7  20
ATOM     20  O   LIG    1        3.788  -3.145  -0.286  0.00  0.00    -0.467 OA
BRANCH  20  21
ATOM     21  C   LIG    1        5.201  -2.962  -0.396  0.00  0.00    +0.306 C 
BRANCH  21  22
ATOM     22  C   LIG    1        5.871  -4.303  -0.546  0.00  0.00    +0.165 A 
ATOM     23  N   LIG    1        6.310  -5.056   0.430  0.00  0.00    -0.216 NA
ATOM     24  C   LIG    1        6.843  -6.172  -0.065  0.00  0.00    +0.245 A 
ATOM     25  N   LIG    1        6.758  -6.141  -1.369  0.00  0.00    -0.158 NA
ATOM     26  N   LIG    1        6.128  -4.932  -1.706  0.00  0.00    -0.249 N 
ATOM     27  C   LIG    1        5.812  -4.452  -3.054  0.00  0.00    +0.174 C 
ENDBRANCH  21  22
ENDBRANCH  20  21
ENDBRANCH   7  20
TORSDOF 5
