REMARK  Name = ZINC00480584
REMARK                            x       y       z     vdW  Elec       q    Type
REMARK                         _______ _______ _______ _____ _____    ______ ____
ROOT
ATOM      1  C   LIG    1       -1.024   3.317  -2.159  0.00  0.00    +0.235 C 
ATOM      2  N   LIG    1       -1.263   3.311  -0.832  0.00  0.00    -0.185 N 
ATOM      3  C   LIG    1       -1.332   2.113   0.020  0.00  0.00    +0.137 C 
ATOM      4  C   LIG    1       -1.624   2.684   1.422  0.00  0.00    +0.087 C 
ATOM      5  C   LIG    1       -1.689   4.178   1.201  0.00  0.00    +0.069 C 
ATOM      6  N   LIG    1       -1.483   4.438  -0.044  0.00  0.00    -0.181 NA
ATOM      7  O   LIG    1       -0.845   2.271  -2.747  0.00  0.00    -0.274 OA
ENDROOT
BRANCH   3   8
ATOM      8  C   LIG    1       -0.017   1.378   0.010  0.00  0.00    -0.025 A 
ATOM      9  C   LIG    1        1.170   2.087   0.002  0.00  0.00    +0.008 A 
ATOM     10  C   LIG    1        2.377   1.414  -0.013  0.00  0.00    +0.038 A 
ATOM     11  C   LIG    1        2.397   0.029  -0.020  0.00  0.00    +0.123 A 
ATOM     12  F   LIG    1        3.577  -0.630  -0.035  0.00  0.00    -0.205 F 
ATOM     13  C   LIG    1        1.208  -0.679  -0.013  0.00  0.00    +0.038 A 
ATOM     14  C   LIG    1        0.002  -0.004   0.002  0.00  0.00    +0.008 A 
ENDBRANCH   3   8
BRANCH   5  15
ATOM     15  C   LIG    1       -1.948   5.183   2.249  0.00  0.00    -0.002 A 
ATOM     16  C   LIG    1       -2.163   4.780   3.569  0.00  0.00    +0.010 A 
ATOM     17  C   LIG    1       -2.400   5.726   4.545  0.00  0.00    +0.001 A 
ATOM     18  C   LIG    1       -2.435   7.070   4.217  0.00  0.00    +0.000 A 
ATOM     19  C   LIG    1       -2.228   7.475   2.910  0.00  0.00    +0.001 A 
ATOM     20  C   LIG    1       -1.985   6.541   1.925  0.00  0.00    +0.010 A 
ENDBRANCH   5  15
BRANCH   1  22
ATOM     21  C   LIG    1       -0.695   4.349  -4.389  0.00  0.00    +0.013 C 
ATOM     22  C   LIG    1       -0.981   4.622  -2.911  0.00  0.00    +0.094 C 
ENDBRANCH   1  22
TORSDOF 3
