REMARK  Name = ZINC00404534
REMARK                            x       y       z     vdW  Elec       q    Type
REMARK                         _______ _______ _______ _____ _____    ______ ____
ROOT
ATOM      1  C   LIG    1       -0.017   1.384   0.010  0.00  0.00    +0.046 A 
ATOM      2  C   LIG    1        1.173   2.085   0.002  0.00  0.00    +0.014 A 
ATOM      3  C   LIG    1        2.376   1.398  -0.013  0.00  0.00    +0.006 A 
ATOM      4  C   LIG    1        2.403  -0.001   0.019  0.00  0.00    -0.034 A 
ATOM      5  C   LIG    1        3.699  -0.755   0.119  0.00  0.00    +0.040 C 
ATOM      6  C   LIG    1        4.835  -0.099  -0.660  0.00  0.00    +0.043 C 
ATOM      7  C   LIG    1        4.869   1.376  -0.357  0.00  0.00    -0.002 A 
ATOM      8  C   LIG    1        5.893   2.235  -0.311  0.00  0.00    +0.109 A 
ATOM      9  N   LIG    1        5.396   3.459  -0.012  0.00  0.00    -0.284 N 
ATOM     10  H   LIG    1        5.912   4.275   0.083  0.00  0.00    +0.188 HD
ATOM     11  N   LIG    1        4.003   3.344   0.137  0.00  0.00    -0.174 NA
ATOM     12  C   LIG    1        1.207  -0.692   0.007  0.00  0.00    +0.049 A 
ATOM     13  C   LIG    1        3.681   2.100  -0.059  0.00  0.00    +0.096 A 
ATOM     14  C   LIG    1        0.002  -0.004   0.002  0.00  0.00    +0.117 A 
ENDROOT
BRANCH  14  15
ATOM     15  O   LIG    1       -1.168  -0.694  -0.009  0.00  0.00    -0.507 OA
ATOM     16  H   LIG    1       -1.501  -0.889  -0.896  0.00  0.00    +0.292 HD
ENDBRANCH  14  15
TORSDOF 1
