REMARK  Name = ZINC00582590
REMARK                            x       y       z     vdW  Elec       q    Type
REMARK                         _______ _______ _______ _____ _____    ______ ____
ROOT
ATOM      1  C   UNK A  0       -2.606  -2.912  -0.105  0.00  0.00    +0.219 A 
ATOM      2  N   UNK A  0       -3.635  -2.410  -0.776  0.00  0.00    -0.197 NA
ATOM      3  C   UNK A  0       -4.475  -3.199  -1.436  0.00  0.00    +0.156 A 
ATOM      4  C   UNK A  0       -4.254  -4.587  -1.411  0.00  0.00    +0.148 A 
ATOM      5  C   UNK A  0       -3.152  -5.073  -0.688  0.00  0.00    +0.167 A 
ATOM      6  N   UNK A  0       -3.176  -6.437  -0.832  0.00  0.00    -0.312 N 
ATOM      7  C   UNK A  0       -4.252  -6.746  -1.612  0.00  0.00    +0.201 A 
ATOM      8  N   UNK A  0       -4.883  -5.660  -1.951  0.00  0.00    -0.231 NA
ATOM      9  N   UNK A  0       -2.358  -4.211  -0.060  0.00  0.00    -0.195 NA
ENDROOT
BRANCH   6  10
ATOM     10  C   UNK A  0       -2.222  -7.387  -0.255  0.00  0.00    +0.084 C 
ATOM     11  C   UNK A  0       -1.537  -8.168  -1.378  0.00  0.00    +0.030 C 
ATOM     12  C   UNK A  0       -2.963  -8.359   0.664  0.00  0.00    +0.030 C 
ENDBRANCH   6  10
BRANCH   1  13
ATOM     13  N   VAL A  1       -1.759  -2.046   0.567  0.00  0.00    -0.308 N 
ATOM     14  H   VAL A  1       -1.000  -2.395   1.059  0.00  0.00    +0.149 HD
BRANCH  13  15
ATOM     15  CA  VAL A  1       -2.010  -0.603   0.533  0.00  0.00    +0.101 C 
BRANCH  15  17
ATOM     16  CG1 VAL A  1        0.321  -0.254  -0.295  0.00  0.00    +0.009 C 
ATOM     17  CB  VAL A  1       -0.699   0.148   0.772  0.00  0.00    +0.005 C 
ATOM     18  CG2 VAL A  1       -0.953   1.655   0.692  0.00  0.00    +0.009 C 
ENDBRANCH  15  17
BRANCH  15  19
ATOM     19  C   VAL A  1       -3.015  -0.235   1.627  0.00  0.00    +0.178 C 
BRANCH  19  20
ATOM     20  O   VAL A  1       -2.440  -0.494   2.909  0.00  0.00    -0.393 OA
ATOM     21  H   VAL A  1       -3.023  -0.283   3.651  0.00  0.00    +0.209 HD
ENDBRANCH  19  20
ENDBRANCH  15  19
ENDBRANCH  13  15
ENDBRANCH   1  13
BRANCH   3  22
ATOM     22  N   UNK A  0       -5.546  -2.666  -2.134  0.00  0.00    -0.298 N 
ATOM     23  H   UNK A  0       -6.202  -3.254  -2.540  0.00  0.00    +0.154 HD
BRANCH  22  24
ATOM     24  C   UNK A  0       -5.683  -1.286  -2.251  0.00  0.00    +0.034 A 
ATOM     25  C   UNK A  0       -4.553  -0.488  -2.417  0.00  0.00    +0.024 A 
ATOM     26  C   UNK A  0       -4.678   0.866  -2.533  0.00  0.00    +0.018 A 
ATOM     27  C   UNK A  0       -5.945   1.459  -2.486  0.00  0.00    +0.077 A 
ATOM     28  C   UNK A  0       -7.083   0.659  -2.320  0.00  0.00    +0.057 A 
ATOM     29 CL   UNK A  0       -8.658   1.386  -2.260  0.00  0.00    -0.083 Cl
ATOM     30  C   UNK A  0       -6.948  -0.708  -2.209  0.00  0.00    +0.044 A 
BRANCH  27  31
ATOM     31  C   UNK A  0       -6.081   2.918  -2.610  0.00  0.00    +0.338 C 
ATOM     32  O   UNK A  0       -5.086   3.615  -2.755  0.00  0.00    -0.245 OA
BRANCH  31  33
ATOM     33  O   UNK A  0       -7.190   3.435  -2.569  0.00  0.00    -0.477 OA
ATOM     34  H   UNK A  0       -7.952   2.901  -2.458  0.00  0.00    +0.295 HD
ENDBRANCH  31  33
ENDBRANCH  27  31
ENDBRANCH  22  24
ENDBRANCH   3  22
TORSDOF 10
