REMARK  Name = ZINC00602172
REMARK                            x       y       z     vdW  Elec       q    Type
REMARK                         _______ _______ _______ _____ _____    ______ ____
ROOT
ATOM      1  C   LIG    1        0.334  -0.371   2.546  0.00  0.00    +0.038 C 
ATOM      2  C   LIG    1       -0.840  -0.865   3.396  0.00  0.00    -0.009 C 
ATOM      3  C   LIG    1       -0.614  -0.461   4.854  0.00  0.00    -0.078 C 
ATOM      4  N   LIG    1        0.633  -1.061   5.344  0.00  0.00    +0.380 N 
ATOM      5  H   LIG    1        0.588  -2.063   5.235  0.00  0.00    -0.082 HD
ATOM      6  C   LIG    1        1.772  -0.537   4.581  0.00  0.00    -0.078 C 
ATOM      7  C   LIG    1        1.637  -0.945   3.112  0.00  0.00    -0.009 C 
ENDROOT
BRANCH   1  13
ATOM      8  C   LIG    1        0.111   1.502  -0.003  0.00  0.00    +0.049 C 
ATOM      9  C   LIG    1        0.058  -0.005  -0.004  0.00  0.00    +0.020 A 
ATOM     10  C   LIG    1       -0.088  -0.799  -1.099  0.00  0.00    +0.170 A 
ATOM     11  O   LIG    1       -0.087  -2.079  -0.679  0.00  0.00    -0.354 OA
ATOM     12  N   LIG    1        0.065  -2.073   0.729  0.00  0.00    -0.082 NA
ATOM     13  C   LIG    1        0.157  -0.834   1.123  0.00  0.00    +0.090 A 
BRANCH  10  14
ATOM     14  C   LIG    1       -0.223  -0.340  -2.497  0.00  0.00    +0.020 A 
ATOM     15  C   LIG    1        0.649   0.624  -3.006  0.00  0.00    +0.013 A 
ATOM     16  C   LIG    1        0.518   1.048  -4.311  0.00  0.00    +0.021 A 
ATOM     17  C   LIG    1       -0.476   0.520  -5.118  0.00  0.00    +0.041 A 
ATOM     18 CL   LIG    1       -0.635   1.060  -6.760  0.00  0.00    -0.084 Cl
ATOM     19  C   LIG    1       -1.344  -0.437  -4.619  0.00  0.00    +0.021 A 
ATOM     20  C   LIG    1       -1.219  -0.874  -3.317  0.00  0.00    +0.013 A 
ENDBRANCH  10  14
ENDBRANCH   1  13
BRANCH   4  21
ATOM     21  C   LIG    1        0.806  -0.734   6.766  0.00  0.00    -0.074 C 
BRANCH  21  22
ATOM     22  C   LIG    1        2.038  -1.461   7.310  0.00  0.00    +0.016 C 
BRANCH  22  23
ATOM     23  C   LIG    1        2.216  -1.125   8.768  0.00  0.00    -0.049 A 
ATOM     24  C   LIG    1        2.977  -0.032   9.138  0.00  0.00    +0.003 A 
ATOM     25  C   LIG    1        3.140   0.275  10.476  0.00  0.00    +0.000 A 
ATOM     26  C   LIG    1        2.542  -0.510  11.444  0.00  0.00    +0.000 A 
ATOM     27  C   LIG    1        1.780  -1.603  11.074  0.00  0.00    +0.000 A 
ATOM     28  C   LIG    1        1.613  -1.908   9.736  0.00  0.00    +0.003 A 
ENDBRANCH  22  23
ENDBRANCH  21  22
ENDBRANCH   4  21
TORSDOF 5
