REMARK  Name = ZINC00395525
REMARK                            x       y       z     vdW  Elec       q    Type
REMARK                         _______ _______ _______ _____ _____    ______ ____
ROOT
ATOM      1  C   LIG    1        3.695  -0.684  -0.037  0.00  0.00    +0.249 A 
ATOM      2  N   LIG    1        4.886  -0.138  -0.041  0.00  0.00    -0.107 NA
ATOM      3  N   LIG    1        5.781  -1.062  -0.056  0.00  0.00    -0.101 NA
ATOM      4  C   LIG    1        5.194  -2.237  -0.063  0.00  0.00    +0.275 A 
ATOM      5  O   LIG    1        3.865  -2.025  -0.046  0.00  0.00    -0.411 OA
ENDROOT
BRANCH   1   9
ATOM      6  C   LIG    1       -0.017   1.379   0.010  0.00  0.00    +0.000 A 
ATOM      7  C   LIG    1        1.168   2.094   0.002  0.00  0.00    +0.001 A 
ATOM      8  C   LIG    1        2.377   1.430  -0.013  0.00  0.00    +0.013 A 
ATOM      9  C   LIG    1        2.404   0.034  -0.021  0.00  0.00    +0.039 A 
ATOM     10  C   LIG    1        1.204  -0.681  -0.013  0.00  0.00    +0.013 A 
ATOM     11  C   LIG    1        0.002  -0.004   0.002  0.00  0.00    +0.001 A 
ENDBRANCH   1   9
BRANCH   4  12
ATOM     12  S   LIG    1        6.000  -3.804  -0.084  0.00  0.00    -0.083 S 
ATOM     13  H   LIG    1        7.347  -3.621  -0.097  0.00  0.00    +0.112 HD
ENDBRANCH   4  12
TORSDOF 2
