REMARK  Name = ZINC00608180
REMARK                            x       y       z     vdW  Elec       q    Type
REMARK                         _______ _______ _______ _____ _____    ______ ____
ROOT
ATOM      1  C   LIG    1        0.127   1.362  -0.215  0.00  0.00    +0.088 C 
ATOM      2  C   LIG    1        0.080  -0.142  -0.129  0.00  0.00    +0.135 A 
ATOM      3  N   LIG    1        0.042  -0.978  -1.135  0.00  0.00    -0.134 NA
ATOM      4  N   LIG    1        0.016  -2.190  -0.698  0.00  0.00    -0.132 NA
ATOM      5  C   LIG    1        0.041  -2.189   0.602  0.00  0.00    +0.160 A 
ATOM      6  C   LIG    1        0.045  -3.370   1.536  0.00  0.00    +0.218 C 
ATOM      7  N   LIG    1        1.258  -3.326   2.366  0.00  0.00    -0.275 NA
ATOM      8  C   LIG    1        1.498  -2.377   3.210  0.00  0.00    +0.077 C 
ATOM      9  C   LIG    1        0.689  -1.150   3.388  0.00  0.00    +0.032 A 
ATOM     10  C   LIG    1        0.485  -0.522   4.686  0.00  0.00    +0.023 A 
ATOM     11  C   LIG    1       -0.227   0.617   4.704  0.00  0.00    -0.007 A 
ATOM     12  S   LIG    1       -0.637   0.864   2.990  0.00  0.00    -0.075 S 
ATOM     13  C   LIG    1        0.081  -0.490   2.327  0.00  0.00    +0.097 A 
ATOM     14  N   LIG    1        0.075  -0.886   1.003  0.00  0.00    -0.275 N 
ENDROOT
BRANCH   8  15
ATOM     15  C   LIG    1        2.689  -2.530   4.077  0.00  0.00    +0.019 A 
ATOM     16  C   LIG    1        2.740  -3.555   5.023  0.00  0.00    +0.011 A 
ATOM     17  C   LIG    1        3.852  -3.693   5.827  0.00  0.00    +0.001 A 
ATOM     18  C   LIG    1        4.916  -2.818   5.699  0.00  0.00    +0.001 A 
ATOM     19  C   LIG    1        4.873  -1.800   4.764  0.00  0.00    +0.020 A 
ATOM     20  C   LIG    1        3.768  -1.654   3.948  0.00  0.00    +0.050 A 
ATOM     21 CL   LIG    1        3.717  -0.380   2.770  0.00  0.00    -0.083 Cl
ENDBRANCH   8  15
BRANCH  11  22
ATOM     22  C   LIG    1       -0.592   1.476   5.887  0.00  0.00    +0.051 C 
BRANCH  22  23
ATOM     23  C   LIG    1        0.497   2.528   6.109  0.00  0.00    +0.101 C 
BRANCH  23  24
ATOM     24  C   LIG    1        0.132   3.387   7.292  0.00  0.00    +0.216 C 
ATOM     25  N   LIG    1        0.950   4.387   7.676  0.00  0.00    -0.297 N 
ATOM     26  C   LIG    1        2.201   4.663   6.952  0.00  0.00    +0.136 C 
ATOM     27  C   LIG    1        2.245   6.158   6.617  0.00  0.00    +0.179 C 
ATOM     28  O   LIG    1        2.022   6.915   7.810  0.00  0.00    -0.377 OA
ATOM     29  C   LIG    1        0.740   6.702   8.406  0.00  0.00    +0.179 C 
ATOM     30  C   LIG    1        0.615   5.238   8.829  0.00  0.00    +0.136 C 
ATOM     31  O   LIG    1       -0.897   3.178   7.899  0.00  0.00    -0.276 OA
ENDBRANCH  23  24
ENDBRANCH  22  23
ENDBRANCH  11  22
TORSDOF 4
