REMARK  Name = ZINC00601265
REMARK                            x       y       z     vdW  Elec       q    Type
REMARK                         _______ _______ _______ _____ _____    ______ ____
ROOT
ATOM      1  C   LIG    1       -0.145   1.493   0.130  0.00  0.00    +0.066 C 
ATOM      2  C   LIG    1       -0.059  -0.010   0.059  0.00  0.00    +0.049 C 
ATOM      3  C   LIG    1       -1.216  -0.732  -0.002  0.00  0.00    +0.069 C 
ATOM      4  C   LIG    1       -1.098  -2.244  -0.073  0.00  0.00    +0.096 C 
ATOM      5  C   LIG    1        0.316  -2.798  -0.068  0.00  0.00    +0.065 C 
ATOM      6  C   LIG    1        1.360  -1.874   0.000  0.00  0.00    +0.049 C 
ATOM      7  C   LIG    1        2.782  -2.373   0.008  0.00  0.00    +0.066 C 
ATOM      8  C   LIG    1        0.557  -4.153  -0.129  0.00  0.00    +0.285 C 
ATOM      9  N   LIG    1        1.136  -0.581   0.053  0.00  0.00    -0.256 NA
ENDROOT
BRANCH   4  10
ATOM     10  C   LIG    1       -1.778  -2.710  -1.334  0.00  0.00    -0.033 A 
ATOM     11  C   LIG    1       -1.331  -2.268  -2.565  0.00  0.00    +0.005 A 
ATOM     12  C   LIG    1       -1.955  -2.696  -3.722  0.00  0.00    +0.003 A 
ATOM     13  C   LIG    1       -3.026  -3.567  -3.648  0.00  0.00    +0.032 A 
ATOM     14  C   LIG    1       -3.473  -4.010  -2.417  0.00  0.00    +0.122 A 
ATOM     15  C   LIG    1       -2.846  -3.585  -1.260  0.00  0.00    +0.037 A 
BRANCH  14  16
ATOM     16  N   LIG    1       -4.620  -4.942  -2.337  0.00  0.00    +0.006 N 
ATOM     17  O   LIG    1       -5.166  -5.316  -3.349  0.00  0.00    -0.130 OA
BRANCH  16  18
ATOM     18  O   LIG    1       -5.010  -5.330  -1.261  0.00  0.00    -0.396 OA
ATOM     19  H   LIG    1       -4.587  -5.040  -0.477  0.00  0.00    +0.329 HD
ENDBRANCH  16  18
ENDBRANCH  14  16
ENDBRANCH   4  10
BRANCH   3  20
ATOM     20  C   LIG    1       -2.471  -0.099   0.001  0.00  0.00    +0.338 C 
ATOM     21  O   LIG    1       -2.541   1.116   0.059  0.00  0.00    -0.245 OA
BRANCH  20  22
ATOM     22  O   LIG    1       -3.601  -0.837  -0.060  0.00  0.00    -0.460 OA
BRANCH  22  23
ATOM     23  C   LIG    1       -4.841  -0.128  -0.053  0.00  0.00    +0.248 C 
BRANCH  23  24
ATOM     24  C   LIG    1       -5.999  -1.125  -0.128  0.00  0.00    +0.125 C 
BRANCH  24  25
ATOM     25  N   LIG    1       -6.016  -1.949   1.089  0.00  0.00    -0.298 NA
ATOM     26  C   LIG    1       -6.330  -1.136   2.271  0.00  0.00    +0.105 C 
BRANCH  25  27
ATOM     27  C   LIG    1       -6.957  -3.068   0.954  0.00  0.00    +0.119 C 
BRANCH  27  28
ATOM     28  C   LIG    1       -6.771  -4.022   2.105  0.00  0.00    -0.033 A 
ATOM     29  C   LIG    1       -5.869  -5.064   2.000  0.00  0.00    +0.005 A 
ATOM     30  C   LIG    1       -5.698  -5.940   3.056  0.00  0.00    +0.000 A 
ATOM     31  C   LIG    1       -6.430  -5.773   4.217  0.00  0.00    +0.000 A 
ATOM     32  C   LIG    1       -7.332  -4.731   4.322  0.00  0.00    +0.000 A 
ATOM     33  C   LIG    1       -7.499  -3.853   3.268  0.00  0.00    +0.005 A 
ENDBRANCH  27  28
ENDBRANCH  25  27
ENDBRANCH  24  25
ENDBRANCH  23  24
ENDBRANCH  22  23
ENDBRANCH  20  22
ENDBRANCH   3  20
BRANCH   8  34
ATOM     34  O   LIG    1       -0.470  -5.023  -0.074  0.00  0.00    -0.467 OA
ATOM     35  C   LIG    1       -0.147  -6.413  -0.143  0.00  0.00    +0.280 C 
ENDBRANCH   8  34
BRANCH   8  36
ATOM     36  O   LIG    1        1.821  -4.608  -0.244  0.00  0.00    -0.480 OA
ATOM     37  H   LIG    1        2.535  -4.002  -0.282  0.00  0.00    +0.295 HD
ENDBRANCH   8  36
TORSDOF 12
