REMARK  Name = ZINC00475636
REMARK                            x       y       z     vdW  Elec       q    Type
REMARK                         _______ _______ _______ _____ _____    ______ ____
ROOT
ATOM      1  C   LIG    1        0.058  -4.255  -0.021  0.00  0.00    +0.080 A 
ATOM      2  C   LIG    1        0.068  -4.952   1.153  0.00  0.00    +0.077 A 
ATOM      3  S   LIG    1        0.089  -6.633   0.545  0.00  0.00    -0.059 S 
ATOM      4  C   LIG    1        0.083  -6.242  -1.199  0.00  0.00    +0.178 A 
ATOM      5  N   LIG    1        0.060  -4.922  -1.174  0.00  0.00    -0.224 NA
ENDROOT
BRANCH   1  10
ATOM      6  C   LIG    1       -0.018   1.503   0.010  0.00  0.00    +0.044 C 
ATOM      7  C   LIG    1        0.002  -0.004   0.002  0.00  0.00    -0.050 A 
ATOM      8  C   LIG    1        0.006  -0.686  -1.201  0.00  0.00    +0.004 A 
ATOM      9  C   LIG    1        0.024  -2.066  -1.215  0.00  0.00    +0.010 A 
ATOM     10  C   LIG    1        0.039  -2.772  -0.013  0.00  0.00    +0.001 A 
ATOM     11  C   LIG    1        0.036  -2.079   1.196  0.00  0.00    +0.010 A 
ATOM     12  C   LIG    1        0.023  -0.699   1.198  0.00  0.00    +0.004 A 
ENDBRANCH   1  10
BRANCH   4  13
ATOM     13  N   LIG    1        0.093  -7.097  -2.289  0.00  0.00    -0.194 N 
ATOM     14  H   LIG    1        0.089  -6.730  -3.202  0.00  0.00    +0.176 HD
BRANCH  13  15
ATOM     15  S   LIG    1        0.114  -8.736  -2.054  0.00  0.00    +0.074 S 
ATOM     16  O   LIG    1       -1.127  -9.076  -1.451  0.00  0.00    -0.150 OA
ATOM     17  O   LIG    1        1.364  -9.044  -1.452  0.00  0.00    -0.150 OA
BRANCH  15  18
ATOM     18  C   LIG    1        0.123  -9.490  -3.647  0.00  0.00    +0.109 A 
ATOM     19  C   LIG    1       -1.071  -9.796  -4.274  0.00  0.00    +0.029 A 
ATOM     20  C   LIG    1       -1.064 -10.387  -5.523  0.00  0.00    +0.005 A 
ATOM     21  C   LIG    1        0.137 -10.672  -6.146  0.00  0.00    -0.050 A 
ATOM     22  C   LIG    1        0.144 -11.318  -7.508  0.00  0.00    +0.044 C 
ATOM     23  C   LIG    1        1.331 -10.366  -5.520  0.00  0.00    +0.005 A 
ATOM     24  C   LIG    1        1.324  -9.770  -4.272  0.00  0.00    +0.029 A 
ENDBRANCH  15  18
ENDBRANCH  13  15
ENDBRANCH   4  13
TORSDOF 4
