REMARK  Name = ZINC00364427
REMARK                            x       y       z     vdW  Elec       q    Type
REMARK                         _______ _______ _______ _____ _____    ______ ____
ROOT
ATOM      1  N   LIG    1        1.644  -4.999  -0.172  0.00  0.00    -0.216 N 
ATOM      2  H   LIG    1        1.792  -5.869   0.230  0.00  0.00    +0.174 HD
ENDROOT
BRANCH   1   3
ATOM      3  C   LIG    1        2.385  -4.612  -1.291  0.00  0.00    +0.049 A 
ATOM      4  C   LIG    1        1.794  -4.605  -2.549  0.00  0.00    +0.024 A 
ATOM      5  C   LIG    1        2.528  -4.222  -3.653  0.00  0.00    +0.002 A 
ATOM      6  C   LIG    1        3.851  -3.845  -3.509  0.00  0.00    +0.012 A 
ATOM      7  C   LIG    1        4.442  -3.850  -2.259  0.00  0.00    +0.057 A 
ATOM      8  C   LIG    1        3.711  -4.227  -1.149  0.00  0.00    +0.036 A 
BRANCH   7   9
ATOM      9  C   LIG    1        5.884  -3.439  -2.107  0.00  0.00    +0.417 C 
ATOM     10  F   LIG    1        6.618  -4.502  -1.569  0.00  0.00    -0.166 F 
ATOM     11  F   LIG    1        5.967  -2.336  -1.251  0.00  0.00    -0.166 F 
ATOM     12  F   LIG    1        6.407  -3.099  -3.359  0.00  0.00    -0.166 F 
ENDBRANCH   7   9
ENDBRANCH   1   3
BRANCH   1  13
ATOM     13  S   LIG    1        0.513  -3.972   0.468  0.00  0.00    +0.072 S 
ATOM     14  O   LIG    1       -0.318  -3.561  -0.609  0.00  0.00    -0.150 OA
ATOM     15  O   LIG    1       -0.003  -4.610   1.628  0.00  0.00    -0.150 OA
BRANCH  13  20
ATOM     16  C   LIG    1        3.439   0.952   2.364  0.00  0.00    +0.044 C 
ATOM     17  C   LIG    1        2.708  -0.278   1.891  0.00  0.00    -0.050 A 
ATOM     18  C   LIG    1        2.126  -0.296   0.637  0.00  0.00    +0.005 A 
ATOM     19  C   LIG    1        1.456  -1.424   0.203  0.00  0.00    +0.029 A 
ATOM     20  C   LIG    1        1.368  -2.535   1.021  0.00  0.00    +0.109 A 
ATOM     21  C   LIG    1        1.951  -2.517   2.275  0.00  0.00    +0.029 A 
ATOM     22  C   LIG    1        2.625  -1.390   2.707  0.00  0.00    +0.005 A 
ENDBRANCH  13  20
ENDBRANCH   1  13
TORSDOF 4
