REMARK  Name = ZINC00463429
REMARK                            x       y       z     vdW  Elec       q    Type
REMARK                         _______ _______ _______ _____ _____    ______ ____
ROOT
ATOM      1  C   LIG    1        3.833   7.759   0.185  0.00  0.00    +0.002 A 
ATOM      2  C   LIG    1        3.263   9.014   0.297  0.00  0.00    +0.002 A 
ATOM      3  C   LIG    1        1.888   9.154   0.319  0.00  0.00    +0.025 A 
ATOM      4  C   LIG    1        1.075   8.034   0.223  0.00  0.00    +0.051 A 
ATOM      5  C   LIG    1        1.650   6.768   0.116  0.00  0.00    +0.055 A 
ATOM      6  C   LIG    1        3.030   6.637   0.095  0.00  0.00    +0.025 A 
ENDROOT
BRANCH   4   7
ATOM      7  N   LIG    1       -0.317   8.174   0.239  0.00  0.00    -0.328 N 
ATOM      8  C   LIG    1       -0.784   8.920  -0.936  0.00  0.00    +0.105 C 
ATOM      9  C   LIG    1       -2.315   8.927  -0.962  0.00  0.00    +0.019 C 
ATOM     10  C   LIG    1       -2.838   9.579   0.321  0.00  0.00    +0.003 C 
ATOM     11  C   LIG    1       -2.297   8.812   1.531  0.00  0.00    +0.019 C 
ATOM     12  C   LIG    1       -0.768   8.808   1.484  0.00  0.00    +0.105 C 
ENDBRANCH   4   7
BRANCH   5  13
ATOM     13  N   LIG    1        0.835   5.632   0.025  0.00  0.00    -0.277 N 
ATOM     14  H   LIG    1       -0.065   5.650   0.387  0.00  0.00    +0.155 HD
ATOM     15  C   LIG    1        1.301   4.514  -0.566  0.00  0.00    +0.284 C 
ATOM     16  O   LIG    1        2.391   4.521  -1.109  0.00  0.00    -0.266 OA
BRANCH  15  17
ATOM     17  C   LIG    1        0.497   3.289  -0.555  0.00  0.00    +0.191 A 
ATOM     18  C   LIG    1        0.848   2.093  -1.113  0.00  0.00    +0.056 A 
ATOM     19  C   LIG    1       -0.210   1.206  -0.867  0.00  0.00    +0.058 A 
ATOM     20  C   LIG    1       -1.154   1.892  -0.182  0.00  0.00    +0.171 A 
ATOM     21 BR   LIG    1       -2.809   1.196   0.412  0.00  0.00    -0.008 Br
ATOM     22  O   LIG    1       -0.721   3.146   0.009  0.00  0.00    -0.444 OA
ENDBRANCH  15  17
ENDBRANCH   5  13
TORSDOF 3
