REMARK  Name = ZINC00643046
REMARK                            x       y       z     vdW  Elec       q    Type
REMARK                         _______ _______ _______ _____ _____    ______ ____
ROOT
ATOM      1  C   LIG    1        3.164  -0.645   1.685  0.00  0.00    +0.153 A 
ATOM      2  C   LIG    1        3.073  -2.058   1.747  0.00  0.00    +0.136 A 
ATOM      3  C   LIG    1        4.267  -2.798   1.885  0.00  0.00    +0.136 A 
ATOM      4  N   LIG    1        5.432  -2.146   1.954  0.00  0.00    -0.209 NA
ATOM      5  C   LIG    1        5.462  -0.828   1.893  0.00  0.00    +0.220 A 
ATOM      6  C   LIG    1        4.177  -4.210   1.947  0.00  0.00    +0.153 A 
ATOM      7  N   LIG    1        2.977  -4.766   1.871  0.00  0.00    -0.197 NA
ATOM      8  C   LIG    1        1.878  -4.028   1.740  0.00  0.00    +0.220 A 
ATOM      9  N   LIG    1        1.908  -2.710   1.679  0.00  0.00    -0.209 NA
ATOM     10  N   LIG    1        4.364  -0.090   1.756  0.00  0.00    -0.197 NA
ENDROOT
BRANCH   1  14
ATOM     11  C   LIG    1        0.488   2.490   1.299  0.00  0.00    +0.003 C 
ATOM     12  C   LIG    1        1.158   2.139   2.630  0.00  0.00    +0.019 C 
ATOM     13  C   LIG    1        1.310   0.618   2.735  0.00  0.00    +0.106 C 
ATOM     14  N   LIG    1        2.030   0.132   1.550  0.00  0.00    -0.313 N 
ATOM     15  C   LIG    1        1.522   0.489   0.218  0.00  0.00    +0.106 C 
ATOM     16  C   LIG    1        1.368   2.011   0.142  0.00  0.00    +0.019 C 
ENDBRANCH   1  14
BRANCH   6  17
ATOM     17  N   LIG    1        5.310  -4.988   2.082  0.00  0.00    -0.313 N 
ATOM     18  C   LIG    1        5.817  -5.348   3.413  0.00  0.00    +0.106 C 
ATOM     19  C   LIG    1        5.972  -6.870   3.486  0.00  0.00    +0.019 C 
ATOM     20  C   LIG    1        6.854  -7.345   2.329  0.00  0.00    +0.003 C 
ATOM     21  C   LIG    1        6.186  -6.991   0.998  0.00  0.00    +0.019 C 
ATOM     22  C   LIG    1        6.029  -5.475   0.897  0.00  0.00    +0.106 C 
ENDBRANCH   6  17
BRANCH   8  23
ATOM     23  N   LIG    1        0.652  -4.669   1.666  0.00  0.00    -0.295 N 
BRANCH  23  24
ATOM     24  C   LIG    1        0.585  -6.131   1.731  0.00  0.00    +0.136 C 
BRANCH  24  25
ATOM     25  C   LIG    1        0.438  -6.570   3.189  0.00  0.00    +0.174 C 
BRANCH  25  26
ATOM     26  O   LIG    1       -0.815  -6.111   3.701  0.00  0.00    -0.393 OA
ATOM     27  H   LIG    1       -0.976  -6.354   4.623  0.00  0.00    +0.209 HD
ENDBRANCH  25  26
ENDBRANCH  24  25
ENDBRANCH  23  24
BRANCH  23  28
ATOM     28  C   LIG    1       -0.577  -3.885   1.522  0.00  0.00    +0.136 C 
BRANCH  28  29
ATOM     29  C   LIG    1       -0.881  -3.682   0.036  0.00  0.00    +0.174 C 
BRANCH  29  30
ATOM     30  O   LIG    1       -1.165  -4.944  -0.569  0.00  0.00    -0.393 OA
ATOM     31  H   LIG    1       -1.367  -4.892  -1.513  0.00  0.00    +0.209 HD
ENDBRANCH  29  30
ENDBRANCH  28  29
ENDBRANCH  23  28
ENDBRANCH   8  23
BRANCH   5  32
ATOM     32  N   LIG    1        6.688  -0.187   1.968  0.00  0.00    -0.295 N 
BRANCH  32  33
ATOM     33  C   LIG    1        7.917  -0.971   2.112  0.00  0.00    +0.136 C 
BRANCH  33  34
ATOM     34  C   LIG    1        8.469  -1.314   0.727  0.00  0.00    +0.174 C 
BRANCH  34  35
ATOM     35  O   LIG    1        8.863  -0.112   0.061  0.00  0.00    -0.393 OA
ATOM     36  H   LIG    1        9.224  -0.254  -0.825  0.00  0.00    +0.209 HD
ENDBRANCH  34  35
ENDBRANCH  33  34
ENDBRANCH  32  33
BRANCH  32  37
ATOM     37  C   LIG    1        6.755   1.275   1.903  0.00  0.00    +0.136 C 
BRANCH  37  38
ATOM     38  C   LIG    1        6.654   1.854   3.315  0.00  0.00    +0.174 C 
BRANCH  38  39
ATOM     39  O   LIG    1        7.797   1.456   4.076  0.00  0.00    -0.393 OA
ATOM     40  H   LIG    1        7.800   1.788   4.984  0.00  0.00    +0.209 HD
ENDBRANCH  38  39
ENDBRANCH  37  38
ENDBRANCH  32  37
ENDBRANCH   5  32
TORSDOF 16
