REMARK  Name = ZINC00388510
REMARK                            x       y       z     vdW  Elec       q    Type
REMARK                         _______ _______ _______ _____ _____    ______ ____
ROOT
ATOM      1  C   LIG    1       -0.017   1.374   0.010  0.00  0.00    +0.001 A 
ATOM      2  C   LIG    1        1.166   2.103   0.002  0.00  0.00    +0.001 A 
ATOM      3  C   LIG    1        2.388   1.465  -0.011  0.00  0.00    +0.015 A 
ATOM      4  C   LIG    1        2.429   0.076  -0.018  0.00  0.00    +0.068 A 
ATOM      5  C   LIG    1        1.225  -0.670  -0.013  0.00  0.00    +0.012 A 
ATOM      6  C   LIG    1        1.335  -2.132  -0.030  0.00  0.00    +0.103 A 
ATOM      7 CL   LIG    1       -0.058  -3.119  -0.344  0.00  0.00    -0.078 Cl
ATOM      8  C   LIG    1        2.536  -2.695   0.203  0.00  0.00    +0.217 A 
ATOM      9 CL   LIG    1        2.679  -4.425   0.167  0.00  0.00    -0.042 Cl
ATOM     10  O   LIG    1        3.629  -1.951   0.465  0.00  0.00    -0.409 OA
ATOM     11  C   LIG    1        3.685  -0.691  -0.028  0.00  0.00    +0.346 A 
ATOM     12  O   LIG    1        4.720  -0.217  -0.457  0.00  0.00    -0.244 OA
ATOM     13  C   LIG    1        0.002  -0.004   0.002  0.00  0.00    +0.010 A 
ENDROOT
TORSDOF 0
