REMARK  Name = ZINC00582597
REMARK                            x       y       z     vdW  Elec       q    Type
REMARK                         _______ _______ _______ _____ _____    ______ ____
ROOT
ATOM      1  C   UNK A  0       -2.518  -2.892  -0.078  0.00  0.00    +0.219 A 
ATOM      2  N   UNK A  0       -3.550  -2.387  -0.741  0.00  0.00    -0.197 NA
ATOM      3  C   UNK A  0       -4.400  -3.173  -1.391  0.00  0.00    +0.156 A 
ATOM      4  C   UNK A  0       -4.185  -4.562  -1.365  0.00  0.00    +0.148 A 
ATOM      5  C   UNK A  0       -3.079  -5.052  -0.651  0.00  0.00    +0.167 A 
ATOM      6  N   UNK A  0       -3.111  -6.416  -0.792  0.00  0.00    -0.312 N 
ATOM      7  C   UNK A  0       -4.195  -6.723  -1.561  0.00  0.00    +0.201 A 
ATOM      8  N   UNK A  0       -4.824  -5.634  -1.896  0.00  0.00    -0.231 NA
ATOM      9  N   UNK A  0       -2.276  -4.192  -0.032  0.00  0.00    -0.195 NA
ENDROOT
BRANCH   6  10
ATOM     10  C   UNK A  0       -2.155  -7.369  -0.221  0.00  0.00    +0.084 C 
ATOM     11  C   UNK A  0       -1.485  -8.156  -1.349  0.00  0.00    +0.030 C 
ATOM     12  C   UNK A  0       -2.892  -8.336   0.708  0.00  0.00    +0.030 C 
ENDBRANCH   6  10
BRANCH   1  13
ATOM     13  N   VAL A  1       -1.661  -2.028   0.584  0.00  0.00    -0.308 N 
ATOM     14  H   VAL A  1       -0.898  -2.380   1.070  0.00  0.00    +0.149 HD
BRANCH  13  15
ATOM     15  CA  VAL A  1       -1.905  -0.584   0.550  0.00  0.00    +0.101 C 
BRANCH  15  17
ATOM     16  CG1 VAL A  1        0.419  -0.247  -0.302  0.00  0.00    +0.009 C 
ATOM     17  CB  VAL A  1       -0.589   0.162   0.775  0.00  0.00    +0.005 C 
ATOM     18  CG2 VAL A  1       -0.837   1.669   0.695  0.00  0.00    +0.009 C 
ENDBRANCH  15  17
BRANCH  15  19
ATOM     19  C   VAL A  1       -2.898  -0.209   1.652  0.00  0.00    +0.178 C 
BRANCH  19  20
ATOM     20  O   VAL A  1       -2.313  -0.469   2.929  0.00  0.00    -0.393 OA
ATOM     21  H   VAL A  1       -2.888  -0.253   3.676  0.00  0.00    +0.209 HD
ENDBRANCH  19  20
ENDBRANCH  15  19
ENDBRANCH  13  15
ENDBRANCH   1  13
BRANCH   3  22
ATOM     22  N   UNK A  0       -5.475  -2.637  -2.080  0.00  0.00    -0.297 N 
ATOM     23  H   UNK A  0       -6.137  -3.224  -2.478  0.00  0.00    +0.154 HD
BRANCH  22  24
ATOM     24  C   UNK A  0       -5.607  -1.251  -2.200  0.00  0.00    +0.036 A 
ATOM     25  C   UNK A  0       -4.479  -0.458  -2.366  0.00  0.00    +0.046 A 
ATOM     26  C   UNK A  0       -4.613   0.918  -2.486  0.00  0.00    +0.028 A 
ATOM     27  C   UNK A  0       -5.875   1.498  -2.438  0.00  0.00    +0.042 A 
ATOM     28  C   UNK A  0       -6.996   0.707  -2.272  0.00  0.00    +0.044 A 
ATOM     29 CL   UNK A  0       -8.571   1.435  -2.212  0.00  0.00    -0.083 Cl
ATOM     30  C   UNK A  0       -6.866  -0.666  -2.159  0.00  0.00    +0.043 A 
BRANCH  26  31
ATOM     31  N   UNK A  0       -3.481   1.719  -2.652  0.00  0.00    -0.358 N 
ATOM     32  H   UNK A  0       -3.575   2.680  -2.736  0.00  0.00    +0.142 HD
ATOM     33  H   UNK A  0       -2.601   1.313  -2.685  0.00  0.00    +0.142 HD
ENDBRANCH  26  31
ENDBRANCH  22  24
ENDBRANCH   3  22
TORSDOF 9
