REMARK  Name = ZINC00368322
REMARK                            x       y       z     vdW  Elec       q    Type
REMARK                         _______ _______ _______ _____ _____    ______ ____
ROOT
ATOM      1  C   LIG    1        1.379   4.719   0.015  0.00  0.00    +0.026 C 
ATOM      2  C   LIG    1        0.617   3.573  -0.069  0.00  0.00    +0.102 C 
ATOM      3  C   LIG    1       -0.816   3.469  -0.407  0.00  0.00    +0.266 C 
ATOM      4  N   LIG    1       -1.132   2.161  -0.374  0.00  0.00    -0.223 N 
ATOM      5  H   LIG    1       -2.013   1.800  -0.561  0.00  0.00    +0.174 HD
ATOM      6  N   LIG    1       -0.017   1.396  -0.030  0.00  0.00    -0.184 N 
ATOM      7  O   LIG    1       -1.567   4.390  -0.670  0.00  0.00    -0.268 OA
ATOM      8  C   LIG    1        1.058   2.183   0.160  0.00  0.00    +0.272 C 
ATOM      9  O   LIG    1        2.179   1.819   0.463  0.00  0.00    -0.268 OA
ENDROOT
BRANCH   6  10
ATOM     10  C   LIG    1       -0.015   0.002   0.093  0.00  0.00    +0.057 A 
ATOM     11  C   LIG    1        1.155  -0.665   0.429  0.00  0.00    +0.028 A 
ATOM     12  C   LIG    1        1.154  -2.040   0.556  0.00  0.00    +0.040 A 
ATOM     13  C   LIG    1       -0.011  -2.755   0.337  0.00  0.00    +0.124 A 
ATOM     14  F   LIG    1       -0.010  -4.101   0.455  0.00  0.00    -0.205 F 
ATOM     15  C   LIG    1       -1.179  -2.093  -0.004  0.00  0.00    +0.040 A 
ATOM     16  C   LIG    1       -1.183  -0.717  -0.126  0.00  0.00    +0.028 A 
ENDBRANCH   6  10
BRANCH   1  19
ATOM     17  C   LIG    1        0.757   8.306  -0.872  0.00  0.00    +0.162 A 
ATOM     18  C   LIG    1        1.369   7.073  -0.781  0.00  0.00    +0.057 A 
ATOM     19  C   LIG    1        0.738   6.032  -0.083  0.00  0.00    -0.020 A 
ATOM     20  C   LIG    1       -0.505   6.255   0.527  0.00  0.00    +0.012 A 
ATOM     21  C   LIG    1       -1.104   7.491   0.433  0.00  0.00    +0.050 A 
ATOM     22  C   LIG    1       -0.480   8.519  -0.263  0.00  0.00    +0.158 A 
BRANCH  17  24
ATOM     23  C   LIG    1        2.628   9.027  -2.151  0.00  0.00    +0.277 C 
ATOM     24  O   LIG    1        1.363   9.316  -1.552  0.00  0.00    -0.491 OA
ENDBRANCH  17  24
BRANCH  22  25
ATOM     25  O   LIG    1       -1.076   9.736  -0.350  0.00  0.00    -0.503 OA
ATOM     26  H   LIG    1       -0.840  10.342   0.366  0.00  0.00    +0.292 HD
ENDBRANCH  22  25
ENDBRANCH   1  19
TORSDOF 4
