REMARK  Name = ZINC00403567
REMARK                            x       y       z     vdW  Elec       q    Type
REMARK                         _______ _______ _______ _____ _____    ______ ____
ROOT
ATOM      1  N   LIG    1        0.738  -1.962  -1.265  0.00  0.00    -0.277 N 
ATOM      2  C   LIG    1        1.790  -2.643  -0.673  0.00  0.00    +0.168 A 
ATOM      3  C   LIG    1        1.786  -4.032  -0.694  0.00  0.00    +0.149 A 
ATOM      4  N   LIG    1        2.936  -4.432  -0.043  0.00  0.00    -0.339 N 
ATOM      5  C   LIG    1        3.580  -3.312   0.340  0.00  0.00    +0.199 A 
ATOM      6  H   LIG    1        3.225  -5.345   0.110  0.00  0.00    +0.167 HD
ATOM      7  C   LIG    1        0.713  -4.707  -1.315  0.00  0.00    +0.280 A 
ATOM      8  N   LIG    1       -0.282  -3.989  -1.874  0.00  0.00    -0.273 N 
ATOM      9  H   LIG    1       -1.022  -4.449  -2.302  0.00  0.00    +0.173 HD
ATOM     10  O   LIG    1        0.687  -5.925  -1.346  0.00  0.00    -0.265 OA
ATOM     11  N   LIG    1        2.899  -2.260  -0.035  0.00  0.00    -0.218 NA
ATOM     12  C   LIG    1       -0.269  -2.645  -1.842  0.00  0.00    +0.331 A 
ATOM     13  O   LIG    1       -1.186  -2.030  -2.352  0.00  0.00    -0.246 OA
ENDROOT
BRANCH   1  14
ATOM     14  C   LIG    1        0.718  -0.497  -1.257  0.00  0.00    +0.128 C 
BRANCH  14  16
ATOM     15  C   LIG    1       -0.019   1.526   0.010  0.00  0.00    +0.005 C 
ATOM     16  C   LIG    1        0.002  -0.004   0.002  0.00  0.00    +0.018 C 
ENDBRANCH  14  16
ENDBRANCH   1  14
TORSDOF 2
