REMARK  Name = ZINC00549977
REMARK                            x       y       z     vdW  Elec       q    Type
REMARK                         _______ _______ _______ _____ _____    ______ ____
ROOT
ATOM      1  N   LIG    1        0.064  -0.035   2.365  0.00  0.00    -0.166 N 
ATOM      2  C   LIG    1       -0.166   1.294   2.371  0.00  0.00    +0.270 C 
ATOM      3  C   LIG    1        0.010   2.053   3.621  0.00  0.00    +0.059 A 
ATOM      4  C   LIG    1       -0.389   3.383   3.731  0.00  0.00    +0.015 A 
ATOM      5  C   LIG    1       -0.217   4.049   4.926  0.00  0.00    +0.001 A 
ATOM      6  C   LIG    1        0.348   3.405   6.016  0.00  0.00    +0.002 A 
ATOM      7  C   LIG    1        0.753   2.087   5.920  0.00  0.00    +0.024 A 
ATOM      8  C   LIG    1        0.594   1.406   4.725  0.00  0.00    +0.041 A 
ATOM      9  N   LIG    1        1.012   0.089   4.571  0.00  0.00    -0.322 N 
ATOM     10  H   LIG    1        1.752  -0.259   5.092  0.00  0.00    +0.148 HD
ATOM     11  O   LIG    1       -0.515   1.861   1.353  0.00  0.00    -0.268 OA
ATOM     12  C   LIG    1        0.304  -0.768   3.608  0.00  0.00    +0.117 C 
ATOM     13  C   LIG    1        1.156  -2.003   3.310  0.00  0.00    +0.055 C 
ATOM     14  C   LIG    1       -1.034  -1.210   4.202  0.00  0.00    +0.055 C 
ENDROOT
BRANCH   1  18
ATOM     15  C   LIG    1        2.163   0.366   0.652  0.00  0.00    +0.062 C 
ATOM     16  C   LIG    1        0.997  -0.518   0.293  0.00  0.00    +0.031 C 
ATOM     17  C   LIG    1        0.927  -1.157  -1.070  0.00  0.00    +0.062 C 
ATOM     18  N   LIG    1        0.066  -0.727   1.146  0.00  0.00    -0.185 NA
ENDBRANCH   1  18
TORSDOF 1
