REMARK  Name = ZINC00598073
REMARK                            x       y       z     vdW  Elec       q    Type
REMARK                         _______ _______ _______ _____ _____    ______ ____
ROOT
ATOM      1  C   LIG    1       -3.144   5.029   0.366  0.00  0.00    +0.190 C 
ENDROOT
BRANCH   1   2
ATOM      2  C   LIG    1       -4.443   5.176   1.116  0.00  0.00    +0.018 A 
ATOM      3  C   LIG    1       -5.571   4.500   0.687  0.00  0.00    +0.048 A 
ATOM      4 CL   LIG    1       -5.490   3.481  -0.717  0.00  0.00    -0.083 Cl
ATOM      5  C   LIG    1       -6.761   4.631   1.379  0.00  0.00    +0.020 A 
ATOM      6  C   LIG    1       -6.827   5.446   2.493  0.00  0.00    +0.003 A 
ATOM      7  C   LIG    1       -5.702   6.127   2.920  0.00  0.00    +0.020 A 
ATOM      8  C   LIG    1       -4.509   5.992   2.231  0.00  0.00    +0.048 A 
ATOM      9 CL   LIG    1       -3.096   6.846   2.767  0.00  0.00    -0.083 Cl
ENDBRANCH   1   2
BRANCH   1  10
ATOM     10  C   LIG    1       -3.248   5.735  -0.961  0.00  0.00    +0.235 C 
ATOM     11  N   LIG    1       -3.500   7.059  -1.002  0.00  0.00    -0.328 N 
ATOM     12  H   LIG    1       -3.567   7.513  -1.857  0.00  0.00    +0.145 HD
ATOM     13  H   LIG    1       -3.614   7.556  -0.178  0.00  0.00    +0.145 HD
ATOM     14  O   LIG    1       -3.105   5.113  -1.992  0.00  0.00    -0.274 OA
ENDBRANCH   1  10
BRANCH   1  15
ATOM     15  N   LIG    1       -2.868   3.608   0.142  0.00  0.00    -0.329 N 
ATOM     16  H   LIG    1       -3.585   2.958   0.209  0.00  0.00    +0.147 HD
BRANCH  15  22
ATOM     17  C   LIG    1        1.785   4.732  -0.922  0.00  0.00    +0.044 C 
ATOM     18  C   LIG    1        0.703   3.711  -0.687  0.00  0.00    -0.049 A 
ATOM     19  C   LIG    1        0.999   2.359  -0.779  0.00  0.00    +0.004 A 
ATOM     20  C   LIG    1        0.021   1.415  -0.567  0.00  0.00    +0.013 A 
ATOM     21  C   LIG    1       -1.285   1.820  -0.261  0.00  0.00    +0.038 A 
ATOM     22  C   LIG    1       -1.581   3.191  -0.164  0.00  0.00    +0.039 A 
ATOM     23  C   LIG    1       -0.577   4.127  -0.382  0.00  0.00    +0.027 A 
BRANCH  21  24
ATOM     24  C   LIG    1       -2.335   0.820  -0.039  0.00  0.00    +0.162 C 
ATOM     25  C   LIG    1       -1.988  -0.646  -0.018  0.00  0.00    +0.091 C 
ATOM     26  O   LIG    1       -3.484   1.174   0.126  0.00  0.00    -0.292 OA
ENDBRANCH  21  24
ENDBRANCH  15  22
ENDBRANCH   1  15
TORSDOF 5
