REMARK  Name = ZINC00602652
REMARK                            x       y       z     vdW  Elec       q    Type
REMARK                         _______ _______ _______ _____ _____    ______ ____
ROOT
ATOM      1  C   LIG    1       -2.402   1.312   0.032  0.00  0.00    +0.025 A 
ATOM      2  C   LIG    1       -1.253   2.040   0.030  0.00  0.00    +0.059 A 
ATOM      3  C   LIG    1       -0.017   1.369   0.010  0.00  0.00    +0.179 A 
ATOM      4  N   LIG    1        1.245   1.775  -0.000  0.00  0.00    -0.128 NA
ATOM      5  N   LIG    1        2.027   0.753  -0.013  0.00  0.00    -0.127 NA
ATOM      6  C   LIG    1        1.318  -0.361  -0.013  0.00  0.00    +0.188 A 
ATOM      7  N   LIG    1        0.002  -0.004   0.002  0.00  0.00    -0.189 N 
ATOM      8  N   LIG    1       -1.196  -0.721   0.010  0.00  0.00    -0.125 NA
ATOM      9  C   LIG    1       -2.347  -0.094   0.025  0.00  0.00    +0.237 A 
ENDROOT
BRANCH   6  10
ATOM     10  C   LIG    1        1.851  -1.739  -0.025  0.00  0.00    +0.059 A 
ATOM     11  C   LIG    1        3.230  -1.957  -0.039  0.00  0.00    +0.052 A 
ATOM     12  C   LIG    1        3.722  -3.248  -0.050  0.00  0.00    +0.124 A 
ATOM     13  F   LIG    1        5.056  -3.460  -0.064  0.00  0.00    -0.205 F 
ATOM     14  C   LIG    1        2.850  -4.325  -0.048  0.00  0.00    +0.041 A 
ATOM     15  C   LIG    1        1.483  -4.116  -0.033  0.00  0.00    +0.042 A 
ATOM     16  C   LIG    1        0.978  -2.830  -0.017  0.00  0.00    +0.134 A 
ATOM     17  F   LIG    1       -0.358  -2.628   0.002  0.00  0.00    -0.205 F 
ENDBRANCH   6  10
BRANCH   1  19
ATOM     18  C   LIG    1       -3.517   3.527   0.054  0.00  0.00    +0.016 C 
ATOM     19  C   LIG    1       -3.736   2.013   0.048  0.00  0.00    -0.007 C 
ATOM     20  C   LIG    1       -4.511   1.605   1.303  0.00  0.00    +0.016 C 
ATOM     21  C   LIG    1       -4.535   1.617  -1.196  0.00  0.00    +0.016 C 
ENDBRANCH   1  19
BRANCH   9  22
ATOM     22  O   LIG    1       -3.500  -0.809   0.032  0.00  0.00    -0.467 OA
BRANCH  22  23
ATOM     23  C   LIG    1       -3.380  -2.233   0.024  0.00  0.00    +0.306 C 
BRANCH  23  24
ATOM     24  C   LIG    1       -4.753  -2.853   0.034  0.00  0.00    +0.165 A 
ATOM     25  N   LIG    1       -5.441  -3.180   1.098  0.00  0.00    -0.216 NA
ATOM     26  C   LIG    1       -6.613  -3.700   0.736  0.00  0.00    +0.245 A 
ATOM     27  N   LIG    1       -6.685  -3.719  -0.569  0.00  0.00    -0.158 NA
ATOM     28  N   LIG    1       -5.484  -3.172  -1.049  0.00  0.00    -0.249 N 
ATOM     29  C   LIG    1       -5.103  -2.985  -2.451  0.00  0.00    +0.174 C 
ENDBRANCH  23  24
ENDBRANCH  22  23
ENDBRANCH   9  22
TORSDOF 5
