REMARK  Name = ZINC00362766
REMARK                            x       y       z     vdW  Elec       q    Type
REMARK                         _______ _______ _______ _____ _____    ______ ____
ROOT
ATOM      1  C   LIG    1       -0.228   5.289  -0.134  0.00  0.00    +0.267 C 
ATOM      2  N   LIG    1       -1.424   5.882   0.047  0.00  0.00    -0.280 N 
ATOM      3  H   LIG    1       -2.229   5.343   0.099  0.00  0.00    +0.155 HD
ATOM      4  O   LIG    1        0.768   5.967  -0.294  0.00  0.00    -0.268 OA
ENDROOT
BRANCH   2   5
ATOM      5  C   LIG    1       -1.505   7.273   0.161  0.00  0.00    +0.035 A 
ATOM      6  C   LIG    1       -2.618   7.947  -0.326  0.00  0.00    +0.023 A 
ATOM      7  C   LIG    1       -2.696   9.322  -0.212  0.00  0.00    +0.003 A 
ATOM      8  C   LIG    1       -1.667  10.027   0.386  0.00  0.00    +0.020 A 
ATOM      9  C   LIG    1       -0.557   9.358   0.872  0.00  0.00    +0.043 A 
ATOM     10 CL   LIG    1        0.731  10.248   1.623  0.00  0.00    -0.083 Cl
ATOM     11  C   LIG    1       -0.476   7.982   0.766  0.00  0.00    +0.043 A 
ENDBRANCH   2   5
BRANCH   1  16
ATOM     12  C   LIG    1        1.193   1.821  -0.327  0.00  0.00    +0.004 A 
ATOM     13  C   LIG    1        0.029   1.092  -0.139  0.00  0.00    +0.020 A 
ATOM     14  C   LIG    1       -1.171   1.762   0.036  0.00  0.00    +0.111 A 
ATOM     15  N   LIG    1       -1.217   3.076   0.039  0.00  0.00    -0.250 NA
ATOM     16  C   LIG    1       -0.126   3.811  -0.138  0.00  0.00    +0.126 A 
ATOM     17  C   LIG    1        1.114   3.204  -0.326  0.00  0.00    +0.033 A 
ENDBRANCH   1  16
TORSDOF 2
