REMARK  Name = ZINC00359757
REMARK                            x       y       z     vdW  Elec       q    Type
REMARK                         _______ _______ _______ _____ _____    ______ ____
ROOT
ATOM      1  C   LIG    1        3.711  -0.707  -0.022  0.00  0.00    +0.016 C 
ATOM      2  C   LIG    1        3.797  -1.576  -1.280  0.00  0.00    -0.011 C 
ATOM      3  C   LIG    1        5.099  -2.380  -1.250  0.00  0.00    -0.078 C 
ATOM      4  N   LIG    1        5.121  -3.238  -0.060  0.00  0.00    +0.383 N 
ATOM      5  H   LIG    1        4.309  -3.837  -0.063  0.00  0.00    -0.081 HD
ATOM      6  C   LIG    1        5.112  -2.409   1.152  0.00  0.00    -0.078 C 
ATOM      7  C   LIG    1        3.810  -1.606   1.214  0.00  0.00    -0.011 C 
ENDROOT
BRANCH   1  11
ATOM      8  C   LIG    1       -0.017   1.378   0.021  0.00  0.00    +0.000 A 
ATOM      9  C   LIG    1        1.171   2.085   0.029  0.00  0.00    +0.000 A 
ATOM     10  C   LIG    1        2.377   1.411   0.015  0.00  0.00    +0.004 A 
ATOM     11  C   LIG    1        2.396   0.028  -0.006  0.00  0.00    -0.044 A 
ATOM     12  C   LIG    1        1.208  -0.679  -0.013  0.00  0.00    +0.004 A 
ATOM     13  C   LIG    1        0.002  -0.004  -0.001  0.00  0.00    +0.000 A 
ENDBRANCH   1  11
BRANCH   4  14
ATOM     14  C   LIG    1        6.335  -4.064  -0.076  0.00  0.00    -0.040 C 
ATOM     15  C   LIG    1        7.564  -3.163  -0.220  0.00  0.00    -0.013 C 
ATOM     16  C   LIG    1        8.829  -4.024  -0.237  0.00  0.00    -0.001 C 
ATOM     17  C   LIG    1        8.768  -4.995  -1.417  0.00  0.00    +0.002 C 
ATOM     18  C   LIG    1        7.540  -5.897  -1.273  0.00  0.00    +0.030 C 
ATOM     19  C   LIG    1        6.275  -5.036  -1.256  0.00  0.00    +0.101 C 
BRANCH  19  20
ATOM     20  O   LIG    1        5.128  -5.877  -1.122  0.00  0.00    -0.393 OA
ATOM     21  H   LIG    1        5.026  -6.520  -1.837  0.00  0.00    +0.210 HD
ENDBRANCH  19  20
ENDBRANCH   4  14
TORSDOF 3
