REMARK  Name = ZINC00602269
REMARK                            x       y       z     vdW  Elec       q    Type
REMARK                         _______ _______ _______ _____ _____    ______ ____
ROOT
ATOM      1  C   LIG    1       -2.479  -4.085  -0.074  0.00  0.00    +0.095 A 
ATOM      2  C   LIG    1       -1.518  -4.936  -0.592  0.00  0.00    +0.098 A 
ATOM      3  N   LIG    1       -1.873  -6.190  -0.262  0.00  0.00    -0.235 NA
ATOM      4  C   LIG    1       -2.983  -6.165   0.422  0.00  0.00    +0.200 A 
ATOM      5  N   LIG    1       -3.394  -4.888   0.570  0.00  0.00    -0.325 N 
ENDROOT
BRANCH   2   6
ATOM      6  C   LIG    1       -0.320  -4.539  -1.368  0.00  0.00    +0.003 A 
ATOM      7  C   LIG    1       -0.379  -3.450  -2.238  0.00  0.00    +0.013 A 
ATOM      8  C   LIG    1        0.739  -3.084  -2.958  0.00  0.00    +0.039 A 
ATOM      9  C   LIG    1        1.920  -3.796  -2.818  0.00  0.00    +0.123 A 
ATOM     10  F   LIG    1        3.012  -3.433  -3.526  0.00  0.00    -0.205 F 
ATOM     11  C   LIG    1        1.984  -4.878  -1.955  0.00  0.00    +0.039 A 
ATOM     12  C   LIG    1        0.873  -5.248  -1.226  0.00  0.00    +0.013 A 
ENDBRANCH   2   6
BRANCH   1  17
ATOM     13  C   LIG    1       -1.408  -0.598  -0.360  0.00  0.00    +0.318 A 
ATOM     14  N   LIG    1       -2.549   0.074  -0.383  0.00  0.00    -0.203 NA
ATOM     15  C   LIG    1       -3.714  -0.553  -0.309  0.00  0.00    +0.118 A 
ATOM     16  C   LIG    1       -3.735  -1.931  -0.205  0.00  0.00    +0.050 A 
ATOM     17  C   LIG    1       -2.512  -2.615  -0.183  0.00  0.00    +0.096 A 
ATOM     18  N   LIG    1       -1.379  -1.915  -0.267  0.00  0.00    -0.193 NA
BRANCH  13  20
ATOM     19  C   LIG    1       -0.325   1.507  -0.538  0.00  0.00    +0.280 C 
ATOM     20  O   LIG    1       -0.240   0.084  -0.439  0.00  0.00    -0.466 OA
ENDBRANCH  13  20
ENDBRANCH   1  17
BRANCH   5  21
ATOM     21  C   LIG    1       -4.594  -4.440   1.281  0.00  0.00    +0.089 C 
ATOM     22  C   LIG    1       -4.517  -4.885   2.743  0.00  0.00    +0.027 C 
ATOM     23  C   LIG    1       -4.427  -6.411   2.807  0.00  0.00    +0.033 C 
ATOM     24  C   LIG    1       -5.666  -7.023   2.152  0.00  0.00    +0.115 C 
ATOM     25  C   LIG    1       -5.743  -6.578   0.691  0.00  0.00    +0.033 C 
ATOM     26  C   LIG    1       -5.834  -5.052   0.626  0.00  0.00    +0.027 C 
BRANCH  24  27
ATOM     27  O   LIG    1       -5.582  -8.448   2.213  0.00  0.00    -0.392 OA
ATOM     28  H   LIG    1       -6.336  -8.904   1.815  0.00  0.00    +0.210 HD
ENDBRANCH  24  27
ENDBRANCH   5  21
TORSDOF 5
