REMARK  Name = ZINC00402742
REMARK                            x       y       z     vdW  Elec       q    Type
REMARK                         _______ _______ _______ _____ _____    ______ ____
ROOT
ATOM      1  C   LIG    1        1.174   2.592   0.005  0.00  0.00    +0.017 A 
ATOM      2  C   LIG    1        1.178   3.969   0.012  0.00  0.00    +0.027 A 
ATOM      3  C   LIG    1       -0.027   4.664   0.027  0.00  0.00    +0.047 A 
ATOM      4  C   LIG    1       -1.241   3.948   0.035  0.00  0.00    +0.002 A 
ATOM      5  C   LIG    1       -2.285   4.903   0.050  0.00  0.00    +0.042 A 
ATOM      6  CA  LIG    1       -1.716   6.138   0.051  0.00  0.00    +0.125 A 
ATOM      7  C   LIG    1       -1.219   2.547   0.022  0.00  0.00    +0.025 A 
ATOM      8  N   LIG    1       -0.341   6.003   0.038  0.00  0.00    -0.349 N 
ATOM      9  H   LIG    1        0.298   6.733   0.036  0.00  0.00    +0.166 HD
ATOM     10  C   LIG    1       -0.024   1.887   0.012  0.00  0.00    +0.019 A 
ATOM     11 BR   LIG    1        0.002  -0.004   0.002  0.00  0.00    -0.050 Br
ENDROOT
BRANCH   6  12
ATOM     12  C   LIG    1       -2.447   7.412   0.065  0.00  0.00    +0.353 C 
ATOM     13  O   LIG    1       -3.662   7.416   0.077  0.00  0.00    -0.243 OA
BRANCH  12  14
ATOM     14  OXT LIG    1       -1.769   8.578   0.065  0.00  0.00    -0.476 OA
ATOM     15  HXT LIG    1       -0.832   8.575   0.056  0.00  0.00    +0.295 HD
ENDBRANCH  12  14
ENDBRANCH   6  12
TORSDOF 2
