REMARK  Name = ZINC00649799
REMARK                            x       y       z     vdW  Elec       q    Type
REMARK                         _______ _______ _______ _____ _____    ______ ____
ROOT
ATOM      1  C   LIG    1       -4.304   8.818   2.761  0.00  0.00    +0.102 C 
ATOM      2  N   LIG    1       -5.083   8.563   1.722  0.00  0.00    -0.168 NA
ATOM      3  C   LIG    1       -4.837   7.583   0.880  0.00  0.00    +0.275 C 
ATOM      4  C   LIG    1       -3.642   6.760   1.161  0.00  0.00    +0.078 C 
ATOM      5  C   LIG    1       -3.140   5.690   0.483  0.00  0.00    +0.032 C 
ATOM      6  O   LIG    1       -5.560   7.363  -0.079  0.00  0.00    -0.267 OA
ATOM      7  S   LIG    1       -3.034   7.568   2.636  0.00  0.00    -0.066 S 
ENDROOT
BRANCH   1  12
ATOM      8  C   LIG    1       -4.870  12.951   6.723  0.00  0.00    +0.044 C 
ATOM      9  C   LIG    1       -4.721  11.868   5.685  0.00  0.00    -0.050 A 
ATOM     10  C   LIG    1       -5.648  11.762   4.663  0.00  0.00    +0.004 A 
ATOM     11  C   LIG    1       -5.519  10.774   3.710  0.00  0.00    +0.010 A 
ATOM     12  C   LIG    1       -4.449   9.879   3.778  0.00  0.00    +0.005 A 
ATOM     13  C   LIG    1       -3.520   9.988   4.815  0.00  0.00    +0.010 A 
ATOM     14  C   LIG    1       -3.659  10.985   5.758  0.00  0.00    +0.004 A 
ENDBRANCH   1  12
BRANCH   5  15
ATOM     15  C   LIG    1       -1.839   5.131   0.856  0.00  0.00    +0.022 A 
ATOM     16  C   LIG    1       -0.942   5.887   1.624  0.00  0.00    +0.015 A 
ATOM     17  C   LIG    1        0.271   5.365   1.971  0.00  0.00    +0.050 A 
ATOM     18  C   LIG    1        0.626   4.080   1.572  0.00  0.00    +0.165 A 
ATOM     19  C   LIG    1       -0.248   3.317   0.804  0.00  0.00    +0.204 A 
ATOM     20  C   LIG    1       -1.484   3.834   0.445  0.00  0.00    +0.172 A 
BRANCH  18  21
ATOM     21  O   LIG    1        1.833   3.571   1.929  0.00  0.00    -0.491 OA
ATOM     22  C   LIG    1        2.683   4.407   2.717  0.00  0.00    +0.277 C 
ENDBRANCH  18  21
BRANCH  19  23
ATOM     23  O   LIG    1        0.107   2.063   0.412  0.00  0.00    -0.488 OA
ATOM     24  C   LIG    1        0.785   1.942  -0.839  0.00  0.00    +0.277 C 
ENDBRANCH  19  23
BRANCH  20  25
ATOM     25  O   LIG    1       -2.345   3.093  -0.299  0.00  0.00    -0.491 OA
ATOM     26  C   LIG    1       -3.266   2.262   0.410  0.00  0.00    +0.277 C 
ENDBRANCH  20  25
ENDBRANCH   5  15
TORSDOF 5
