REMARK  Name = ZINC00403033
REMARK                            x       y       z     vdW  Elec       q    Type
REMARK                         _______ _______ _______ _____ _____    ______ ____
ROOT
ATOM      1  C   LIG    1        0.632  -2.000  -1.327  0.00  0.00    -0.045 A 
ATOM      2  C   LIG    1        1.613  -2.776  -0.738  0.00  0.00    +0.007 A 
ATOM      3  C   LIG    1        1.537  -4.155  -0.800  0.00  0.00    +0.050 A 
ATOM      4  C   LIG    1        0.478  -4.763  -1.454  0.00  0.00    +0.166 A 
ATOM      5  C   LIG    1       -0.510  -3.982  -2.047  0.00  0.00    +0.166 A 
ATOM      6  O   LIG    1       -1.434  -4.807  -2.621  0.00  0.00    -0.453 OA
ATOM      7  C   LIG    1       -0.789  -6.091  -2.726  0.00  0.00    +0.466 C 
ATOM      8  O   LIG    1        0.173  -6.078  -1.655  0.00  0.00    -0.453 OA
ATOM      9  C   LIG    1       -0.431  -2.600  -1.977  0.00  0.00    +0.053 A 
ENDROOT
BRANCH   1  10
ATOM     10  C   LIG    1        0.718  -0.497  -1.257  0.00  0.00    +0.019 C 
BRANCH  10  12
ATOM     11  C   LIG    1       -0.019   1.526   0.010  0.00  0.00    -0.014 C 
ATOM     12  C   LIG    1        0.002  -0.004   0.002  0.00  0.00    -0.074 C 
BRANCH  12  13
ATOM     13  N   LIG    1        0.713  -0.491   1.192  0.00  0.00    +0.380 N 
ATOM     14  H   LIG    1        1.659  -0.141   1.185  0.00  0.00    -0.090 HD
ATOM     15  H   LIG    1        0.726  -1.500   1.187  0.00  0.00    -0.090 HD
ATOM     16  H   LIG    1        0.240  -0.165   2.022  0.00  0.00    -0.090 HD
ENDBRANCH  12  13
ENDBRANCH  10  12
ENDBRANCH   1  10
TORSDOF 3
