REMARK  Name = ZINC00552573
REMARK                            x       y       z     vdW  Elec       q    Type
REMARK                         _______ _______ _______ _____ _____    ______ ____
ROOT
ATOM      1  C   LIG    1       -1.253   2.119   0.240  0.00  0.00    +0.083 A 
ATOM      2  C   LIG    1       -1.536   3.472   0.207  0.00  0.00    +0.052 A 
ATOM      3  C   LIG    1       -2.910   3.868   0.485  0.00  0.00    +0.028 A 
ATOM      4  C   LIG    1       -3.442   5.185   0.510  0.00  0.00    +0.032 A 
ATOM      5  C   LIG    1       -4.784   5.383   0.794  0.00  0.00    +0.124 A 
ATOM      6  C   LIG    1       -5.643   4.230   1.066  0.00  0.00    +0.264 A 
ATOM      7  N   LIG    1       -5.108   2.993   1.034  0.00  0.00    -0.316 N 
ATOM      8  H   LIG    1       -5.689   2.201   1.219  0.00  0.00    +0.169 HD
ATOM      9  O   LIG    1       -6.825   4.386   1.316  0.00  0.00    -0.267 OA
ATOM     10  C   LIG    1       -3.793   2.807   0.755  0.00  0.00    +0.090 A 
ATOM     11  S   LIG    1       -2.825   1.382   0.634  0.00  0.00    -0.065 S 
ENDROOT
BRANCH   2  12
ATOM     12  N   LIG    1       -0.557   4.409  -0.076  0.00  0.00    -0.356 N 
ATOM     13  H   LIG    1       -0.779   5.353  -0.094  0.00  0.00    +0.142 HD
ATOM     14  H   LIG    1        0.352   4.121  -0.258  0.00  0.00    +0.142 HD
ENDBRANCH   2  12
BRANCH   1  15
ATOM     15  C   LIG    1       -0.018   1.476   0.010  0.00  0.00    +0.202 C 
ATOM     16  O   LIG    1        0.941   2.119  -0.379  0.00  0.00    -0.286 OA
BRANCH  15  20
ATOM     17  C   LIG    1        0.353  -2.707   0.658  0.00  0.00    +0.000 A 
ATOM     18  C   LIG    1       -0.608  -1.986   1.345  0.00  0.00    +0.001 A 
ATOM     19  C   LIG    1       -0.734  -0.628   1.139  0.00  0.00    +0.012 A 
ATOM     20  C   LIG    1        0.111   0.019   0.236  0.00  0.00    +0.023 A 
ATOM     21  C   LIG    1        1.075  -0.715  -0.458  0.00  0.00    +0.012 A 
ATOM     22  C   LIG    1        1.194  -2.072  -0.239  0.00  0.00    +0.001 A 
ENDBRANCH  15  20
ENDBRANCH   1  15
BRANCH   5  23
ATOM     23  C   LIG    1       -5.339   6.742   0.821  0.00  0.00    +0.342 C 
ATOM     24  O   LIG    1       -4.622   7.697   0.595  0.00  0.00    -0.245 OA
BRANCH  23  25
ATOM     25  O   LIG    1       -6.646   6.931   1.097  0.00  0.00    -0.477 OA
ATOM     26  H   LIG    1       -7.199   6.195   1.272  0.00  0.00    +0.295 HD
ENDBRANCH  23  25
ENDBRANCH   5  23
TORSDOF 5
