REMARK  Name = ZINC00538202
REMARK                            x       y       z     vdW  Elec       q    Type
REMARK                         _______ _______ _______ _____ _____    ______ ____
ROOT
ATOM      1  C   LIG    1        1.990  -6.170   0.792  0.00  0.00    +0.044 C 
ENDROOT
BRANCH   1   2
ATOM      2  C   LIG    1        2.003  -4.651   0.974  0.00  0.00    -0.005 C 
ATOM      3  C   LIG    1        2.756  -4.003  -0.192  0.00  0.00    +0.022 C 
ATOM      4  C   LIG    1        2.714  -2.482  -0.037  0.00  0.00    +0.107 C 
ATOM      5  N   LIG    1        1.317  -2.029  -0.021  0.00  0.00    -0.314 N 
ATOM      6  C   LIG    1        0.586  -2.600   1.117  0.00  0.00    +0.107 C 
ATOM      7  C   LIG    1        0.565  -4.126   0.997  0.00  0.00    +0.022 C 
BRANCH   5   8
ATOM      8  C   LIG    1        1.243  -0.640  -0.013  0.00  0.00    +0.144 A 
ATOM      9  C   LIG    1        0.002  -0.004   0.002  0.00  0.00    +0.047 A 
ATOM     10  C   LIG    1       -0.017   1.381   0.010  0.00  0.00    +0.028 A 
ATOM     11  C   LIG    1        1.200   2.050   0.002  0.00  0.00    +0.061 A 
ATOM     12  C   LIG    1        1.230   3.557   0.009  0.00  0.00    +0.067 C 
ATOM     13  N   LIG    1        2.327   1.369  -0.013  0.00  0.00    -0.153 NA
ATOM     14  N   LIG    1        2.352   0.085  -0.020  0.00  0.00    -0.134 NA
ENDBRANCH   5   8
ENDBRANCH   1   2
BRANCH   1  15
ATOM     15  C   LIG    1        1.347  -6.825   2.017  0.00  0.00    +0.229 C 
BRANCH  15  16
ATOM     16  O   LIG    1        1.335  -8.243   1.848  0.00  0.00    -0.492 OA
BRANCH  16  20
ATOM     17  C   LIG    1       -0.307 -10.481   4.903  0.00  0.00    +0.059 A 
ATOM     18  C   LIG    1        0.204 -11.115   3.767  0.00  0.00    +0.018 A 
ATOM     19  C   LIG    1        0.751 -10.365   2.750  0.00  0.00    +0.046 A 
ATOM     20  C   LIG    1        0.795  -8.979   2.852  0.00  0.00    +0.121 A 
ATOM     21  C   LIG    1        0.292  -8.345   3.982  0.00  0.00    +0.046 A 
ATOM     22  C   LIG    1       -0.262  -9.087   5.001  0.00  0.00    +0.018 A 
BRANCH  17  23
ATOM     23  C   LIG    1       -0.895 -11.280   5.994  0.00  0.00    +0.339 C 
ATOM     24  O   LIG    1       -0.934 -12.492   5.907  0.00  0.00    -0.245 OA
BRANCH  23  25
ATOM     25  O   LIG    1       -1.388 -10.668   7.088  0.00  0.00    -0.461 OA
BRANCH  25  27
ATOM     26  C   LIG    1       -2.456 -10.649   9.277  0.00  0.00    +0.048 C 
ATOM     27  C   LIG    1       -1.951 -11.517   8.122  0.00  0.00    +0.229 C 
ENDBRANCH  25  27
ENDBRANCH  23  25
ENDBRANCH  17  23
ENDBRANCH  16  20
ENDBRANCH  15  16
ENDBRANCH   1  15
TORSDOF 8
