REMARK  Name = ZINC00399878
REMARK                            x       y       z     vdW  Elec       q    Type
REMARK                         _______ _______ _______ _____ _____    ______ ____
ROOT
ATOM      1  C   LIG    1        1.251  -2.154  -0.021  0.00  0.00    +0.184 C 
ATOM      2  O   LIG    1        0.212  -2.778  -0.014  0.00  0.00    -0.290 OA
ENDROOT
BRANCH   1   6
ATOM      3  C   LIG    1        1.177   2.081   0.002  0.00  0.00    +0.120 A 
ATOM      4  C   LIG    1       -0.017   1.367   0.010  0.00  0.00    +0.046 A 
ATOM      5  C   LIG    1        0.002  -0.004   0.002  0.00  0.00    +0.015 A 
ATOM      6  C   LIG    1        1.226  -0.685  -0.013  0.00  0.00    +0.019 A 
ATOM      7  C   LIG    1        2.424   0.039  -0.021  0.00  0.00    +0.015 A 
ATOM      8  C   LIG    1        2.395   1.409  -0.013  0.00  0.00    +0.046 A 
BRANCH   3  10
ATOM      9  C   LIG    1        2.415   4.109   0.001  0.00  0.00    +0.277 C 
ATOM     10  O   LIG    1        1.153   3.438   0.009  0.00  0.00    -0.495 OA
ENDBRANCH   3  10
ENDBRANCH   1   6
BRANCH   1  11
ATOM     11  C   LIG    1        2.570  -2.884  -0.037  0.00  0.00    +0.251 C 
BRANCH  11  12
ATOM     12  S   LIG    1        2.269  -4.673  -0.043  0.00  0.00    +0.004 S 
ATOM     13  O   LIG    1        1.678  -5.066  -1.274  0.00  0.00    -0.169 OA
ATOM     14  O   LIG    1        1.702  -5.078   1.195  0.00  0.00    -0.169 OA
BRANCH  12  15
ATOM     15  C   LIG    1        3.874  -5.401  -0.063  0.00  0.00    +0.089 A 
ATOM     16  C   LIG    1        4.489  -5.686  -1.267  0.00  0.00    +0.027 A 
ATOM     17  C   LIG    1        5.750  -6.253  -1.282  0.00  0.00    +0.002 A 
ATOM     18  C   LIG    1        6.391  -6.544  -0.093  0.00  0.00    +0.000 A 
ATOM     19  C   LIG    1        5.773  -6.264   1.112  0.00  0.00    +0.002 A 
ATOM     20  C   LIG    1        4.515  -5.693   1.127  0.00  0.00    +0.027 A 
ENDBRANCH  12  15
ENDBRANCH  11  12
ENDBRANCH   1  11
TORSDOF 5
