REMARK  Name = ZINC00534283
REMARK                            x       y       z     vdW  Elec       q    Type
REMARK                         _______ _______ _______ _____ _____    ______ ____
ROOT
ATOM      1  C   LIG    1       -0.017   1.377   0.010  0.00  0.00    +0.001 A 
ATOM      2  C   LIG    1        1.171   2.086   0.002  0.00  0.00    +0.004 A 
ATOM      3  C   LIG    1        2.376   1.413  -0.013  0.00  0.00    +0.046 A 
ATOM      4  C   LIG    1        2.398   0.022  -0.021  0.00  0.00    +0.133 A 
ATOM      5  C   LIG    1        1.207  -0.685  -0.012  0.00  0.00    +0.013 A 
ATOM      6  C   LIG    1        1.204  -2.189  -0.017  0.00  0.00    +0.164 C 
ATOM      7  C   LIG    1        2.543  -2.720  -0.453  0.00  0.00    +0.013 A 
ATOM      8  C   LIG    1        2.647  -4.036  -0.869  0.00  0.00    +0.008 A 
ATOM      9  C   LIG    1        3.867  -4.543  -1.272  0.00  0.00    +0.001 A 
ATOM     10  C   LIG    1        4.990  -3.737  -1.261  0.00  0.00    +0.004 A 
ATOM     11  C   LIG    1        4.892  -2.424  -0.847  0.00  0.00    +0.046 A 
ATOM     12  C   LIG    1        3.666  -1.910  -0.441  0.00  0.00    +0.133 A 
ATOM     13  O   LIG    1        3.591  -0.619  -0.035  0.00  0.00    -0.455 OA
ATOM     14  C   LIG    1        0.002  -0.004   0.002  0.00  0.00    +0.008 A 
ENDROOT
BRANCH   6  15
ATOM     15  C   LIG    1        0.900  -2.689   1.371  0.00  0.00    +0.319 C 
ATOM     16  O   LIG    1        0.706  -1.903   2.268  0.00  0.00    -0.250 OA
BRANCH  15  17
ATOM     17  O   LIG    1        0.844  -4.009   1.612  0.00  0.00    -0.462 OA
BRANCH  17  18
ATOM     18  C   LIG    1        0.550  -4.412   2.951  0.00  0.00    +0.163 C 
ATOM     19  C   LIG    1        1.854  -4.566   3.738  0.00  0.00    -0.033 C 
ATOM     20  N   LIG    1        1.988  -5.943   4.220  0.00  0.00    +0.382 N 
ATOM     21  H   LIG    1        2.855  -6.019   4.731  0.00  0.00    -0.082 HD
ATOM     22  C   LIG    1        2.040  -6.881   3.096  0.00  0.00    -0.078 C 
ATOM     23  C   LIG    1        0.743  -6.803   2.288  0.00  0.00    -0.012 C 
ATOM     24  C   LIG    1        0.887  -6.282   5.125  0.00  0.00    -0.078 C 
ATOM     25  C   LIG    1       -0.452  -6.184   4.383  0.00  0.00    -0.012 C 
ATOM     26  C   LIG    1       -0.183  -5.759   2.933  0.00  0.00    +0.024 C 
ENDBRANCH  17  18
ENDBRANCH  15  17
ENDBRANCH   6  15
TORSDOF 3
