REMARK  Name = ZINC00477239
REMARK                            x       y       z     vdW  Elec       q    Type
REMARK                         _______ _______ _______ _____ _____    ______ ____
ROOT
ATOM      1  C   LIG    1       -0.018   1.503   0.010  0.00  0.00    +0.088 C 
ATOM      2  C   LIG    1        0.002  -0.004   0.002  0.00  0.00    +0.135 A 
ATOM      3  N   LIG    1       -0.084  -0.774  -1.055  0.00  0.00    -0.134 NA
ATOM      4  N   LIG    1       -0.034  -2.013  -0.706  0.00  0.00    -0.126 NA
ATOM      5  C   LIG    1        0.088  -2.092   0.602  0.00  0.00    +0.202 A 
ATOM      6  C   LIG    1        0.191  -3.205   1.550  0.00  0.00    +0.165 A 
ATOM      7  N   LIG    1        0.318  -2.960   2.834  0.00  0.00    -0.227 NA
ATOM      8  C   LIG    1        0.346  -1.689   3.312  0.00  0.00    +0.090 A 
ATOM      9  C   LIG    1        0.475  -1.465   4.689  0.00  0.00    +0.030 A 
ATOM     10  C   LIG    1        0.503  -0.178   5.176  0.00  0.00    +0.002 A 
ATOM     11  C   LIG    1        0.404   0.902   4.311  0.00  0.00    +0.002 A 
ATOM     12  C   LIG    1        0.276   0.700   2.953  0.00  0.00    +0.028 A 
ATOM     13  C   LIG    1        0.246  -0.591   2.442  0.00  0.00    +0.075 A 
ATOM     14  N   LIG    1        0.118  -0.805   1.079  0.00  0.00    -0.275 N 
ENDROOT
BRANCH   6  15
ATOM     15  N   LIG    1        0.167  -4.508   1.093  0.00  0.00    -0.323 N 
ATOM     16  H   LIG    1        0.083  -4.688   0.143  0.00  0.00    +0.148 HD
BRANCH  15  17
ATOM     17  C   LIG    1        0.271  -5.619   2.042  0.00  0.00    +0.072 C 
ATOM     18  C   LIG    1        1.753  -5.964   2.293  0.00  0.00    +0.022 C 
ATOM     19  C   LIG    1        1.768  -7.507   2.422  0.00  0.00    +0.002 C 
ATOM     20  C   LIG    1        0.731  -7.949   1.360  0.00  0.00    +0.002 C 
ATOM     21  C   LIG    1       -0.380  -6.882   1.449  0.00  0.00    +0.022 C 
ENDBRANCH  15  17
ENDBRANCH   6  15
TORSDOF 2
