REMARK  Name = ZINC00538652
REMARK                            x       y       z     vdW  Elec       q    Type
REMARK                         _______ _______ _______ _____ _____    ______ ____
ROOT
ATOM      1  C   LIG    1       -1.246   3.139   0.030  0.00  0.00    +0.001 A 
ATOM      2  C   LIG    1       -1.213   1.751   0.017  0.00  0.00    +0.002 A 
ATOM      3  C   LIG    1       -0.013   1.076   0.008  0.00  0.00    +0.026 A 
ATOM      4  C   LIG    1        1.181   1.790   0.000  0.00  0.00    +0.050 A 
ATOM      5  C   LIG    1        1.143   3.196   0.008  0.00  0.00    +0.003 A 
ATOM      6  C   LIG    1        2.539   3.639  -0.003  0.00  0.00    -0.016 A 
ATOM      7  C   LIG    1        3.301   2.534  -0.016  0.00  0.00    +0.091 A 
ATOM      8  N   LIG    1        2.507   1.420  -0.014  0.00  0.00    -0.336 N 
ATOM      9  C   LIG    1       -0.085   3.860   0.023  0.00  0.00    +0.010 A 
ENDROOT
BRANCH   6  10
ATOM     10  C   LIG    1        3.028   5.065  -0.001  0.00  0.00    +0.100 C 
BRANCH  10  11
ATOM     11  C   LIG    1        3.087   5.573   1.417  0.00  0.00    +0.084 A 
ATOM     12  N   LIG    1        4.080   5.511   2.257  0.00  0.00    -0.241 NA
ATOM     13  C   LIG    1        4.004   6.014   3.508  0.00  0.00    +0.119 A 
ATOM     14  C   LIG    1        4.989   6.026   4.524  0.00  0.00    +0.185 A 
ATOM     15  F   LIG    1        6.203   5.484   4.285  0.00  0.00    -0.200 F 
ATOM     16  C   LIG    1        4.721   6.584   5.750  0.00  0.00    +0.163 A 
ATOM     17  F   LIG    1        5.680   6.582   6.701  0.00  0.00    -0.202 F 
ATOM     18  C   LIG    1        3.484   7.152   6.033  0.00  0.00    +0.081 A 
ATOM     19  C   LIG    1        2.500   7.156   5.060  0.00  0.00    +0.142 A 
ATOM     20  F   LIG    1        1.292   7.704   5.317  0.00  0.00    -0.204 F 
ATOM     21  C   LIG    1        2.760   6.599   3.830  0.00  0.00    +0.077 A 
ATOM     22  S   LIG    1        1.844   6.377   2.325  0.00  0.00    -0.069 S 
ENDBRANCH  10  11
ENDBRANCH   6  10
BRANCH   8  23
ATOM     23  C   LIG    1        2.995   0.038  -0.025  0.00  0.00    +0.242 C 
BRANCH  23  24
ATOM     24  C   LIG    1        3.032  -0.470  -1.443  0.00  0.00    +0.325 C 
ATOM     25  O   LIG    1        2.687   0.248  -2.351  0.00  0.00    -0.249 OA
BRANCH  24  26
ATOM     26  O   LIG    1        3.450  -1.720  -1.697  0.00  0.00    -0.479 OA
ATOM     27  H   LIG    1        3.718  -2.277  -0.993  0.00  0.00    +0.295 HD
ENDBRANCH  24  26
ENDBRANCH  23  24
ENDBRANCH   8  23
TORSDOF 5
