REMARK  Name = ZINC00598509
REMARK                            x       y       z     vdW  Elec       q    Type
REMARK                         _______ _______ _______ _____ _____    ______ ____
ROOT
ATOM      1  C   LIG    1        0.033   2.128   6.187  0.00  0.00    +0.248 C 
ATOM      2  N   LIG    1       -0.846   1.796   7.153  0.00  0.00    -0.281 N 
ATOM      3  H   LIG    1       -1.526   1.127   6.981  0.00  0.00    +0.155 HD
ATOM      4  O   LIG    1        0.832   3.026   6.374  0.00  0.00    -0.270 OA
ENDROOT
BRANCH   1   8
ATOM      5  C   LIG    1        0.011   0.040   2.486  0.00  0.00    -0.018 A 
ATOM      6  C   LIG    1        0.927   1.070   2.700  0.00  0.00    +0.009 A 
ATOM      7  C   LIG    1        0.935   1.747   3.898  0.00  0.00    +0.013 A 
ATOM      8  C   LIG    1        0.025   1.403   4.900  0.00  0.00    +0.037 A 
ATOM      9  C   LIG    1       -0.893   0.372   4.685  0.00  0.00    +0.013 A 
ATOM     10  C   LIG    1       -0.903  -0.301   3.484  0.00  0.00    +0.009 A 
BRANCH   5  17
ATOM     11  C   LIG    1       -0.026   1.527   0.009  0.00  0.00    +0.044 C 
ATOM     12  C   LIG    1       -0.015   0.020  -0.006  0.00  0.00    -0.042 A 
ATOM     13  C   LIG    1       -0.016  -0.657  -1.206  0.00  0.00    +0.015 A 
ATOM     14  C   LIG    1       -0.007  -2.051  -1.219  0.00  0.00    +0.023 A 
ATOM     15  C   LIG    1        0.005  -2.761  -0.018  0.00  0.00    +0.012 A 
ATOM     16  C   LIG    1        0.007  -2.084   1.181  0.00  0.00    +0.009 A 
ATOM     17  C   LIG    1        0.003  -0.689   1.195  0.00  0.00    -0.015 A 
BRANCH  14  18
ATOM     18  C   LIG    1       -0.009  -2.781  -2.511  0.00  0.00    +0.202 A 
ATOM     19  N   LIG    1       -0.006  -4.118  -2.657  0.00  0.00    -0.192 NA
ATOM     20  C   LIG    1       -0.010  -4.428  -3.922  0.00  0.00    +0.225 A 
ATOM     21  C   LIG    1       -0.007  -5.826  -4.486  0.00  0.00    +0.112 C 
ATOM     22  O   LIG    1       -0.015  -3.296  -4.637  0.00  0.00    -0.338 OA
ATOM     23  N   LIG    1       -0.021  -2.229  -3.700  0.00  0.00    -0.056 NA
ENDBRANCH  14  18
ENDBRANCH   5  17
ENDBRANCH   1   8
BRANCH   2  24
ATOM     24  C   LIG    1       -0.775   2.417   8.406  0.00  0.00    +0.036 A 
ATOM     25  C   LIG    1       -1.074   1.696   9.556  0.00  0.00    +0.027 A 
ATOM     26  C   LIG    1       -1.005   2.307  10.794  0.00  0.00    +0.049 A 
ATOM     27  C   LIG    1       -0.638   3.638  10.892  0.00  0.00    +0.141 A 
ATOM     28  C   LIG    1       -0.337   4.364   9.742  0.00  0.00    +0.074 A 
ATOM     29  C   LIG    1       -0.401   3.750   8.501  0.00  0.00    +0.050 A 
BRANCH  28  30
ATOM     30  N   LIG    1        0.034   5.710   9.840  0.00  0.00    -0.331 N 
ATOM     31  C   LIG    1        1.446   6.096   9.988  0.00  0.00    +0.086 C 
ATOM     32  C   LIG    1        1.768   7.169   8.942  0.00  0.00    -0.060 C 
ATOM     33  N   LIG    1        0.819   8.281   9.074  0.00  0.00    +0.380 N 
ATOM     34  H   LIG    1        0.844   8.632  10.019  0.00  0.00    -0.082 HD
ATOM     35  C   LIG    1        1.195   9.356   8.146  0.00  0.00    -0.096 C 
ATOM     36  C   LIG    1       -0.539   7.819   8.760  0.00  0.00    -0.060 C 
ATOM     37  C   LIG    1       -0.975   6.779   9.792  0.00  0.00    +0.086 C 
ENDBRANCH  28  30
BRANCH  27  38
ATOM     38  O   LIG    1       -0.571   4.237  12.112  0.00  0.00    -0.493 OA
ATOM     39  C   LIG    1       -0.894   3.433  13.249  0.00  0.00    +0.277 C 
ENDBRANCH  27  38
ENDBRANCH   2  24
TORSDOF 6
