REMARK  Name = ZINC00390111
REMARK                            x       y       z     vdW  Elec       q    Type
REMARK                         _______ _______ _______ _____ _____    ______ ____
ROOT
ATOM      1  S   LIG    1        5.496   0.464   1.661  0.00  0.00    -0.092 S 
ENDROOT
BRANCH   1   2
ATOM      2  C   LIG    1        6.998   1.367   1.482  0.00  0.00    +0.160 A 
ATOM      3  N   LIG    1        7.614   1.755   0.382  0.00  0.00    -0.134 NA
ATOM      4  N   LIG    1        8.793   2.460   0.470  0.00  0.00    -0.134 NA
ATOM      5  C   LIG    1        9.300   2.744   1.654  0.00  0.00    +0.160 A 
ATOM      6  S   LIG    1        8.090   2.008   2.742  0.00  0.00    -0.033 S 
BRANCH   5   7
ATOM      7  S   LIG    1       10.775   3.622   2.055  0.00  0.00    -0.086 S 
BRANCH   7   8
ATOM      8  C   LIG    1       11.472   4.069   0.441  0.00  0.00    +0.196 C 
BRANCH   8   9
ATOM      9  C   LIG    1       12.754   4.834   0.642  0.00  0.00    +0.315 C 
ATOM     10  O   LIG    1       13.160   5.058   1.770  0.00  0.00    -0.250 OA
BRANCH   9  11
ATOM     11  O   LIG    1       13.386   5.230  -0.323  0.00  0.00    -0.480 OA
ATOM     12  H   LIG    1       13.074   5.058  -1.189  0.00  0.00    +0.295 HD
ENDBRANCH   9  11
ENDBRANCH   8   9
ENDBRANCH   7   8
ENDBRANCH   5   7
ENDBRANCH   1   2
BRANCH   1  13
ATOM     13  C   LIG    1        4.960   0.161  -0.046  0.00  0.00    +0.112 C 
BRANCH  13  22
ATOM     14  C   LIG    1       -0.016   1.357   0.009  0.00  0.00    +0.001 A 
ATOM     15  C   LIG    1        1.169   2.091   0.002  0.00  0.00    +0.001 A 
ATOM     16  C   LIG    1        2.378   1.468  -0.013  0.00  0.00    +0.009 A 
ATOM     17  C   LIG    1        2.438   0.064  -0.021  0.00  0.00    -0.014 A 
ATOM     18  C   LIG    1        1.233  -0.683  -0.013  0.00  0.00    -0.018 A 
ATOM     19  C   LIG    1        1.292  -2.087  -0.021  0.00  0.00    +0.008 A 
ATOM     20  C   LIG    1        2.502  -2.709  -0.036  0.00  0.00    +0.001 A 
ATOM     21  C   LIG    1        3.687  -1.976  -0.043  0.00  0.00    +0.005 A 
ATOM     22  C   LIG    1        3.668  -0.615  -0.037  0.00  0.00    -0.029 A 
ATOM     23  C   LIG    1        0.002  -0.004   0.002  0.00  0.00    +0.008 A 
ENDBRANCH  13  22
ENDBRANCH   1  13
TORSDOF 7
