REMARK  Name = ZINC00570088
REMARK                            x       y       z     vdW  Elec       q    Type
REMARK                         _______ _______ _______ _____ _____    ______ ____
ROOT
ATOM      1  C   LIG    1       -3.415  -2.526   0.022  0.00  0.00    +0.034 A 
ATOM      2  C   LIG    1       -3.311  -1.502   0.947  0.00  0.00    +0.023 A 
ATOM      3  C   LIG    1       -2.200  -0.681   0.950  0.00  0.00    +0.052 A 
ATOM      4 CL   LIG    1       -2.067   0.598   2.115  0.00  0.00    -0.083 Cl
ATOM      5  C   LIG    1       -1.186  -0.881   0.009  0.00  0.00    +0.038 A 
ATOM      6  C   LIG    1       -1.299  -1.917  -0.920  0.00  0.00    +0.045 A 
ATOM      7  C   LIG    1       -2.411  -2.732  -0.908  0.00  0.00    +0.122 A 
ENDROOT
BRANCH   5   8
ATOM      8  C   LIG    1        0.002  -0.004   0.002  0.00  0.00    +0.137 A 
ATOM      9  C   LIG    1       -0.016   1.362   0.009  0.00  0.00    +0.051 A 
ATOM     10  C   LIG    1        1.314   1.791  -0.001  0.00  0.00    +0.057 A 
ATOM     11  C   LIG    1        2.098   0.657  -0.014  0.00  0.00    +0.212 A 
ATOM     12  O   LIG    1        1.280  -0.417  -0.012  0.00  0.00    -0.448 OA
BRANCH  11  13
ATOM     13  C   LIG    1        3.560   0.624  -0.029  0.00  0.00    +0.372 C 
ATOM     14  O   LIG    1        4.192   1.663  -0.029  0.00  0.00    -0.242 OA
BRANCH  13  15
ATOM     15  O   LIG    1        4.208  -0.560  -0.042  0.00  0.00    -0.475 OA
ATOM     16  H   LIG    1        3.721  -1.361  -0.042  0.00  0.00    +0.296 HD
ENDBRANCH  13  15
ENDBRANCH  11  13
ENDBRANCH   5   8
BRANCH   7  17
ATOM     17  N   LIG    1       -2.532  -3.831  -1.892  0.00  0.00    +0.006 N 
ATOM     18  O   LIG    1       -1.649  -4.014  -2.712  0.00  0.00    -0.130 OA
BRANCH  17  19
ATOM     19  O   LIG    1       -3.513  -4.552  -1.883  0.00  0.00    -0.396 OA
ATOM     20  H   LIG    1       -4.192  -4.411  -1.253  0.00  0.00    +0.329 HD
ENDBRANCH  17  19
ENDBRANCH   7  17
TORSDOF 5
