REMARK  Name = ZINC00388092
REMARK                            x       y       z     vdW  Elec       q    Type
REMARK                         _______ _______ _______ _____ _____    ______ ____
ROOT
ATOM      1  C   LIG    1       -2.013   2.464   3.524  0.00  0.00    +0.120 A 
ATOM      2  C   LIG    1       -2.368   1.250   2.954  0.00  0.00    +0.046 A 
ATOM      3  C   LIG    1       -1.720   0.807   1.817  0.00  0.00    +0.008 A 
ATOM      4  C   LIG    1       -0.718   1.572   1.248  0.00  0.00    -0.038 A 
ATOM      5  C   LIG    1       -0.359   2.779   1.818  0.00  0.00    +0.008 A 
ATOM      6  C   LIG    1       -1.008   3.230   2.951  0.00  0.00    +0.046 A 
ENDROOT
BRANCH   1   8
ATOM      7  C   LIG    1       -2.232   4.161   5.174  0.00  0.00    +0.277 C 
ATOM      8  O   LIG    1       -2.649   2.902   4.642  0.00  0.00    -0.495 OA
ENDBRANCH   1   8
BRANCH   4   9
ATOM      9  C   LIG    1       -0.013   1.086   0.008  0.00  0.00    +0.100 C 
BRANCH   9  10
ATOM     10  S   LIG    1       -0.890   1.687  -1.462  0.00  0.00    -0.174 S 
ATOM     11  H   LIG    1       -0.176   1.195  -2.490  0.00  0.00    +0.102 HD
ENDBRANCH   9  10
ENDBRANCH   4   9
TORSDOF 3
