REMARK  Name = ZINC00481325
REMARK                            x       y       z     vdW  Elec       q    Type
REMARK                         _______ _______ _______ _____ _____    ______ ____
ROOT
ATOM      1  C   LIG    1        5.786  -1.866   1.477  0.00  0.00    +0.037 A 
ATOM      2  C   LIG    1        6.298  -2.147   0.210  0.00  0.00    +0.036 A 
ATOM      3  C   LIG    1        7.497  -2.818   0.106  0.00  0.00    +0.112 A 
ATOM      4  N   LIG    1        8.158  -3.194   1.185  0.00  0.00    -0.261 NA
ATOM      5  C   LIG    1        7.708  -2.948   2.401  0.00  0.00    +0.140 A 
ATOM      6  C   LIG    1        6.519  -2.275   2.591  0.00  0.00    +0.136 A 
ENDROOT
BRANCH   6   7
ATOM      7  S   LIG    1        5.931  -1.944   4.219  0.00  0.00    +0.058 S 
ATOM      8  O   LIG    1        6.906  -2.458   5.116  0.00  0.00    -0.153 OA
ATOM      9  O   LIG    1        4.572  -2.359   4.252  0.00  0.00    -0.153 OA
BRANCH   7  10
ATOM     10  N   LIG    1        5.929  -0.300   4.414  0.00  0.00    -0.203 NA
ATOM     11  H   LIG    1        6.576   0.246   3.939  0.00  0.00    +0.144 HD
ATOM     12  H   LIG    1        5.281   0.118   5.002  0.00  0.00    +0.144 HD
ENDBRANCH   7  10
ENDBRANCH   6   7
BRANCH   1  13
ATOM     13  S   LIG    1        4.257  -1.011   1.666  0.00  0.00    -0.118 S 
BRANCH  13  14
ATOM     14  C   LIG    1        3.711  -0.707  -0.038  0.00  0.00    +0.109 C 
BRANCH  14  18
ATOM     15  C   LIG    1       -0.017   1.378   0.010  0.00  0.00    +0.000 A 
ATOM     16  C   LIG    1        1.171   2.086   0.002  0.00  0.00    +0.000 A 
ATOM     17  C   LIG    1        2.377   1.411  -0.013  0.00  0.00    +0.004 A 
ATOM     18  C   LIG    1        2.396   0.029  -0.020  0.00  0.00    -0.037 A 
ATOM     19  C   LIG    1        1.208  -0.679  -0.012  0.00  0.00    +0.004 A 
ATOM     20  C   LIG    1        0.002  -0.004   0.002  0.00  0.00    +0.000 A 
ENDBRANCH  14  18
ENDBRANCH  13  14
ENDBRANCH   1  13
TORSDOF 5
