REMARK  Name = ZINC00538627
REMARK                            x       y       z     vdW  Elec       q    Type
REMARK                         _______ _______ _______ _____ _____    ______ ____
ROOT
ATOM      1  C   LIG    1       -0.617  -2.899   4.409  0.00  0.00    +0.166 C 
ENDROOT
BRANCH   1   2
ATOM      2  C   LIG    1        0.351  -4.053   4.445  0.00  0.00    -0.007 A 
ATOM      3  C   LIG    1        1.097  -4.366   3.324  0.00  0.00    +0.007 A 
ATOM      4  C   LIG    1        1.985  -5.425   3.357  0.00  0.00    +0.000 A 
ATOM      5  C   LIG    1        2.128  -6.170   4.512  0.00  0.00    +0.000 A 
ATOM      6  C   LIG    1        1.384  -5.857   5.634  0.00  0.00    +0.000 A 
ATOM      7  C   LIG    1        0.498  -4.796   5.602  0.00  0.00    +0.007 A 
ENDBRANCH   1   2
BRANCH   1   8
ATOM      8  C   LIG    1       -1.906  -3.345   3.767  0.00  0.00    -0.007 A 
ATOM      9  C   LIG    1       -1.919  -3.736   2.442  0.00  0.00    +0.007 A 
ATOM     10  C   LIG    1       -3.101  -4.145   1.853  0.00  0.00    +0.000 A 
ATOM     11  C   LIG    1       -4.270  -4.163   2.590  0.00  0.00    +0.000 A 
ATOM     12  C   LIG    1       -4.257  -3.772   3.916  0.00  0.00    +0.000 A 
ATOM     13  C   LIG    1       -3.074  -3.367   4.506  0.00  0.00    +0.007 A 
ENDBRANCH   1   8
BRANCH   1  14
ATOM     14  O   LIG    1       -0.878  -2.454   5.742  0.00  0.00    -0.363 OA
ATOM     15  C   LIG    1        0.267  -1.919   6.410  0.00  0.00    +0.195 C 
ENDBRANCH   1  14
BRANCH   1  16
ATOM     16  C   LIG    1       -0.013  -1.752   3.597  0.00  0.00    +0.325 C 
BRANCH  16  17
ATOM     17  C   LIG    1       -0.910  -0.545   3.688  0.00  0.00    +0.350 C 
ATOM     18  O   LIG    1       -2.028  -0.578   3.203  0.00  0.00    -0.247 OA
BRANCH  17  19
ATOM     19  O   LIG    1       -0.518   0.465   4.248  0.00  0.00    -0.478 OA
ATOM     20  H   LIG    1        0.341   0.491   4.621  0.00  0.00    +0.295 HD
ENDBRANCH  17  19
ENDBRANCH  16  17
BRANCH  16  21
ATOM     21  O   LIG    1        1.277  -1.427   4.118  0.00  0.00    -0.444 OA
BRANCH  21  28
ATOM     22  C   LIG    1        2.319  -0.148  -0.352  0.00  0.00    +0.066 C 
ATOM     23  C   LIG    1        2.715  -0.316   1.092  0.00  0.00    +0.045 A 
ATOM     24  C   LIG    1        3.990   0.025   1.514  0.00  0.00    +0.046 A 
ATOM     25  C   LIG    1        4.312  -0.145   2.852  0.00  0.00    +0.045 A 
ATOM     26  C   LIG    1        5.687   0.211   3.357  0.00  0.00    +0.066 C 
ATOM     27  N   LIG    1        3.398  -0.624   3.679  0.00  0.00    -0.200 NA
ATOM     28  C   LIG    1        2.189  -0.939   3.243  0.00  0.00    +0.319 A 
ATOM     29  N   LIG    1        1.847  -0.785   1.974  0.00  0.00    -0.200 NA
ENDBRANCH  21  28
ENDBRANCH  16  21
ENDBRANCH   1  16
TORSDOF 8
