REMARK  Name = ZINC00538633
REMARK                            x       y       z     vdW  Elec       q    Type
REMARK                         _______ _______ _______ _____ _____    ______ ____
ROOT
ATOM      1  C   LIG    1       -1.686   5.408  -5.542  0.00  0.00    -0.010 C 
ATOM      2  C   LIG    1       -2.545   5.811  -4.340  0.00  0.00    -0.015 C 
ATOM      3  C   LIG    1       -1.782   5.506  -3.049  0.00  0.00    -0.079 C 
ATOM      4  N   LIG    1       -1.494   4.057  -2.993  0.00  0.00    +0.380 N 
ATOM      5  H   LIG    1       -2.377   3.539  -3.076  0.00  0.00    -0.082 HD
ATOM      6  C   LIG    1       -0.606   3.672  -4.110  0.00  0.00    -0.079 C 
ATOM      7  C   LIG    1       -1.334   3.922  -5.433  0.00  0.00    -0.015 C 
ENDROOT
BRANCH   1   8
ATOM      8  C   LIG    1       -2.468   5.656  -6.834  0.00  0.00    +0.038 C 
BRANCH   8  15
ATOM      9  C   LIG    1       -0.816   6.391  -8.565  0.00  0.00    +0.006 A 
ATOM     10  C   LIG    1        0.002   6.134  -9.649  0.00  0.00    +0.038 A 
ATOM     11  C   LIG    1        0.049   4.863 -10.194  0.00  0.00    +0.123 A 
ATOM     12  F   LIG    1        0.844   4.612 -11.258  0.00  0.00    -0.205 F 
ATOM     13  C   LIG    1       -0.721   3.849  -9.650  0.00  0.00    +0.038 A 
ATOM     14  C   LIG    1       -1.534   4.106  -8.563  0.00  0.00    +0.006 A 
ATOM     15  C   LIG    1       -1.580   5.376  -8.019  0.00  0.00    -0.047 A 
ENDBRANCH   8  15
ENDBRANCH   1   8
BRANCH   4  16
ATOM     16  C   LIG    1       -0.858   3.718  -1.703  0.00  0.00    -0.065 C 
BRANCH  16  17
ATOM     17  C   LIG    1       -0.775   2.195  -1.579  0.00  0.00    +0.090 C 
BRANCH  17  18
ATOM     18  S   LIG    1       -0.022   1.758   0.012  0.00  0.00    +0.052 S 
ATOM     19  O   LIG    1        1.352   2.120   0.001  0.00  0.00    -0.252 OA
BRANCH  18  20
ATOM     20  C   LIG    1        0.002  -0.004   0.002  0.00  0.00    +0.042 A 
ATOM     21  C   LIG    1       -1.073  -0.710   0.513  0.00  0.00    +0.019 A 
ATOM     22  C   LIG    1       -1.064  -2.092   0.505  0.00  0.00    +0.030 A 
ATOM     23  C   LIG    1        0.031  -2.771  -0.008  0.00  0.00    +0.087 A 
ATOM     24  C   LIG    1        1.116  -2.060  -0.519  0.00  0.00    +0.158 A 
ATOM     25  O   LIG    1        2.028  -2.968  -0.945  0.00  0.00    -0.408 OA
ATOM     26  C   LIG    1        1.555  -4.205  -0.721  0.00  0.00    +0.419 A 
ATOM     27  O   LIG    1        2.136  -5.238  -0.992  0.00  0.00    -0.223 OA
ATOM     28  N   LIG    1        0.338  -4.123  -0.150  0.00  0.00    -0.288 N 
ATOM     29  H   LIG    1       -0.223  -4.870   0.114  0.00  0.00    +0.172 HD
ATOM     30  C   LIG    1        1.096  -0.674  -0.511  0.00  0.00    +0.065 A 
ENDBRANCH  18  20
ENDBRANCH  17  18
ENDBRANCH  16  17
ENDBRANCH   4  16
TORSDOF 6
