REMARK  Name = ZINC00519098
REMARK                            x       y       z     vdW  Elec       q    Type
REMARK                         _______ _______ _______ _____ _____    ______ ____
ROOT
ATOM      1  C   LIG    1       -0.030   1.108   0.013  0.00  0.00    +0.039 C 
ATOM      2  C   LIG    1       -0.740   1.573   1.258  0.00  0.00    -0.071 C 
ATOM      3  C   LIG    1       -2.021   1.747   1.209  0.00  0.00    -0.027 C 
ATOM      4  C   LIG    1       -2.863   2.224   2.353  0.00  0.00    +0.038 C 
ATOM      5  C   LIG    1       -2.074   2.232   3.657  0.00  0.00    +0.021 C 
ATOM      6  C   LIG    1       -0.669   2.821   3.394  0.00  0.00    +0.022 C 
ATOM      7  C   LIG    1       -1.974   0.837   4.258  0.00  0.00    +0.170 C 
ATOM      8  O   LIG    1       -1.150  -0.009   3.457  0.00  0.00    -0.371 OA
ATOM      9  C   LIG    1        0.180   0.484   3.260  0.00  0.00    +0.155 C 
ATOM     10  C   LIG    1        0.078   1.820   2.501  0.00  0.00    +0.048 C 
ENDROOT
BRANCH   9  11
ATOM     11  C   LIG    1        0.845   0.705   4.594  0.00  0.00    -0.018 A 
ATOM     12  C   LIG    1        1.868   1.628   4.711  0.00  0.00    +0.010 A 
ATOM     13  C   LIG    1        2.476   1.837   5.934  0.00  0.00    +0.046 A 
ATOM     14  C   LIG    1        2.067   1.111   7.043  0.00  0.00    +0.117 A 
ATOM     15  C   LIG    1        1.044   0.181   6.922  0.00  0.00    +0.046 A 
ATOM     16  C   LIG    1        0.435  -0.019   5.698  0.00  0.00    +0.010 A 
BRANCH  14  17
ATOM     17  O   LIG    1        2.666   1.310   8.246  0.00  0.00    -0.507 OA
ATOM     18  H   LIG    1        3.432   0.741   8.403  0.00  0.00    +0.292 HD
ENDBRANCH  14  17
ENDBRANCH   9  11
BRANCH   5  19
ATOM     19  C   LIG    1       -2.786   3.147   4.656  0.00  0.00    +0.165 C 
BRANCH  19  20
ATOM     20  O   LIG    1       -4.095   2.637   4.920  0.00  0.00    -0.394 OA
ATOM     21  H   LIG    1       -4.605   3.168   5.546  0.00  0.00    +0.209 HD
ENDBRANCH  19  20
ENDBRANCH   5  19
TORSDOF 4
