REMARK  Name = ZINC00444391
REMARK                            x       y       z     vdW  Elec       q    Type
REMARK                         _______ _______ _______ _____ _____    ______ ____
ROOT
ATOM      1  C   LIG    1        6.048  -0.715   0.018  0.00  0.00    +0.034 A 
ATOM      2  C   LIG    1        6.020  -2.104   0.022  0.00  0.00    +0.025 A 
ATOM      3  C   LIG    1        7.197  -2.823   0.107  0.00  0.00    +0.022 A 
ATOM      4  C   LIG    1        8.409  -2.165   0.199  0.00  0.00    +0.052 A 
ATOM      5 CL   LIG    1        9.884  -3.074   0.313  0.00  0.00    -0.083 Cl
ATOM      6  C   LIG    1        8.446  -0.769   0.200  0.00  0.00    +0.037 A 
ATOM      7  C   LIG    1        7.258  -0.045   0.109  0.00  0.00    +0.036 A 
ENDROOT
BRANCH   6   8
ATOM      8  C   LIG    1        9.741  -0.062   0.299  0.00  0.00    +0.141 A 
ATOM      9  N   LIG    1        9.890   1.293   0.426  0.00  0.00    -0.338 N 
ATOM     10  C   LIG    1       11.246   1.551   0.485  0.00  0.00    +0.066 A 
ATOM     11  C   LIG    1       12.002   2.708   0.611  0.00  0.00    +0.028 A 
ATOM     12  C   LIG    1       13.378   2.625   0.640  0.00  0.00    +0.002 A 
ATOM     13  C   LIG    1       14.011   1.394   0.544  0.00  0.00    +0.002 A 
ATOM     14  C   LIG    1       13.284   0.244   0.419  0.00  0.00    +0.030 A 
ATOM     15  C   LIG    1       11.887   0.303   0.388  0.00  0.00    +0.089 A 
ATOM     16  H   LIG    1        9.155   1.970   0.469  0.00  0.00    +0.167 HD
ATOM     17  N   LIG    1       10.918  -0.638   0.282  0.00  0.00    -0.228 NA
ENDBRANCH   6   8
BRANCH   1  19
ATOM     18  C   LIG    1        3.822  -0.481  -0.790  0.00  0.00    +0.248 C 
ATOM     19  N   LIG    1        4.854   0.008  -0.074  0.00  0.00    -0.281 N 
ATOM     20  H   LIG    1        4.768   0.862   0.379  0.00  0.00    +0.155 HD
ATOM     21  O   LIG    1        3.960  -1.504  -1.433  0.00  0.00    -0.270 OA
BRANCH  18  25
ATOM     22  C   LIG    1        0.091   1.548  -0.803  0.00  0.00    +0.000 A 
ATOM     23  C   LIG    1        1.148   2.054  -0.067  0.00  0.00    +0.001 A 
ATOM     24  C   LIG    1        2.362   1.399  -0.058  0.00  0.00    +0.013 A 
ATOM     25  C   LIG    1        2.524   0.225  -0.794  0.00  0.00    +0.037 A 
ATOM     26  C   LIG    1        1.454  -0.280  -1.535  0.00  0.00    +0.013 A 
ATOM     27  C   LIG    1        0.245   0.384  -1.535  0.00  0.00    +0.001 A 
ENDBRANCH  18  25
ENDBRANCH   1  19
TORSDOF 3
