REMARK  Name = ZINC00600747
REMARK                            x       y       z     vdW  Elec       q    Type
REMARK                         _______ _______ _______ _____ _____    ______ ____
ROOT
ATOM      1  C   LIG    1       -1.263  -0.225   3.298  0.00  0.00    +0.007 A 
ATOM      2  C   LIG    1       -1.913   0.982   3.109  0.00  0.00    +0.009 A 
ATOM      3  C   LIG    1       -3.243   1.114   3.450  0.00  0.00    +0.012 A 
ATOM      4  C   LIG    1       -3.935   0.026   3.986  0.00  0.00    +0.025 A 
ATOM      5  C   LIG    1       -3.276  -1.189   4.175  0.00  0.00    +0.050 A 
ATOM      6  C   LIG    1       -1.944  -1.310   3.825  0.00  0.00    +0.129 A 
ATOM      7  F   LIG    1       -1.305  -2.487   4.001  0.00  0.00    -0.205 F 
ENDROOT
BRANCH   4   8
ATOM      8  C   LIG    1       -5.361   0.162   4.353  0.00  0.00    +0.195 C 
ATOM      9  O   LIG    1       -5.906   1.247   4.283  0.00  0.00    -0.287 OA
BRANCH   8  10
ATOM     10  C   LIG    1       -6.119  -1.013   4.803  0.00  0.00    +0.049 A 
ATOM     11  C   LIG    1       -6.481  -1.309   6.085  0.00  0.00    +0.108 A 
ATOM     12  N   LIG    1       -7.174  -2.479   6.106  0.00  0.00    -0.270 N 
ATOM     13  C   LIG    1       -7.677  -3.058   7.215  0.00  0.00    +0.321 C 
ATOM     14  N   LIG    1       -6.873  -3.309   8.268  0.00  0.00    -0.289 N 
ATOM     15  C   LIG    1       -5.434  -3.055   8.167  0.00  0.00    +0.133 C 
ATOM     16  C   LIG    1       -7.439  -3.835   9.512  0.00  0.00    +0.133 C 
ATOM     17  O   LIG    1       -8.855  -3.353   7.266  0.00  0.00    -0.249 OA
ATOM     18  C   LIG    1       -7.288  -2.992   4.824  0.00  0.00    +0.060 A 
ATOM     19  C   LIG    1       -7.886  -4.136   4.309  0.00  0.00    +0.027 A 
ATOM     20  C   LIG    1       -7.851  -4.388   2.952  0.00  0.00    +0.003 A 
ATOM     21  C   LIG    1       -7.214  -3.517   2.087  0.00  0.00    +0.017 A 
ATOM     22  C   LIG    1       -6.603  -2.366   2.579  0.00  0.00    +0.035 A 
ATOM     23  C   LIG    1       -6.642  -2.100   3.957  0.00  0.00    +0.027 A 
BRANCH  22  24
ATOM     24  C   LIG    1       -5.942  -1.461   1.687  0.00  0.00    -0.069 C 
ATOM     25  C   LIG    1       -5.401  -0.719   0.955  0.00  0.00    +0.009 C 
ENDBRANCH  22  24
ENDBRANCH   8  10
ENDBRANCH   4   8
BRANCH   1  26
ATOM     26  C   LIG    1        0.191  -0.361   2.923  0.00  0.00    +0.161 C 
BRANCH  26  36
ATOM     27  C   LIG    1        0.296   1.311   0.323  0.00  0.00    +0.086 C 
ATOM     28  C   LIG    1        0.344  -0.192   0.410  0.00  0.00    +0.108 A 
ATOM     29  N   LIG    1        0.443  -0.996  -0.609  0.00  0.00    -0.231 NA
ATOM     30  C   LIG    1        0.459  -2.281  -0.175  0.00  0.00    +0.107 A 
ATOM     31  C   LIG    1        0.547  -3.524  -0.801  0.00  0.00    +0.140 A 
ATOM     32  N   LIG    1        0.537  -4.628  -0.083  0.00  0.00    -0.261 NA
ATOM     33  C   LIG    1        0.445  -4.613   1.236  0.00  0.00    +0.113 A 
ATOM     34  C   LIG    1        0.355  -3.439   1.932  0.00  0.00    +0.047 A 
ATOM     35  C   LIG    1        0.361  -2.239   1.229  0.00  0.00    +0.072 A 
ATOM     36  N   LIG    1        0.296  -0.908   1.568  0.00  0.00    -0.323 N 
ENDBRANCH  26  36
ENDBRANCH   1  26
TORSDOF 5
