REMARK  Name = ZINC00475326
REMARK                            x       y       z     vdW  Elec       q    Type
REMARK                         _______ _______ _______ _____ _____    ______ ____
ROOT
ATOM      1  C   LIG    1        0.379  -4.143   3.713  0.00  0.00    +0.034 A 
ATOM      2  C   LIG    1       -0.101  -5.058   2.785  0.00  0.00    +0.025 A 
ATOM      3  C   LIG    1       -0.436  -6.336   3.186  0.00  0.00    +0.030 A 
ATOM      4  C   LIG    1       -0.294  -6.705   4.511  0.00  0.00    +0.105 A 
ATOM      5  C   LIG    1        0.183  -5.797   5.438  0.00  0.00    +0.030 A 
ATOM      6  C   LIG    1        0.526  -4.519   5.042  0.00  0.00    +0.025 A 
ENDROOT
BRANCH   1   8
ATOM      7  C   LIG    1       -0.004  -2.226   2.357  0.00  0.00    +0.220 C 
ATOM      8  N   LIG    1        0.720  -2.847   3.309  0.00  0.00    -0.285 N 
ATOM      9  H   LIG    1        1.477  -2.396   3.715  0.00  0.00    +0.155 HD
ATOM     10  O   LIG    1       -0.867  -2.833   1.759  0.00  0.00    -0.275 OA
BRANCH   7  11
ATOM     11  C   LIG    1        0.261  -0.778   2.034  0.00  0.00    +0.075 C 
BRANCH  11  13
ATOM     12  C   LIG    1        0.412   0.901   0.190  0.00  0.00    +0.004 C 
ATOM     13  C   LIG    1        0.024  -0.537   0.541  0.00  0.00    +0.009 C 
ENDBRANCH  11  13
BRANCH  11  14
ATOM     14  C   LIG    1       -0.684   0.107   2.849  0.00  0.00    +0.009 C 
ATOM     15  C   LIG    1       -2.133  -0.273   2.540  0.00  0.00    +0.004 C 
ENDBRANCH  11  14
ENDBRANCH   7  11
ENDBRANCH   1   8
BRANCH   4  16
ATOM     16  S   LIG    1       -0.723  -8.337   5.020  0.00  0.00    +0.056 S 
ATOM     17  O   LIG    1       -1.659  -8.826   4.069  0.00  0.00    -0.153 OA
ATOM     18  O   LIG    1       -1.015  -8.266   6.409  0.00  0.00    -0.153 OA
BRANCH  16  19
ATOM     19  N   LIG    1        0.636  -9.270   4.869  0.00  0.00    -0.204 NA
ATOM     20  H   LIG    1        0.607 -10.211   5.102  0.00  0.00    +0.144 HD
ATOM     21  H   LIG    1        1.462  -8.876   4.547  0.00  0.00    +0.144 HD
ENDBRANCH  16  19
ENDBRANCH   4  16
TORSDOF 6
