REMARK  Name = ZINC00626401
REMARK                            x       y       z     vdW  Elec       q    Type
REMARK                         _______ _______ _______ _____ _____    ______ ____
ROOT
ATOM      1  C   LIG    1        2.784  -1.918   4.679  0.00  0.00    +0.144 C 
ATOM      2  N   LIG    1        2.021  -1.161   5.678  0.00  0.00    -0.283 N 
ATOM      3  C   LIG    1        1.198  -2.018   6.309  0.00  0.00    +0.282 C 
ATOM      4  O   LIG    1        0.425  -1.718   7.196  0.00  0.00    -0.267 OA
ATOM      5  C   LIG    1        1.375  -3.382   5.762  0.00  0.00    +0.188 C 
ATOM      6  C   LIG    1        2.317  -3.350   4.787  0.00  0.00    +0.066 C 
ENDROOT
BRANCH   1  10
ATOM      7  C   LIG    1        1.988  -0.406   0.764  0.00  0.00    -0.048 A 
ATOM      8  C   LIG    1        3.291  -0.632   1.166  0.00  0.00    +0.004 A 
ATOM      9  C   LIG    1        3.549  -1.121   2.433  0.00  0.00    +0.006 A 
ATOM     10  C   LIG    1        2.503  -1.383   3.298  0.00  0.00    -0.022 A 
ATOM     11  C   LIG    1        1.200  -1.157   2.897  0.00  0.00    +0.006 A 
ATOM     12  C   LIG    1        0.943  -0.663   1.632  0.00  0.00    +0.004 A 
BRANCH   7  14
ATOM     13  C   LIG    1        1.697   1.657  -0.581  0.00  0.00    +0.009 C 
ATOM     14  C   LIG    1        1.707   0.128  -0.617  0.00  0.00    +0.032 C 
ENDBRANCH   7  14
ENDBRANCH   1  10
BRANCH   6  15
ATOM     15  C   LIG    1        2.773  -4.447   4.019  0.00  0.00    +0.162 C 
ATOM     16  C   LIG    1        2.303  -5.842   4.343  0.00  0.00    +0.091 C 
ATOM     17  O   LIG    1        3.543  -4.265   3.099  0.00  0.00    -0.292 OA
ENDBRANCH   6  15
BRANCH   5  18
ATOM     18  O   LIG    1        0.705  -4.483   6.170  0.00  0.00    -0.502 OA
ATOM     19  H   LIG    1        0.878  -5.312   5.769  0.00  0.00    +0.292 HD
ENDBRANCH   5  18
BRANCH   2  20
ATOM     20  C   LIG    1        2.134   0.276   5.941  0.00  0.00    +0.114 C 
BRANCH  20  21
ATOM     21  C   LIG    1        1.148   1.036   5.052  0.00  0.00    +0.056 C 
BRANCH  21  22
ATOM     22  C   LIG    1        1.264   2.514   5.322  0.00  0.00    -0.021 A 
ATOM     23  C   LIG    1        0.511   3.233   6.170  0.00  0.00    +0.087 A 
ATOM     24  N   LIG    1        0.907   4.542   6.151  0.00  0.00    -0.360 N 
ATOM     25  C   LIG    1        1.951   4.703   5.268  0.00  0.00    +0.047 A 
ATOM     26  C   LIG    1        2.710   5.799   4.873  0.00  0.00    +0.026 A 
ATOM     27  C   LIG    1        3.725   5.633   3.955  0.00  0.00    +0.002 A 
ATOM     28  C   LIG    1        3.989   4.385   3.409  0.00  0.00    +0.001 A 
ATOM     29  C   LIG    1        3.252   3.295   3.780  0.00  0.00    +0.010 A 
ATOM     30  H   LIG    1        0.510   5.252   6.681  0.00  0.00    +0.165 HD
ATOM     31  C   LIG    1        2.225   3.439   4.715  0.00  0.00    +0.003 A 
ENDBRANCH  21  22
ENDBRANCH  20  21
ENDBRANCH   2  20
TORSDOF 7
