REMARK  Name = ZINC00499304
REMARK                            x       y       z     vdW  Elec       q    Type
REMARK                         _______ _______ _______ _____ _____    ______ ____
ROOT
ATOM      1  C   LIG    1        0.036   1.154  -0.942  0.00  0.00    +0.022 A 
ATOM      2  C   LIG    1        1.176   1.916  -0.806  0.00  0.00    +0.027 A 
ATOM      3  C   LIG    1        2.405   1.297  -0.602  0.00  0.00    +0.047 A 
ATOM      4  C   LIG    1        2.469  -0.107  -0.534  0.00  0.00    +0.004 A 
ATOM      5  C   LIG    1        3.878  -0.435  -0.314  0.00  0.00    -0.018 A 
ATOM      6  C   LIG    1        4.555   0.724  -0.259  0.00  0.00    +0.032 A 
ATOM      7  C   LIG    1        6.042   0.852  -0.027  0.00  0.00    +0.121 C 
ATOM      8  C   LIG    1        6.786  -0.131  -0.934  0.00  0.00    +0.019 C 
ATOM      9  C   LIG    1        6.943  -1.471  -0.222  0.00  0.00    +0.001 C 
ATOM     10  C   LIG    1        5.736  -1.745   0.673  0.00  0.00    +0.005 C 
ATOM     11  C   LIG    1        4.470  -1.815  -0.184  0.00  0.00    +0.037 C 
ATOM     12  C   LIG    1        1.305  -0.866  -0.674  0.00  0.00    +0.030 A 
ATOM     13  N   LIG    1        3.687   1.770  -0.435  0.00  0.00    -0.357 N 
ATOM     14  H   LIG    1        3.939   2.707  -0.440  0.00  0.00    +0.166 HD
ATOM     15  C   LIG    1        0.099  -0.232  -0.876  0.00  0.00    +0.042 A 
ATOM     16 CL   LIG    1       -1.351  -1.171  -1.051  0.00  0.00    -0.084 Cl
ENDROOT
BRANCH   7  17
ATOM     17  C   LIG    1        6.480   2.258  -0.344  0.00  0.00    +0.219 C 
ATOM     18  N   LIG    1        6.563   3.176   0.640  0.00  0.00    -0.329 N 
ATOM     19  H   LIG    1        6.845   4.081   0.436  0.00  0.00    +0.145 HD
ATOM     20  H   LIG    1        6.340   2.931   1.552  0.00  0.00    +0.145 HD
ATOM     21  O   LIG    1        6.759   2.565  -1.484  0.00  0.00    -0.275 OA
ENDBRANCH   7  17
TORSDOF 1
