REMARK  Name = ZINC00599925
REMARK                            x       y       z     vdW  Elec       q    Type
REMARK                         _______ _______ _______ _____ _____    ______ ____
ROOT
ATOM      1  C   LIG    1       -3.085  -7.100   1.944  0.00  0.00    +0.248 C 
ATOM      2  N   LIG    1       -3.071  -8.442   1.823  0.00  0.00    -0.282 N 
ATOM      3  H   LIG    1       -3.023  -8.849   0.944  0.00  0.00    +0.155 HD
ATOM      4  O   LIG    1       -3.229  -6.590   3.039  0.00  0.00    -0.270 OA
ENDROOT
BRANCH   1   7
ATOM      5  C   LIG    1       -2.788  -4.067  -0.245  0.00  0.00    -0.005 A 
ATOM      6  C   LIG    1       -2.938  -4.858   0.873  0.00  0.00    +0.020 A 
ATOM      7  C   LIG    1       -2.924  -6.250   0.749  0.00  0.00    +0.038 A 
ATOM      8  C   LIG    1       -2.757  -6.834  -0.510  0.00  0.00    +0.016 A 
ATOM      9  C   LIG    1       -2.608  -6.037  -1.622  0.00  0.00    +0.046 A 
ATOM     10  C   LIG    1       -2.628  -4.652  -1.496  0.00  0.00    +0.120 A 
BRANCH  10  11
ATOM     11  O   LIG    1       -2.486  -3.870  -2.595  0.00  0.00    -0.506 OA
ATOM     12  H   LIG    1       -1.569  -3.644  -2.802  0.00  0.00    +0.292 HD
ENDBRANCH  10  11
BRANCH   5  13
ATOM     13  C   LIG    1       -2.803  -2.566  -0.113  0.00  0.00    +0.037 C 
BRANCH  13  14
ATOM     14  C   LIG    1       -1.367  -2.038  -0.135  0.00  0.00    -0.014 C 
BRANCH  14  15
ATOM     15  C   LIG    1       -1.382  -0.514  -0.000  0.00  0.00    -0.079 C 
BRANCH  15  17
ATOM     16  C   LIG    1       -0.022   1.462  -0.013  0.00  0.00    -0.097 C 
ATOM     17  N   LIG    1       -0.004  -0.007  -0.021  0.00  0.00    +0.376 N 
ATOM     18  H   LIG    1        0.462  -0.333  -0.855  0.00  0.00    -0.083 HD
ATOM     19  C   LIG    1        0.715  -0.494   1.164  0.00  0.00    -0.097 C 
ENDBRANCH  15  17
ENDBRANCH  14  15
ENDBRANCH  13  14
ENDBRANCH   5  13
ENDBRANCH   1   7
BRANCH   2  20
ATOM     20  C   LIG    1       -3.125  -9.247   2.963  0.00  0.00    +0.034 A 
ATOM     21  C   LIG    1       -3.883  -8.849   4.059  0.00  0.00    +0.024 A 
ATOM     22  C   LIG    1       -3.938  -9.641   5.185  0.00  0.00    +0.010 A 
ATOM     23  C   LIG    1       -3.234 -10.844   5.225  0.00  0.00    -0.018 A 
ATOM     24  C   LIG    1       -2.475 -11.242   4.125  0.00  0.00    +0.010 A 
ATOM     25  C   LIG    1       -2.427 -10.449   2.999  0.00  0.00    +0.024 A 
BRANCH  23  26
ATOM     26  C   LIG    1       -3.291 -11.698   6.435  0.00  0.00    -0.015 A 
ATOM     27  C   LIG    1       -4.051 -11.319   7.546  0.00  0.00    +0.028 A 
ATOM     28  C   LIG    1       -4.077 -12.144   8.652  0.00  0.00    +0.111 A 
ATOM     29  N   LIG    1       -3.398 -13.275   8.669  0.00  0.00    -0.263 NA
ATOM     30  C   LIG    1       -2.670 -13.670   7.642  0.00  0.00    +0.111 A 
ATOM     31  C   LIG    1       -2.592 -12.908   6.495  0.00  0.00    +0.028 A 
ENDBRANCH  23  26
ENDBRANCH   2  20
TORSDOF 8
