REMARK  Name = ZINC00597856
REMARK                            x       y       z     vdW  Elec       q    Type
REMARK                         _______ _______ _______ _____ _____    ______ ____
ROOT
ATOM      1  C   LIG    1       -3.386   3.420  -3.975  0.00  0.00    +0.188 C 
ATOM      2  C   LIG    1       -2.444   2.749  -3.008  0.00  0.00    +0.008 A 
ATOM      3  C   LIG    1       -2.669   2.903  -1.634  0.00  0.00    +0.035 A 
ATOM      4  C   LIG    1       -1.818   2.317  -0.722  0.00  0.00    +0.071 A 
ATOM      5  N   LIG    1       -0.750   1.586  -1.160  0.00  0.00    -0.302 N 
ATOM      6  C   LIG    1       -0.013   1.086   0.008  0.00  0.00    +0.162 C 
ATOM      7  C   LIG    1       -0.747   1.586   1.226  0.00  0.00    +0.000 A 
ATOM      8  C   LIG    1       -0.531   1.439   2.560  0.00  0.00    +0.017 A 
ATOM      9  C   LIG    1       -1.433   2.052   3.452  0.00  0.00    +0.004 A 
ATOM     10  C   LIG    1       -1.271   1.942   4.841  0.00  0.00    +0.059 A 
ATOM     11  C   LIG    1       -2.163   2.547   5.679  0.00  0.00    +0.167 A 
ATOM     12  O   LIG    1       -2.226   2.589   7.042  0.00  0.00    -0.453 OA
ATOM     13  C   LIG    1       -3.570   2.997   7.354  0.00  0.00    +0.466 C 
ATOM     14  O   LIG    1       -3.971   3.773   6.210  0.00  0.00    -0.453 OA
ATOM     15  C   LIG    1       -3.246   3.282   5.163  0.00  0.00    +0.168 A 
ATOM     16  C   LIG    1       -3.427   3.405   3.816  0.00  0.00    +0.078 A 
ATOM     17  C   LIG    1       -2.525   2.792   2.927  0.00  0.00    +0.075 A 
ATOM     18  N   LIG    1       -2.685   2.902   1.608  0.00  0.00    -0.245 NA
ATOM     19  C   LIG    1       -0.526   1.427  -2.478  0.00  0.00    +0.259 A 
ATOM     20  O   LIG    1        0.432   0.770  -2.851  0.00  0.00    -0.267 OA
ATOM     21  C   LIG    1       -1.844   2.332   0.760  0.00  0.00    +0.093 A 
ATOM     22  C   LIG    1       -1.385   2.009  -3.433  0.00  0.00    +0.061 A 
ATOM     23  C   LIG    1       -1.099   1.773  -4.892  0.00  0.00    +0.273 C 
ATOM     24  O   LIG    1       -1.831   2.716  -5.717  0.00  0.00    -0.457 OA
ATOM     25  C   LIG    1       -3.126   2.891  -5.366  0.00  0.00    +0.344 C 
ATOM     26  O   LIG    1       -4.029   2.638  -6.128  0.00  0.00    -0.247 OA
ENDROOT
BRANCH   1  28
ATOM     27  C   LIG    1       -4.108   5.609  -4.939  0.00  0.00    +0.007 C 
ATOM     28  C   LIG    1       -3.156   4.933  -3.950  0.00  0.00    +0.048 C 
ENDBRANCH   1  28
BRANCH   1  29
ATOM     29  O   LIG    1       -4.736   3.136  -3.601  0.00  0.00    -0.373 OA
ATOM     30  H   LIG    1       -5.398   3.532  -4.184  0.00  0.00    +0.211 HD
ENDBRANCH   1  29
TORSDOF 2
