REMARK  Name = ZINC00601274
REMARK                            x       y       z     vdW  Elec       q    Type
REMARK                         _______ _______ _______ _____ _____    ______ ____
ROOT
ATOM      1  N   LIG    1        6.811  -6.029  -7.658  0.00  0.00    -0.314 N 
ATOM      2  H   LIG    1        6.365  -5.929  -8.513  0.00  0.00    +0.149 HD
ENDROOT
BRANCH   1   3
ATOM      3  C   LIG    1        8.018  -6.693  -7.583  0.00  0.00    +0.175 A 
ATOM      4  N   LIG    1        8.702  -6.889  -6.484  0.00  0.00    -0.327 N 
ATOM      5  H   LIG    1        8.437  -6.590  -5.600  0.00  0.00    +0.169 HD
ATOM      6  C   LIG    1        9.839  -7.576  -6.771  0.00  0.00    +0.065 A 
ATOM      7  C   LIG    1       10.903  -8.039  -5.992  0.00  0.00    +0.028 A 
ATOM      8  C   LIG    1       11.940  -8.721  -6.588  0.00  0.00    +0.002 A 
ATOM      9  C   LIG    1       11.937  -8.952  -7.956  0.00  0.00    +0.002 A 
ATOM     10  C   LIG    1       10.895  -8.501  -8.738  0.00  0.00    +0.028 A 
ATOM     11  C   LIG    1        9.842  -7.812  -8.155  0.00  0.00    +0.068 A 
ATOM     12  N   LIG    1        8.675  -7.247  -8.644  0.00  0.00    -0.309 N 
BRANCH  12  13
ATOM     13  C   LIG    1        8.230  -7.244 -10.040  0.00  0.00    +0.160 C 
BRANCH  13  14
ATOM     14  C   LIG    1        8.764  -6.018 -10.734  0.00  0.00    -0.027 A 
ATOM     15  C   LIG    1        8.028  -4.847 -10.732  0.00  0.00    +0.008 A 
ATOM     16  C   LIG    1        8.517  -3.722 -11.368  0.00  0.00    +0.038 A 
ATOM     17  C   LIG    1        9.744  -3.767 -12.008  0.00  0.00    +0.123 A 
ATOM     18  F   LIG    1       10.223  -2.667 -12.630  0.00  0.00    -0.205 F 
ATOM     19  C   LIG    1       10.480  -4.939 -12.009  0.00  0.00    +0.038 A 
ATOM     20  C   LIG    1        9.992  -6.062 -11.367  0.00  0.00    +0.008 A 
ENDBRANCH  13  14
ENDBRANCH  12  13
ENDBRANCH   1   3
BRANCH   1  25
ATOM     21  N   LIG    1        4.638  -3.375  -5.210  0.00  0.00    +0.380 N 
ATOM     22  H   LIG    1        4.482  -2.826  -6.042  0.00  0.00    -0.082 HD
ATOM     23  C   LIG    1        4.070  -4.715  -5.397  0.00  0.00    -0.077 C 
ATOM     24  C   LIG    1        4.688  -5.367  -6.635  0.00  0.00    +0.003 C 
ATOM     25  C   LIG    1        6.204  -5.476  -6.445  0.00  0.00    +0.070 C 
ATOM     26  C   LIG    1        6.776  -4.081  -6.177  0.00  0.00    +0.003 C 
ATOM     27  C   LIG    1        6.080  -3.476  -4.955  0.00  0.00    -0.077 C 
BRANCH  21  28
ATOM     28  C   LIG    1        3.986  -2.723  -4.066  0.00  0.00    -0.074 C 
BRANCH  28  29
ATOM     29  C   LIG    1        2.505  -2.503  -4.381  0.00  0.00    +0.016 C 
BRANCH  29  33
ATOM     30  C   LIG    1        0.606  -0.607  -1.056  0.00  0.00    +0.120 A 
ATOM     31  C   LIG    1        1.173   0.161  -2.062  0.00  0.00    +0.046 A 
ATOM     32  C   LIG    1        1.786  -0.455  -3.136  0.00  0.00    +0.007 A 
ATOM     33  C   LIG    1        1.835  -1.835  -3.209  0.00  0.00    -0.049 A 
ATOM     34  C   LIG    1        1.270  -2.602  -2.207  0.00  0.00    +0.007 A 
ATOM     35  C   LIG    1        0.661  -1.992  -1.128  0.00  0.00    +0.046 A 
BRANCH  30  37
ATOM     36  C   LIG    1       -0.017   1.425   0.010  0.00  0.00    +0.277 C 
ATOM     37  O   LIG    1        0.002  -0.004   0.002  0.00  0.00    -0.495 OA
ENDBRANCH  30  37
ENDBRANCH  29  33
ENDBRANCH  28  29
ENDBRANCH  21  28
ENDBRANCH   1  25
TORSDOF 8
