REMARK  Name = ZINC00446294
REMARK                            x       y       z     vdW  Elec       q    Type
REMARK                         _______ _______ _______ _____ _____    ______ ____
ROOT
ATOM      1  C   LIG    1       -0.050   3.846   0.023  0.00  0.00    +0.019 A 
ATOM      2  C   LIG    1        1.169   3.159   0.008  0.00  0.00    +0.011 A 
ATOM      3  C   LIG    1        1.179   1.781   0.000  0.00  0.00    +0.003 A 
ATOM      4  C   LIG    1       -0.013   1.076   0.008  0.00  0.00    +0.032 A 
ATOM      5  C   LIG    1       -1.222   1.748   0.017  0.00  0.00    +0.122 A 
ATOM      6  C   LIG    1       -1.249   3.127   0.031  0.00  0.00    +0.044 A 
ENDROOT
BRANCH   1   7
ATOM      7  C   LIG    1       -0.070   5.317   0.031  0.00  0.00    +0.161 C 
ATOM      8  O   LIG    1       -1.128   5.909   0.044  0.00  0.00    -0.292 OA
BRANCH   7   9
ATOM      9  C   LIG    1        1.225   6.088   0.022  0.00  0.00    +0.061 C 
BRANCH   9  10
ATOM     10  C   LIG    1        0.925   7.589   0.033  0.00  0.00    -0.072 C 
BRANCH  10  12
ATOM     11  C   LIG    1        2.912   8.138  -1.237  0.00  0.00    -0.097 C 
ATOM     12  N   LIG    1        2.203   8.330   0.045  0.00  0.00    +0.376 N 
ATOM     13  H   LIG    1        2.790   7.971   0.808  0.00  0.00    -0.083 HD
ATOM     14  C   LIG    1        1.950   9.769   0.272  0.00  0.00    -0.097 C 
ENDBRANCH  10  12
ENDBRANCH   9  10
ENDBRANCH   7   9
ENDBRANCH   1   7
BRANCH   5  15
ATOM     15  N   LIG    1       -2.490   0.985   0.019  0.00  0.00    +0.006 N 
ATOM     16  O   LIG    1       -2.468  -0.233   0.013  0.00  0.00    -0.130 OA
BRANCH  15  17
ATOM     17  O   LIG    1       -3.556   1.574   0.028  0.00  0.00    -0.396 OA
ATOM     18  H   LIG    1       -3.573   2.511   0.033  0.00  0.00    +0.329 HD
ENDBRANCH  15  17
ENDBRANCH   5  15
TORSDOF 6
