REMARK  Name = ZINC00466797
REMARK                            x       y       z     vdW  Elec       q    Type
REMARK                         _______ _______ _______ _____ _____    ______ ____
ROOT
ATOM      1  C   LIG    1        1.682   3.902   9.177  0.00  0.00    +0.149 C 
ATOM      2  N   LIG    1        2.274   3.386   8.128  0.00  0.00    -0.229 NA
ATOM      3  C   LIG    1        1.599   3.050   7.019  0.00  0.00    +0.120 C 
ATOM      4  C   LIG    1        0.140   3.303   7.050  0.00  0.00    +0.244 C 
ATOM      5  O   LIG    1       -0.705   3.103   6.196  0.00  0.00    -0.278 OA
ATOM      6  C   LIG    1        2.224   2.509   5.918  0.00  0.00    +0.040 C 
ATOM      7  S   LIG    1       -0.034   3.984   8.694  0.00  0.00    -0.018 S 
ENDROOT
BRANCH   6   8
ATOM      8  C   LIG    1        1.426   1.984   4.807  0.00  0.00    -0.023 A 
ATOM      9  C   LIG    1        1.810   2.241   3.483  0.00  0.00    +0.010 A 
ATOM     10  C   LIG    1        1.062   1.750   2.451  0.00  0.00    +0.023 A 
ATOM     11  C   LIG    1       -0.080   0.995   2.712  0.00  0.00    +0.029 A 
ATOM     12  C   LIG    1       -0.468   0.743   4.025  0.00  0.00    +0.023 A 
ATOM     13  C   LIG    1        0.276   1.224   5.064  0.00  0.00    +0.010 A 
BRANCH  11  14
ATOM     14  N   LIG    1       -0.838   0.497   1.657  0.00  0.00    -0.336 N 
ATOM     15  C   LIG    1       -2.039  -0.296   1.928  0.00  0.00    +0.129 C 
ATOM     16  C   LIG    1       -0.434   0.767   0.274  0.00  0.00    +0.129 C 
ENDBRANCH  11  14
ENDBRANCH   6   8
BRANCH   1  17
ATOM     17  S   LIG    1        2.410   4.398  10.704  0.00  0.00    +0.019 S 
BRANCH  17  18
ATOM     18  C   LIG    1        4.096   3.999  10.383  0.00  0.00    +0.375 C 
ATOM     19  O   LIG    1        4.414   3.519   9.313  0.00  0.00    -0.237 OA
BRANCH  18  20
ATOM     20  O   LIG    1        5.032   4.227  11.324  0.00  0.00    -0.457 OA
BRANCH  20  22
ATOM     21  C   LIG    1        7.314   4.203  12.173  0.00  0.00    +0.048 C 
ATOM     22  C   LIG    1        6.401   3.874  10.990  0.00  0.00    +0.229 C 
ENDBRANCH  20  22
ENDBRANCH  18  20
ENDBRANCH  17  18
ENDBRANCH   1  17
TORSDOF 6
