REMARK  Name = ZINC00585151
REMARK                            x       y       z     vdW  Elec       q    Type
REMARK                         _______ _______ _______ _____ _____    ______ ____
ROOT
ATOM      1  C   LIG    1       -0.812   1.956   7.720  0.00  0.00    +0.059 C 
ATOM      2  C   LIG    1       -1.344   3.233   7.583  0.00  0.00    +0.059 C 
ATOM      3  C   LIG    1       -1.193   3.883   8.902  0.00  0.00    +0.252 C 
ATOM      4  N   LIG    1       -0.604   3.016   9.743  0.00  0.00    -0.248 N 
ATOM      5  H   LIG    1       -0.393   3.204  10.671  0.00  0.00    +0.158 HD
ATOM      6  O   LIG    1       -1.543   5.013   9.179  0.00  0.00    -0.270 OA
ATOM      7  C   LIG    1       -0.353   1.852   9.121  0.00  0.00    +0.252 C 
ATOM      8  O   LIG    1        0.168   0.877   9.625  0.00  0.00    -0.270 OA
ENDROOT
BRANCH   2   9
ATOM      9  C   LIG    1       -1.938   3.819   6.370  0.00  0.00    +0.013 A 
ATOM     10  C   LIG    1       -3.167   3.544   5.848  0.00  0.00    +0.092 A 
ATOM     11  N   LIG    1       -3.363   4.281   4.721  0.00  0.00    -0.360 N 
ATOM     12  C   LIG    1       -2.259   5.069   4.467  0.00  0.00    +0.047 A 
ATOM     13  C   LIG    1       -1.954   5.984   3.465  0.00  0.00    +0.026 A 
ATOM     14  C   LIG    1       -0.746   6.646   3.482  0.00  0.00    +0.002 A 
ATOM     15  C   LIG    1        0.180   6.400   4.486  0.00  0.00    +0.001 A 
ATOM     16  C   LIG    1       -0.101   5.494   5.485  0.00  0.00    +0.010 A 
ATOM     17  H   LIG    1       -4.164   4.256   4.175  0.00  0.00    +0.165 HD
ATOM     18  C   LIG    1       -1.322   4.824   5.484  0.00  0.00    +0.008 A 
ENDBRANCH   2   9
BRANCH   1  21
ATOM     19  N   LIG    1       -0.082  -0.239   4.890  0.00  0.00    -0.346 N 
ATOM     20  C   LIG    1        0.147   0.876   5.636  0.00  0.00    +0.095 A 
ATOM     21  C   LIG    1       -0.728   0.916   6.681  0.00  0.00    +0.013 A 
ATOM     22  C   LIG    1       -1.573  -0.286   6.567  0.00  0.00    +0.008 A 
ATOM     23  C   LIG    1       -2.627  -0.800   7.318  0.00  0.00    +0.010 A 
ATOM     24  C   LIG    1       -3.232  -1.976   6.929  0.00  0.00    +0.001 A 
ATOM     25  C   LIG    1       -2.788  -2.652   5.802  0.00  0.00    +0.002 A 
ATOM     26  C   LIG    1       -1.743  -2.156   5.052  0.00  0.00    +0.026 A 
ATOM     27  C   LIG    1       -1.124  -0.968   5.424  0.00  0.00    +0.050 A 
BRANCH  19  28
ATOM     28  C   LIG    1        0.669  -0.610   3.687  0.00  0.00    +0.120 C 
BRANCH  28  29
ATOM     29  C   LIG    1       -0.071  -0.103   2.448  0.00  0.00    +0.003 C 
BRANCH  29  30
ATOM     30  C   LIG    1        0.713  -0.491   1.192  0.00  0.00    -0.078 C 
BRANCH  30  32
ATOM     31  C   LIG    1       -0.018   1.465   0.010  0.00  0.00    -0.097 C 
ATOM     32  N   LIG    1        0.002  -0.004   0.002  0.00  0.00    +0.376 N 
ATOM     33  H   LIG    1       -0.945  -0.353   0.009  0.00  0.00    -0.083 HD
ATOM     34  C   LIG    1        0.690  -0.478  -1.207  0.00  0.00    -0.097 C 
ENDBRANCH  30  32
ENDBRANCH  29  30
ENDBRANCH  28  29
ENDBRANCH  19  28
ENDBRANCH   1  21
TORSDOF 6
