REMARK  Name = ZINC00621893
REMARK                            x       y       z     vdW  Elec       q    Type
REMARK                         _______ _______ _______ _____ _____    ______ ____
ROOT
ATOM      1  C   LIG    1       -0.338  -2.552  -1.249  0.00  0.00    +0.279 C 
ATOM      2  C   LIG    1        0.751  -2.653  -2.331  0.00  0.00    +0.131 C 
ATOM      3  S   LIG    1        0.967  -4.422  -2.723  0.00  0.00    -0.111 S 
ATOM      4  C   LIG    1        0.895  -5.197  -1.140  0.00  0.00    +0.030 A 
ATOM      5  C   LIG    1        2.038  -5.718  -0.557  0.00  0.00    +0.016 A 
ATOM      6  C   LIG    1        1.958  -6.323   0.685  0.00  0.00    +0.001 A 
ATOM      7  C   LIG    1        0.743  -6.407   1.341  0.00  0.00    +0.002 A 
ATOM      8  C   LIG    1       -0.402  -5.888   0.763  0.00  0.00    +0.024 A 
ATOM      9  C   LIG    1       -0.329  -5.280  -0.479  0.00  0.00    +0.050 A 
ATOM     10  N   LIG    1       -1.477  -4.743  -1.081  0.00  0.00    -0.269 N 
ATOM     11  C   LIG    1       -1.467  -3.489  -1.558  0.00  0.00    +0.262 C 
ATOM     12  O   LIG    1       -2.389  -3.104  -2.246  0.00  0.00    -0.271 OA
ENDROOT
BRANCH   2  13
ATOM     13  C   LIG    1        0.319  -1.902  -3.564  0.00  0.00    -0.030 A 
ATOM     14  C   LIG    1        0.945  -0.717  -3.905  0.00  0.00    +0.008 A 
ATOM     15  C   LIG    1        0.551  -0.027  -5.035  0.00  0.00    +0.046 A 
ATOM     16  C   LIG    1       -0.473  -0.524  -5.828  0.00  0.00    +0.120 A 
ATOM     17  C   LIG    1       -1.099  -1.713  -5.484  0.00  0.00    +0.046 A 
ATOM     18  C   LIG    1       -0.698  -2.402  -4.356  0.00  0.00    +0.008 A 
BRANCH  16  19
ATOM     19  O   LIG    1       -0.863   0.154  -6.940  0.00  0.00    -0.495 OA
ATOM     20  C   LIG    1       -1.924  -0.417  -7.709  0.00  0.00    +0.277 C 
ENDBRANCH  16  19
ENDBRANCH   2  13
BRANCH   1  21
ATOM     21  O   LIG    1       -0.835  -1.213  -1.203  0.00  0.00    -0.451 OA
BRANCH  21  23
ATOM     22  C   LIG    1       -1.812   0.636   0.110  0.00  0.00    +0.136 C 
ATOM     23  C   LIG    1       -1.273  -0.766  -0.015  0.00  0.00    +0.305 C 
ATOM     24  O   LIG    1       -1.236  -1.488   0.953  0.00  0.00    -0.251 OA
ENDBRANCH  21  23
ENDBRANCH   1  21
BRANCH  10  25
ATOM     25  C   LIG    1       -2.690  -5.556  -1.194  0.00  0.00    +0.095 C 
BRANCH  25  26
ATOM     26  C   LIG    1       -3.558  -5.353   0.049  0.00  0.00    -0.060 C 
BRANCH  26  27
ATOM     27  N   LIG    1       -4.774  -6.169  -0.064  0.00  0.00    +0.377 N 
ATOM     28  H   LIG    1       -5.249  -5.947  -0.927  0.00  0.00    -0.083 HD
ATOM     29  C   LIG    1       -5.662  -5.884   1.071  0.00  0.00    -0.097 C 
ATOM     30  C   LIG    1       -4.411  -7.593  -0.057  0.00  0.00    -0.097 C 
ENDBRANCH  26  27
ENDBRANCH  25  26
ENDBRANCH  10  25
TORSDOF 7
