REMARK  Name = ZINC00388546
REMARK                            x       y       z     vdW  Elec       q    Type
REMARK                         _______ _______ _______ _____ _____    ______ ____
ROOT
ATOM      1  C   LIG    1        2.404   0.017  -0.020  0.00  0.00    +0.060 A 
ATOM      2  C   LIG    1        2.390   1.413  -0.013  0.00  0.00    +0.066 A 
ATOM      3  C   LIG    1        1.172   2.094   0.002  0.00  0.00    +0.060 A 
ATOM      4  C   LIG    1       -0.017   1.383   0.010  0.00  0.00    +0.121 A 
ATOM      5  C   LIG    1        0.002  -0.004   0.002  0.00  0.00    +0.090 A 
ATOM      6  C   LIG    1        1.210  -0.685  -0.013  0.00  0.00    +0.121 A 
ENDROOT
BRANCH   2   7
ATOM      7  C   LIG    1        3.661   2.167  -0.021  0.00  0.00    +0.337 C 
ATOM      8  O   LIG    1        4.720   1.572  -0.034  0.00  0.00    -0.245 OA
BRANCH   7   9
ATOM      9  O   LIG    1        3.645   3.514  -0.014  0.00  0.00    -0.477 OA
ATOM     10  H   LIG    1        2.828   3.972  -0.004  0.00  0.00    +0.295 HD
ENDBRANCH   7   9
ENDBRANCH   2   7
BRANCH   4  11
ATOM     11  O   LIG    1       -1.203   2.046   0.019  0.00  0.00    -0.507 OA
ATOM     12  H   LIG    1       -1.543   2.232   0.905  0.00  0.00    +0.292 HD
ENDBRANCH   4  11
BRANCH   6  13
ATOM     13  O   LIG    1        1.223  -2.045  -0.020  0.00  0.00    -0.507 OA
ATOM     14  H   LIG    1        1.219  -2.433  -0.906  0.00  0.00    +0.292 HD
ENDBRANCH   6  13
TORSDOF 4
