REMARK  Name = ZINC00537891
REMARK                            x       y       z     vdW  Elec       q    Type
REMARK                         _______ _______ _______ _____ _____    ______ ____
ROOT
ATOM      1  C   LIG    1       -0.019   1.526   0.010  0.00  0.00    +0.034 C 
ATOM      2  C   LIG    1        0.002  -0.004   0.002  0.00  0.00    +0.122 C 
ATOM      3  C   LIG    1       -1.434  -0.535   0.015  0.00  0.00    +0.254 C 
ATOM      4  O   LIG    1       -2.044  -0.178   1.261  0.00  0.00    -0.486 OA
ATOM      5  C   LIG    1       -1.386  -0.584   2.382  0.00  0.00    +0.168 A 
ATOM      6  C   LIG    1       -0.002  -0.753   2.351  0.00  0.00    +0.097 A 
ATOM      7  C   LIG    1        0.655  -1.185   3.516  0.00  0.00    +0.052 A 
ATOM      8  C   LIG    1       -0.067  -1.428   4.688  0.00  0.00    +0.054 A 
ATOM      9  C   LIG    1       -1.421  -1.250   4.704  0.00  0.00    +0.149 A 
ATOM     10  F   LIG    1       -2.117  -1.483   5.838  0.00  0.00    -0.203 F 
ATOM     11  C   LIG    1        2.117  -1.378   3.474  0.00  0.00    +0.204 A 
ATOM     12  O   LIG    1        2.738  -1.751   4.454  0.00  0.00    -0.286 OA
ATOM     13  C   LIG    1        2.793  -1.100   2.196  0.00  0.00    +0.122 A 
ATOM     14  C   LIG    1        2.040  -0.669   1.122  0.00  0.00    +0.105 A 
ATOM     15  C   LIG    1       -2.089  -0.829   3.552  0.00  0.00    +0.110 A 
ATOM     16  N   LIG    1        0.712  -0.492   1.194  0.00  0.00    -0.337 N 
ENDROOT
BRANCH  15  17
ATOM     17  N   LIG    1       -3.474  -0.652   3.579  0.00  0.00    -0.322 N 
ATOM     18  C   LIG    1       -4.062   0.648   3.936  0.00  0.00    +0.120 C 
ATOM     19  C   LIG    1       -5.110   0.424   5.032  0.00  0.00    +0.103 C 
ATOM     20  N   LIG    1       -6.072  -0.592   4.585  0.00  0.00    -0.302 NA
ATOM     21  C   LIG    1       -7.189  -0.712   5.532  0.00  0.00    +0.105 C 
ATOM     22  C   LIG    1       -5.418  -1.890   4.375  0.00  0.00    +0.103 C 
ATOM     23  C   LIG    1       -4.383  -1.760   3.246  0.00  0.00    +0.120 C 
ENDBRANCH  15  17
BRANCH  13  24
ATOM     24  C   LIG    1        4.242  -1.277   2.065  0.00  0.00    +0.342 C 
ATOM     25  O   LIG    1        4.794  -1.044   0.998  0.00  0.00    -0.245 OA
BRANCH  24  26
ATOM     26  O   LIG    1        4.901  -1.660   3.024  0.00  0.00    -0.477 OA
ATOM     27  H   LIG    1        4.479  -1.839   3.841  0.00  0.00    +0.295 HD
ENDBRANCH  24  26
ENDBRANCH  13  24
TORSDOF 3
