REMARK  Name = ZINC00528358
REMARK                            x       y       z     vdW  Elec       q    Type
REMARK                         _______ _______ _______ _____ _____    ______ ____
ROOT
ATOM      1  S   LIG    1       -4.186  -1.345   0.034  0.00  0.00    +0.076 S 
ATOM      2  O   LIG    1       -5.324  -2.195   0.068  0.00  0.00    -0.150 OA
ATOM      3  O   LIG    1       -3.986  -0.379  -0.988  0.00  0.00    -0.150 OA
ENDROOT
BRANCH   1  10
ATOM      4  C   LIG    1       -1.498  -1.848   0.006  0.00  0.00    +0.147 A 
ATOM      5  C   LIG    1       -0.387  -2.679  -0.003  0.00  0.00    +0.048 A 
ATOM      6  C   LIG    1       -0.552  -4.051  -0.008  0.00  0.00    +0.007 A 
ATOM      7  C   LIG    1       -1.823  -4.596  -0.004  0.00  0.00    -0.048 A 
ATOM      8  C   LIG    1       -2.001  -6.092  -0.010  0.00  0.00    +0.044 C 
ATOM      9  C   LIG    1       -2.932  -3.769   0.004  0.00  0.00    +0.036 A 
ATOM     10  C   LIG    1       -2.772  -2.397   0.016  0.00  0.00    +0.150 A 
BRANCH   4  11
ATOM     11  O   LIG    1       -1.339  -0.499   0.012  0.00  0.00    -0.490 OA
BRANCH  11  13
ATOM     12  C   LIG    1       -0.019   1.526   0.010  0.00  0.00    +0.048 C 
ATOM     13  C   LIG    1        0.002  -0.004   0.002  0.00  0.00    +0.226 C 
ENDBRANCH  11  13
ENDBRANCH   4  11
ENDBRANCH   1  10
BRANCH   1  14
ATOM     14  N   LIG    1       -4.165  -0.523   1.472  0.00  0.00    -0.215 N 
ATOM     15  H   LIG    1       -3.441  -0.681   2.119  0.00  0.00    +0.174 HD
BRANCH  14  16
ATOM     16  C   LIG    1       -5.177   0.394   1.767  0.00  0.00    +0.066 A 
ATOM     17  C   LIG    1       -5.168   1.094   2.971  0.00  0.00    +0.027 A 
ATOM     18  C   LIG    1       -6.192   1.993   3.217  0.00  0.00    +0.022 A 
ATOM     19  C   LIG    1       -7.184   2.163   2.269  0.00  0.00    +0.111 A 
ATOM     20  N   LIG    1       -7.165   1.484   1.139  0.00  0.00    -0.261 NA
ATOM     21  C   LIG    1       -6.205   0.624   0.861  0.00  0.00    +0.135 A 
ENDBRANCH  14  16
ENDBRANCH   1  14
TORSDOF 5
