REMARK  Name = ZINC00392003
REMARK                            x       y       z     vdW  Elec       q    Type
REMARK                         _______ _______ _______ _____ _____    ______ ____
ROOT
ATOM      1  C   LIG    1       -0.017   1.382   0.010  0.00  0.00    +0.000 A 
ATOM      2  C   LIG    1        1.049   2.268   0.004  0.00  0.00    +0.004 A 
ATOM      3  C   LIG    1        2.406   1.994  -0.010  0.00  0.00    +0.049 A 
ATOM      4  C   LIG    1        3.039   0.753  -0.023  0.00  0.00    +0.164 A 
ATOM      5  C   LIG    1        2.447  -0.532  -0.025  0.00  0.00    +0.220 A 
ATOM      6  C   LIG    1        1.093  -0.857  -0.014  0.00  0.00    +0.054 A 
ATOM      7  O   LIG    1        3.300  -1.571  -0.038  0.00  0.00    -0.284 OA
ATOM      8  C   LIG    1        0.002  -0.004   0.002  0.00  0.00    +0.004 A 
ENDROOT
BRANCH   4   9
ATOM      9  O   LIG    1        4.383   0.780  -0.036  0.00  0.00    -0.503 OA
ATOM     10  H   LIG    1        4.835   1.600  -0.035  0.00  0.00    +0.292 HD
ENDBRANCH   4   9
TORSDOF 1
