REMARK  Name = ZINC00392732
REMARK                            x       y       z     vdW  Elec       q    Type
REMARK                         _______ _______ _______ _____ _____    ______ ____
ROOT
ATOM      1  C   LIG    1       -1.235   3.138   0.030  0.00  0.00    +0.120 A 
ATOM      2  C   LIG    1       -1.216   1.750   0.017  0.00  0.00    +0.046 A 
ATOM      3  C   LIG    1       -0.013   1.076   0.008  0.00  0.00    +0.012 A 
ATOM      4  C   LIG    1        1.185   1.790   0.000  0.00  0.00    -0.018 A 
ATOM      5  C   LIG    1        1.161   3.183   0.008  0.00  0.00    +0.012 A 
ATOM      6  C   LIG    1       -0.045   3.852   0.022  0.00  0.00    +0.046 A 
ENDROOT
BRANCH   4   7
ATOM      7  C   LIG    1        2.480   1.068  -0.016  0.00  0.00    -0.018 A 
ATOM      8  C   LIG    1        2.503  -0.326  -0.018  0.00  0.00    +0.012 A 
ATOM      9  C   LIG    1        3.710  -0.994  -0.037  0.00  0.00    +0.046 A 
ATOM     10  C   LIG    1        4.900  -0.280  -0.045  0.00  0.00    +0.117 A 
ATOM     11  C   LIG    1        4.881   1.108  -0.038  0.00  0.00    +0.046 A 
ATOM     12  C   LIG    1        3.677   1.782  -0.024  0.00  0.00    +0.012 A 
BRANCH  10  13
ATOM     13  O   LIG    1        6.087  -0.941  -0.060  0.00  0.00    -0.507 OA
ATOM     14  H   LIG    1        6.439  -1.137   0.820  0.00  0.00    +0.292 HD
ENDBRANCH  10  13
ENDBRANCH   4   7
BRANCH   1  16
ATOM     15  C   LIG    1       -3.609   3.002   0.053  0.00  0.00    +0.277 C 
ATOM     16  O   LIG    1       -2.422   3.799   0.045  0.00  0.00    -0.495 OA
ENDBRANCH   1  16
TORSDOF 3
