REMARK  Name = ZINC00597180
REMARK                            x       y       z     vdW  Elec       q    Type
REMARK                         _______ _______ _______ _____ _____    ______ ____
ROOT
ATOM      1  C   LIG    1       -2.321  -4.208  -0.311  0.00  0.00    +0.280 C 
ATOM      2  C   LIG    1       -3.289  -4.636  -1.379  0.00  0.00    +0.262 C 
ATOM      3  N   LIG    1       -3.425  -5.914  -1.729  0.00  0.00    -0.271 N 
ATOM      4  C   LIG    1       -4.440  -6.235  -2.735  0.00  0.00    +0.138 C 
ATOM      5  C   LIG    1       -2.678  -6.963  -1.218  0.00  0.00    +0.045 A 
ATOM      6  C   LIG    1       -2.262  -7.951  -2.114  0.00  0.00    +0.024 A 
ATOM      7  C   LIG    1       -1.522  -9.028  -1.678  0.00  0.00    +0.002 A 
ATOM      8  C   LIG    1       -1.181  -9.141  -0.341  0.00  0.00    +0.001 A 
ATOM      9  C   LIG    1       -1.579  -8.178   0.556  0.00  0.00    +0.012 A 
ATOM     10  C   LIG    1       -2.334  -7.074   0.128  0.00  0.00    +0.022 A 
ATOM     11  C   LIG    1       -2.724  -6.081   1.141  0.00  0.00    +0.077 C 
ATOM     12  O   LIG    1       -3.966  -3.797  -1.934  0.00  0.00    -0.271 OA
ATOM     13  N   LIG    1       -2.720  -4.808   0.962  0.00  0.00    -0.251 NA
ENDROOT
BRANCH   1  17
ATOM     14  N   LIG    1       -1.192  -0.724   0.012  0.00  0.00    -0.269 N 
ATOM     15  H   LIG    1       -2.149  -0.189   0.102  0.00  0.00    +0.156 HD
ATOM     16  C   LIG    1       -1.177  -2.067  -0.098  0.00  0.00    +0.306 C 
ATOM     17  N   LIG    1       -2.337  -2.748  -0.191  0.00  0.00    -0.270 N 
ATOM     18  H   LIG    1       -3.295  -2.207  -0.178  0.00  0.00    +0.153 HD
ATOM     19  O   LIG    1       -0.118  -2.664  -0.113  0.00  0.00    -0.252 OA
BRANCH  14  25
ATOM     20  C   LIG    1        1.336   3.307  -1.228  0.00  0.00    +0.044 C 
ATOM     21  C   LIG    1        1.264   1.948  -0.582  0.00  0.00    -0.049 A 
ATOM     22  C   LIG    1        2.389   1.406   0.013  0.00  0.00    +0.003 A 
ATOM     23  C   LIG    1        2.328   0.159   0.606  0.00  0.00    +0.002 A 
ATOM     24  C   LIG    1        1.143  -0.550   0.608  0.00  0.00    +0.023 A 
ATOM     25  C   LIG    1        0.011  -0.008   0.012  0.00  0.00    +0.035 A 
ATOM     26  C   LIG    1        0.076   1.245  -0.584  0.00  0.00    +0.026 A 
ENDBRANCH  14  25
ENDBRANCH   1  17
BRANCH  11  27
ATOM     27  C   LIG    1       -3.154  -6.586   2.466  0.00  0.00    +0.001 A 
ATOM     28  C   LIG    1       -3.681  -7.871   2.588  0.00  0.00    +0.010 A 
ATOM     29  C   LIG    1       -4.076  -8.337   3.825  0.00  0.00    +0.001 A 
ATOM     30  C   LIG    1       -3.959  -7.529   4.941  0.00  0.00    +0.000 A 
ATOM     31  C   LIG    1       -3.441  -6.251   4.826  0.00  0.00    +0.001 A 
ATOM     32  C   LIG    1       -3.039  -5.775   3.595  0.00  0.00    +0.010 A 
ENDBRANCH  11  27
TORSDOF 3
