REMARK  Name = ZINC00477923
REMARK                            x       y       z     vdW  Elec       q    Type
REMARK                         _______ _______ _______ _____ _____    ______ ____
ROOT
ATOM      1  C   LIG    1       -3.675   3.810   0.056  0.00  0.00    +0.250 C 
ENDROOT
BRANCH   1   9
ATOM      2  C   LIG    1        1.184   1.781   0.000  0.00  0.00    +0.002 A 
ATOM      3  C   LIG    1       -0.013   1.076   0.008  0.00  0.00    +0.002 A 
ATOM      4  C   LIG    1       -1.209   1.737   0.017  0.00  0.00    +0.030 A 
ATOM      5  C   LIG    1       -1.230   3.127   0.030  0.00  0.00    +0.091 A 
ATOM      6  C   LIG    1       -0.022   3.847   0.022  0.00  0.00    +0.113 A 
ATOM      7  N   LIG    1       -0.328   5.160   0.032  0.00  0.00    -0.129 NA
ATOM      8  N   LIG    1       -1.604   5.321   0.044  0.00  0.00    -0.063 NA
ATOM      9  N   LIG    1       -2.233   4.067   0.044  0.00  0.00    -0.227 N 
ATOM     10  C   LIG    1        1.191   3.145   0.007  0.00  0.00    +0.032 A 
ENDBRANCH   1   9
BRANCH   1  11
ATOM     11  N   LIG    1       -4.169   3.732  -1.321  0.00  0.00    -0.325 N 
ATOM     12  H   LIG    1       -3.555   3.847  -2.063  0.00  0.00    +0.148 HD
BRANCH  11  13
ATOM     13  C   LIG    1       -5.526   3.492  -1.565  0.00  0.00    +0.029 A 
ATOM     14  C   LIG    1       -6.403   3.322  -0.503  0.00  0.00    +0.026 A 
ATOM     15  C   LIG    1       -7.743   3.091  -0.745  0.00  0.00    +0.047 A 
ATOM     16  C   LIG    1       -8.210   3.017  -2.049  0.00  0.00    +0.117 A 
ATOM     17  C   LIG    1       -7.333   3.181  -3.111  0.00  0.00    +0.047 A 
ATOM     18  C   LIG    1       -5.994   3.418  -2.870  0.00  0.00    +0.026 A 
BRANCH  16  19
ATOM     19  O   LIG    1       -9.529   2.783  -2.286  0.00  0.00    -0.507 OA
ATOM     20  H   LIG    1       -9.755   1.846  -2.361  0.00  0.00    +0.292 HD
ENDBRANCH  16  19
ENDBRANCH  11  13
ENDBRANCH   1  11
TORSDOF 4
