REMARK  Name = ZINC00596737
REMARK                            x       y       z     vdW  Elec       q    Type
REMARK                         _______ _______ _______ _____ _____    ______ ____
ROOT
ATOM      1  C   LIG    1        0.331   5.193   2.965  0.00  0.00    +0.021 A 
ATOM      2  C   LIG    1       -0.667   4.423   3.524  0.00  0.00    +0.017 A 
ATOM      3  C   LIG    1       -1.008   3.208   2.935  0.00  0.00    +0.063 A 
ATOM      4  C   LIG    1       -0.334   2.771   1.781  0.00  0.00    +0.061 A 
ATOM      5  N   LIG    1       -0.698   1.558   1.213  0.00  0.00    -0.282 N 
ATOM      6  C   LIG    1       -1.671   0.810   1.762  0.00  0.00    +0.333 A 
ATOM      7  N   LIG    1       -2.340   1.182   2.865  0.00  0.00    -0.256 N 
ATOM      8  O   LIG    1       -1.958  -0.248   1.237  0.00  0.00    -0.246 OA
ATOM      9  C   LIG    1        0.663   3.560   1.229  0.00  0.00    +0.046 A 
ATOM     10  C   LIG    1       -2.066   2.347   3.492  0.00  0.00    +0.265 A 
ATOM     11  O   LIG    1       -2.677   2.676   4.490  0.00  0.00    -0.267 OA
ATOM     12  C   LIG    1        0.993   4.763   1.823  0.00  0.00    +0.043 A 
ATOM     13 CL   LIG    1        2.246   5.748   1.134  0.00  0.00    -0.083 Cl
ENDROOT
BRANCH   5  14
ATOM     14  C   LIG    1       -0.013   1.086   0.008  0.00  0.00    +0.247 C 
BRANCH  14  15
ATOM     15  C   LIG    1       -0.742   1.585  -1.213  0.00  0.00    +0.325 C 
ATOM     16  O   LIG    1       -1.732   2.266  -1.089  0.00  0.00    -0.249 OA
BRANCH  15  17
ATOM     17  O   LIG    1       -0.290   1.274  -2.438  0.00  0.00    -0.479 OA
ATOM     18  H   LIG    1        0.478   0.746  -2.534  0.00  0.00    +0.295 HD
ENDBRANCH  15  17
ENDBRANCH  14  15
ENDBRANCH   5  14
BRANCH   7  19
ATOM     19  C   LIG    1       -3.387   0.308   3.399  0.00  0.00    +0.168 C 
BRANCH  19  20
ATOM     20  C   LIG    1       -2.782  -0.653   4.390  0.00  0.00    +0.008 A 
ATOM     21  C   LIG    1       -2.497  -1.951   4.008  0.00  0.00    +0.009 A 
ATOM     22  C   LIG    1       -1.938  -2.831   4.915  0.00  0.00    +0.016 A 
ATOM     23  C   LIG    1       -1.672  -2.418   6.208  0.00  0.00    +0.021 A 
ATOM     24 BR   LIG    1       -0.914  -3.626   7.450  0.00  0.00    -0.050 Br
ATOM     25  C   LIG    1       -1.962  -1.122   6.593  0.00  0.00    +0.054 A 
ATOM     26  C   LIG    1       -2.517  -0.238   5.684  0.00  0.00    +0.129 A 
ATOM     27  F   LIG    1       -2.801   1.028   6.058  0.00  0.00    -0.205 F 
ENDBRANCH  19  20
ENDBRANCH   7  19
TORSDOF 5
