REMARK  Name = ZINC00591993
REMARK                            x       y       z     vdW  Elec       q    Type
REMARK                         _______ _______ _______ _____ _____    ______ ____
ROOT
ATOM      1  C   LIG    1       -0.952   1.747   2.451  0.00  0.00    +0.061 C 
ATOM      2  C   LIG    1       -0.915   0.561   1.522  0.00  0.00    +0.016 C 
ATOM      3  C   LIG    1       -2.015  -0.196   1.367  0.00  0.00    +0.065 C 
ATOM      4  C   LIG    1       -2.021  -1.392   0.459  0.00  0.00    +0.098 C 
ATOM      5  C   LIG    1       -0.846  -1.356  -0.477  0.00  0.00    +0.065 C 
ATOM      6  C   LIG    1        0.207  -0.553  -0.248  0.00  0.00    +0.016 C 
ATOM      7  C   LIG    1        1.368  -0.556  -1.210  0.00  0.00    +0.061 C 
ATOM      8  N   LIG    1        0.236   0.272   0.842  0.00  0.00    -0.321 N 
ATOM      9  H   LIG    1        1.079   0.649   1.137  0.00  0.00    +0.152 HD
ENDROOT
BRANCH   4  10
ATOM     10  C   LIG    1       -1.953  -2.647   1.291  0.00  0.00    -0.005 A 
ATOM     11  C   LIG    1       -0.961  -2.793   2.242  0.00  0.00    +0.007 A 
ATOM     12  C   LIG    1       -0.898  -3.944   3.005  0.00  0.00    +0.000 A 
ATOM     13  C   LIG    1       -1.829  -4.949   2.817  0.00  0.00    +0.002 A 
ATOM     14  C   LIG    1       -2.822  -4.803   1.867  0.00  0.00    +0.033 A 
ATOM     15  C   LIG    1       -2.887  -3.650   1.107  0.00  0.00    +0.126 A 
BRANCH  15  16
ATOM     16  N   LIG    1       -3.953  -3.491   0.092  0.00  0.00    +0.006 N 
ATOM     17  O   LIG    1       -4.975  -4.130   0.185  0.00  0.00    -0.130 OA
BRANCH  16  18
ATOM     18  O   LIG    1       -3.802  -2.723  -0.829  0.00  0.00    -0.396 OA
ATOM     19  H   LIG    1       -3.010  -2.227  -0.900  0.00  0.00    +0.329 HD
ENDBRANCH  16  18
ENDBRANCH  15  16
ENDBRANCH   4  10
BRANCH   3  20
ATOM     20  C   LIG    1       -3.192   0.141   2.075  0.00  0.00    +0.337 C 
ATOM     21  O   LIG    1       -3.201   1.107   2.815  0.00  0.00    -0.245 OA
BRANCH  20  22
ATOM     22  O   LIG    1       -4.304  -0.609   1.931  0.00  0.00    -0.465 OA
ATOM     23  C   LIG    1       -5.457  -0.210   2.676  0.00  0.00    +0.280 C 
ENDBRANCH  20  22
ENDBRANCH   3  20
BRANCH   5  24
ATOM     24  C   LIG    1       -0.849  -2.185  -1.622  0.00  0.00    +0.338 C 
ATOM     25  O   LIG    1       -1.412  -1.820  -2.637  0.00  0.00    -0.245 OA
BRANCH  24  26
ATOM     26  O   LIG    1       -0.225  -3.382  -1.590  0.00  0.00    -0.461 OA
BRANCH  26  27
ATOM     27  C   LIG    1       -0.267  -4.167  -2.783  0.00  0.00    +0.235 C 
BRANCH  27  28
ATOM     28  C   LIG    1        0.487  -5.479  -2.557  0.00  0.00    +0.020 C 
ATOM     29  C   LIG    1        1.969  -5.181  -2.321  0.00  0.00    +0.010 C 
ATOM     30  C   LIG    1        0.337  -6.373  -3.790  0.00  0.00    +0.010 C 
ENDBRANCH  27  28
ENDBRANCH  26  27
ENDBRANCH  24  26
ENDBRANCH   5  24
TORSDOF 9
