REMARK  Name = ZINC00631544
REMARK                            x       y       z     vdW  Elec       q    Type
REMARK                         _______ _______ _______ _____ _____    ______ ____
ROOT
ATOM      1  C   LIG    1       -2.066   1.840   5.837  0.00  0.00    +0.249 C 
ATOM      2  N   LIG    1       -1.289   1.179   4.956  0.00  0.00    -0.275 N 
ATOM      3  H   LIG    1       -0.735   0.442   5.256  0.00  0.00    +0.156 HD
ATOM      4  O   LIG    1       -2.761   2.763   5.461  0.00  0.00    -0.270 OA
ENDROOT
BRANCH   2   5
ATOM      5  C   LIG    1       -1.283   1.551   3.622  0.00  0.00    +0.085 A 
ATOM      6  C   LIG    1       -0.559   0.998   2.575  0.00  0.00    +0.068 A 
ATOM      7  C   LIG    1       -0.732   1.580   1.257  0.00  0.00    -0.023 A 
ATOM      8  C   LIG    1       -1.601   2.615   1.194  0.00  0.00    -0.004 A 
ATOM      9  C   LIG    1       -1.979   3.405  -0.021  0.00  0.00    +0.043 C 
ATOM     10  C   LIG    1       -0.956   3.111  -1.127  0.00  0.00    +0.005 C 
ATOM     11  C   LIG    1       -0.758   1.595  -1.227  0.00  0.00    +0.005 C 
ATOM     12  C   LIG    1       -0.013   1.086   0.008  0.00  0.00    +0.037 C 
ATOM     13  S   LIG    1       -2.179   2.821   2.854  0.00  0.00    -0.077 S 
BRANCH   6  14
ATOM     14  C   LIG    1        0.351  -0.131   2.793  0.00  0.00    +0.244 C 
ATOM     15  N   LIG    1        1.643   0.095   3.104  0.00  0.00    -0.325 N 
ATOM     16  H   LIG    1        2.244  -0.652   3.249  0.00  0.00    +0.145 HD
ATOM     17  H   LIG    1        1.971   1.004   3.184  0.00  0.00    +0.145 HD
ATOM     18  O   LIG    1       -0.061  -1.272   2.693  0.00  0.00    -0.270 OA
ENDBRANCH   6  14
ENDBRANCH   2   5
BRANCH   1  22
ATOM     19  C   LIG    1       -2.086   0.696   9.927  0.00  0.00    -0.042 A 
ATOM     20  C   LIG    1       -2.878   1.749   9.503  0.00  0.00    +0.005 A 
ATOM     21  C   LIG    1       -2.876   2.125   8.175  0.00  0.00    +0.013 A 
ATOM     22  C   LIG    1       -2.073   1.442   7.261  0.00  0.00    +0.037 A 
ATOM     23  C   LIG    1       -1.280   0.379   7.695  0.00  0.00    +0.013 A 
ATOM     24  C   LIG    1       -1.287   0.015   9.026  0.00  0.00    +0.005 A 
BRANCH  19  26
ATOM     25  C   LIG    1       -3.509  -0.121  11.786  0.00  0.00    +0.015 C 
ATOM     26  C   LIG    1       -2.093   0.291  11.379  0.00  0.00    -0.013 C 
ATOM     27  C   LIG    1       -1.637   1.470  12.240  0.00  0.00    +0.015 C 
ATOM     28  C   LIG    1       -1.140  -0.888  11.583  0.00  0.00    +0.015 C 
ENDBRANCH  19  26
ENDBRANCH   1  22
TORSDOF 4
