REMARK  Name = ZINC00602269
REMARK                            x       y       z     vdW  Elec       q    Type
REMARK                         _______ _______ _______ _____ _____    ______ ____
ROOT
ATOM      1  C   LIG    1       -2.479  -4.085  -0.074  0.00  0.00    +0.093 A 
ATOM      2  C   LIG    1       -1.518  -4.936  -0.592  0.00  0.00    +0.073 A 
ATOM      3  N   LIG    1       -1.873  -6.190  -0.262  0.00  0.00    -0.345 N 
ATOM      4  H   LIG    1       -1.379  -6.991  -0.496  0.00  0.00    +0.167 HD
ATOM      5  C   LIG    1       -2.983  -6.165   0.422  0.00  0.00    +0.175 A 
ATOM      6  N   LIG    1       -3.394  -4.888   0.570  0.00  0.00    -0.327 N 
ENDROOT
BRANCH   2   7
ATOM      7  C   LIG    1       -0.320  -4.539  -1.369  0.00  0.00    +0.001 A 
ATOM      8  C   LIG    1       -0.429  -3.592  -2.387  0.00  0.00    +0.013 A 
ATOM      9  C   LIG    1        0.689  -3.225  -3.107  0.00  0.00    +0.039 A 
ATOM     10  C   LIG    1        1.919  -3.796  -2.820  0.00  0.00    +0.123 A 
ATOM     11  F   LIG    1        3.011  -3.433  -3.527  0.00  0.00    -0.205 F 
ATOM     12  C   LIG    1        2.032  -4.737  -1.809  0.00  0.00    +0.039 A 
ATOM     13  C   LIG    1        0.921  -5.106  -1.079  0.00  0.00    +0.013 A 
ENDBRANCH   2   7
BRANCH   1  18
ATOM     14  C   LIG    1       -1.410  -0.598  -0.373  0.00  0.00    +0.318 A 
ATOM     15  N   LIG    1       -2.550   0.074  -0.386  0.00  0.00    -0.203 NA
ATOM     16  C   LIG    1       -3.715  -0.553  -0.300  0.00  0.00    +0.118 A 
ATOM     17  C   LIG    1       -3.735  -1.930  -0.195  0.00  0.00    +0.050 A 
ATOM     18  C   LIG    1       -2.513  -2.616  -0.184  0.00  0.00    +0.096 A 
ATOM     19  N   LIG    1       -1.380  -1.916  -0.280  0.00  0.00    -0.193 NA
BRANCH  14  21
ATOM     20  C   LIG    1       -0.327   1.506  -0.563  0.00  0.00    +0.280 C 
ATOM     21  O   LIG    1       -0.242   0.083  -0.464  0.00  0.00    -0.466 OA
ENDBRANCH  14  21
ENDBRANCH   1  18
BRANCH   6  22
ATOM     22  C   LIG    1       -4.594  -4.440   1.281  0.00  0.00    +0.089 C 
ATOM     23  C   LIG    1       -4.517  -4.885   2.743  0.00  0.00    +0.027 C 
ATOM     24  C   LIG    1       -4.427  -6.411   2.807  0.00  0.00    +0.033 C 
ATOM     25  C   LIG    1       -5.666  -7.023   2.152  0.00  0.00    +0.115 C 
ATOM     26  C   LIG    1       -5.743  -6.578   0.691  0.00  0.00    +0.033 C 
ATOM     27  C   LIG    1       -5.834  -5.052   0.626  0.00  0.00    +0.027 C 
BRANCH  25  28
ATOM     28  O   LIG    1       -5.582  -8.448   2.213  0.00  0.00    -0.392 OA
ATOM     29  H   LIG    1       -6.336  -8.904   1.815  0.00  0.00    +0.210 HD
ENDBRANCH  25  28
ENDBRANCH   6  22
TORSDOF 5
