REMARK  Name = ZINC00395004
REMARK                            x       y       z     vdW  Elec       q    Type
REMARK                         _______ _______ _______ _____ _____    ______ ____
ROOT
ATOM      1  C   LIG    1        4.117  -0.447   0.115  0.00  0.00    +0.339 C 
ATOM      2  O   LIG    1        4.690   0.325  -0.628  0.00  0.00    -0.245 OA
ENDROOT
BRANCH   1   3
ATOM      3  C   LIG    1        4.853  -1.091   1.217  0.00  0.00    +0.059 A 
ATOM      4  C   LIG    1        4.196  -1.984   2.070  0.00  0.00    +0.017 A 
ATOM      5  C   LIG    1        4.884  -2.582   3.095  0.00  0.00    +0.023 A 
ATOM      6  C   LIG    1        6.234  -2.301   3.287  0.00  0.00    +0.025 A 
ATOM      7  C   LIG    1        6.890  -1.413   2.439  0.00  0.00    +0.023 A 
ATOM      8  C   LIG    1        6.210  -0.815   1.409  0.00  0.00    +0.017 A 
BRANCH   6   9
ATOM      9  N   LIG    1        6.928  -2.909   4.327  0.00  0.00    -0.358 N 
ATOM     10  H   LIG    1        7.868  -2.714   4.461  0.00  0.00    +0.142 HD
ATOM     11  H   LIG    1        6.471  -3.528   4.918  0.00  0.00    +0.142 HD
ENDBRANCH   6   9
ENDBRANCH   1   3
BRANCH   1  12
ATOM     12  O   LIG    1        2.809  -0.713  -0.069  0.00  0.00    -0.463 OA
BRANCH  12  13
ATOM     13  C   LIG    1        2.159  -0.053  -1.157  0.00  0.00    +0.214 C 
BRANCH  13  14
ATOM     14  C   LIG    1        0.690  -0.478  -1.207  0.00  0.00    -0.038 C 
BRANCH  14  16
ATOM     15  C   LIG    1       -0.018   1.465   0.010  0.00  0.00    -0.096 C 
ATOM     16  N   LIG    1        0.002  -0.004   0.002  0.00  0.00    +0.378 N 
ATOM     17  H   LIG    1        0.490  -0.338   0.820  0.00  0.00    -0.082 HD
ATOM     18  C   LIG    1       -1.376  -0.512   0.012  0.00  0.00    -0.096 C 
ENDBRANCH  14  16
ENDBRANCH  13  14
ENDBRANCH  12  13
ENDBRANCH   1  12
TORSDOF 6
