REMARK  Name = ZINC00639294
REMARK                            x       y       z     vdW  Elec       q    Type
REMARK                         _______ _______ _______ _____ _____    ______ ____
ROOT
ATOM      1  C   LIG    1       -0.004   1.398   0.015  0.00  0.00    +0.105 C 
ATOM      2  C   LIG    1        1.163   2.091  -0.023  0.00  0.00    +0.195 C 
ATOM      3  O   LIG    1        1.192   3.432  -0.024  0.00  0.00    -0.441 OA
ATOM      4  C   LIG    1        0.112   4.134   0.401  0.00  0.00    +0.138 A 
ATOM      5  C   LIG    1        0.269   5.462   0.777  0.00  0.00    +0.092 A 
ATOM      6  C   LIG    1       -0.824   6.193   1.213  0.00  0.00    +0.120 A 
ATOM      7  C   LIG    1       -2.075   5.596   1.275  0.00  0.00    +0.046 A 
ATOM      8  C   LIG    1       -2.229   4.276   0.901  0.00  0.00    +0.012 A 
ATOM      9  C   LIG    1       -1.140   3.543   0.464  0.00  0.00    +0.007 A 
ATOM     10  C   LIG    1       -1.330   2.105   0.054  0.00  0.00    +0.094 C 
ENDROOT
BRANCH  10  11
ATOM     11  C   LIG    1       -1.964   2.051  -1.312  0.00  0.00    -0.035 A 
ATOM     12  C   LIG    1       -1.318   2.616  -2.396  0.00  0.00    +0.008 A 
ATOM     13  C   LIG    1       -1.895   2.562  -3.650  0.00  0.00    +0.046 A 
ATOM     14  C   LIG    1       -3.129   1.951  -3.819  0.00  0.00    +0.121 A 
ATOM     15  C   LIG    1       -3.778   1.390  -2.729  0.00  0.00    +0.046 A 
ATOM     16  C   LIG    1       -3.194   1.441  -1.478  0.00  0.00    +0.008 A 
BRANCH  14  17
ATOM     17  O   LIG    1       -3.702   1.903  -5.051  0.00  0.00    -0.487 OA
BRANCH  17  18
ATOM     18  C   LIG    1       -2.977   2.501  -6.127  0.00  0.00    +0.267 C 
BRANCH  18  19
ATOM     19  C   LIG    1       -3.761   2.352  -7.405  0.00  0.00    +0.025 A 
ATOM     20  C   LIG    1       -4.982   1.705  -7.395  0.00  0.00    +0.010 A 
ATOM     21  C   LIG    1       -5.704   1.573  -8.567  0.00  0.00    +0.001 A 
ATOM     22  C   LIG    1       -5.201   2.078  -9.751  0.00  0.00    +0.003 A 
ATOM     23  C   LIG    1       -3.977   2.720  -9.765  0.00  0.00    +0.039 A 
ATOM     24  C   LIG    1       -3.256   2.857  -8.591  0.00  0.00    +0.130 A 
ATOM     25  F   LIG    1       -2.059   3.485  -8.603  0.00  0.00    -0.205 F 
ENDBRANCH  18  19
ENDBRANCH  17  18
ENDBRANCH  14  17
ENDBRANCH  10  11
BRANCH   2  26
ATOM     26  N   LIG    1        2.344   1.400  -0.063  0.00  0.00    -0.329 N 
ATOM     27  H   LIG    1        3.187   1.878  -0.014  0.00  0.00    +0.145 HD
ATOM     28  H   LIG    1        2.339   0.433  -0.141  0.00  0.00    +0.145 HD
ENDBRANCH   2  26
BRANCH   1  29
ATOM     29  C   LIG    1        0.028  -0.004   0.014  0.00  0.00    +0.341 C 
ATOM     30  O   LIG    1       -0.129  -0.618   1.054  0.00  0.00    -0.245 OA
BRANCH  29  32
ATOM     31  C   LIG    1        0.253  -2.100  -1.070  0.00  0.00    +0.280 C 
ATOM     32  O   LIG    1        0.233  -0.673  -1.141  0.00  0.00    -0.465 OA
ENDBRANCH  29  32
ENDBRANCH   1  29
BRANCH   6  33
ATOM     33  O   LIG    1       -0.670   7.492   1.581  0.00  0.00    -0.507 OA
ATOM     34  H   LIG    1       -0.464   7.614   2.518  0.00  0.00    +0.292 HD
ENDBRANCH   6  33
TORSDOF 8
