REMARK  Name = ZINC00402702
REMARK                            x       y       z     vdW  Elec       q    Type
REMARK                         _______ _______ _______ _____ _____    ______ ____
ROOT
ATOM      1  C   LIG    1       -0.018   1.503   0.010  0.00  0.00    +0.047 C 
ATOM      2  C   LIG    1        0.002  -0.004   0.002  0.00  0.00    -0.011 A 
ATOM      3  C   LIG    1        0.006  -0.699  -1.194  0.00  0.00    +0.008 A 
ATOM      4  C   LIG    1        0.025  -2.086  -1.155  0.00  0.00    +0.020 A 
ATOM      5  C   LIG    1        0.039  -2.728   0.068  0.00  0.00    +0.113 A 
ATOM      6  N   LIG    1        0.035  -2.040   1.193  0.00  0.00    -0.240 NA
ATOM      7  C   LIG    1        0.023  -0.715   1.197  0.00  0.00    +0.119 A 
ENDROOT
BRANCH   7   8
ATOM      8  N   LIG    1        0.025  -0.030   2.407  0.00  0.00    -0.343 N 
ATOM      9  H   LIG    1        0.040  -0.522   3.243  0.00  0.00    +0.144 HD
ATOM     10  H   LIG    1        0.012   0.940   2.415  0.00  0.00    +0.144 HD
ENDBRANCH   7   8
TORSDOF 1
