REMARK  Name = ZINC00443775
REMARK                            x       y       z     vdW  Elec       q    Type
REMARK                         _______ _______ _______ _____ _____    ______ ____
ROOT
ATOM      1  C   LIG    1       -4.077  -4.089  -0.008  0.00  0.00    +0.101 C 
ATOM      2  C   LIG    1       -4.793  -4.051  -1.329  0.00  0.00    +0.098 C 
ATOM      3  C   LIG    1       -4.172  -3.565  -2.431  0.00  0.00    +0.198 C 
ATOM      4  O   LIG    1       -2.910  -3.112  -2.380  0.00  0.00    -0.445 OA
ATOM      5  C   LIG    1       -2.383  -2.727  -1.203  0.00  0.00    +0.115 C 
ATOM      6  C   LIG    1       -1.191  -1.798  -1.230  0.00  0.00    +0.086 C 
ATOM      7  C   LIG    1       -1.208  -0.902   0.009  0.00  0.00    +0.070 C 
ATOM      8  C   LIG    1       -1.179  -1.795   1.254  0.00  0.00    +0.091 C 
ATOM      9  C   LIG    1       -2.343  -2.746   1.198  0.00  0.00    +0.164 C 
ATOM     10  O   LIG    1       -2.819  -3.170   2.232  0.00  0.00    -0.292 OA
ATOM     11  C   LIG    1       -2.892  -3.154  -0.033  0.00  0.00    +0.046 C 
ENDROOT
BRANCH   1  15
ATOM     12  C   LIG    1       -2.728  -8.069   0.758  0.00  0.00    +0.000 A 
ATOM     13  C   LIG    1       -3.615  -7.461   1.626  0.00  0.00    +0.000 A 
ATOM     14  C   LIG    1       -4.052  -6.173   1.378  0.00  0.00    +0.004 A 
ATOM     15  C   LIG    1       -3.601  -5.493   0.263  0.00  0.00    -0.035 A 
ATOM     16  C   LIG    1       -2.718  -6.103  -0.609  0.00  0.00    +0.004 A 
ATOM     17  C   LIG    1       -2.277  -7.389  -0.358  0.00  0.00    +0.000 A 
ENDBRANCH   1  15
BRANCH   7  18
ATOM     18  C   LIG    1        0.002  -0.004   0.002  0.00  0.00    +0.109 A 
ATOM     19  C   LIG    1       -0.016   1.341   0.009  0.00  0.00    +0.045 A 
ATOM     20  C   LIG    1        1.331   1.769  -0.001  0.00  0.00    +0.041 A 
ATOM     21  C   LIG    1        2.092   0.660  -0.014  0.00  0.00    +0.195 A 
ATOM     22  O   LIG    1        1.282  -0.411  -0.012  0.00  0.00    -0.468 OA
ENDBRANCH   7  18
BRANCH   3  23
ATOM     23  N   LIG    1       -4.848  -3.536  -3.625  0.00  0.00    -0.328 N 
ATOM     24  H   LIG    1       -5.761  -3.861  -3.674  0.00  0.00    +0.145 HD
ATOM     25  H   LIG    1       -4.414  -3.190  -4.421  0.00  0.00    +0.145 HD
ENDBRANCH   3  23
BRANCH   2  26
ATOM     26  C   LIG    1       -6.139  -4.530  -1.424  0.00  0.00    +0.101 C 
ATOM     27  N   LIG    1       -7.207  -4.911  -1.499  0.00  0.00    -0.191 NA
ENDBRANCH   2  26
TORSDOF 4
