REMARK  Name = ZINC00639297
REMARK                            x       y       z     vdW  Elec       q    Type
REMARK                         _______ _______ _______ _____ _____    ______ ____
ROOT
ATOM      1  C   LIG    1       -7.634  -3.035   1.340  0.00  0.00    +0.105 C 
ATOM      2  C   LIG    1       -7.927  -4.341   1.117  0.00  0.00    +0.195 C 
ATOM      3  O   LIG    1       -7.832  -4.892  -0.103  0.00  0.00    -0.441 OA
ATOM      4  C   LIG    1       -7.827  -4.100  -1.204  0.00  0.00    +0.138 A 
ATOM      5  C   LIG    1       -8.132  -4.653  -2.441  0.00  0.00    +0.092 A 
ATOM      6  C   LIG    1       -8.131  -3.859  -3.575  0.00  0.00    +0.120 A 
ATOM      7  C   LIG    1       -7.824  -2.509  -3.474  0.00  0.00    +0.046 A 
ATOM      8  C   LIG    1       -7.521  -1.960  -2.244  0.00  0.00    +0.012 A 
ATOM      9  C   LIG    1       -7.521  -2.752  -1.109  0.00  0.00    +0.007 A 
ATOM     10  C   LIG    1       -7.186  -2.134   0.223  0.00  0.00    +0.094 C 
ENDROOT
BRANCH  10  11
ATOM     11  C   LIG    1       -5.697  -1.926   0.317  0.00  0.00    -0.035 A 
ATOM     12  C   LIG    1       -5.187  -0.651   0.481  0.00  0.00    +0.008 A 
ATOM     13  C   LIG    1       -3.822  -0.457   0.567  0.00  0.00    +0.046 A 
ATOM     14  C   LIG    1       -2.962  -1.543   0.489  0.00  0.00    +0.121 A 
ATOM     15  C   LIG    1       -3.476  -2.821   0.319  0.00  0.00    +0.046 A 
ATOM     16  C   LIG    1       -4.842  -3.010   0.239  0.00  0.00    +0.008 A 
BRANCH  14  17
ATOM     17  O   LIG    1       -1.619  -1.355   0.574  0.00  0.00    -0.487 OA
BRANCH  17  18
ATOM     18  C   LIG    1       -0.794  -2.519   0.485  0.00  0.00    +0.267 C 
BRANCH  18  19
ATOM     19  C   LIG    1        0.654  -2.118   0.598  0.00  0.00    +0.025 A 
ATOM     20  C   LIG    1        0.992  -0.787   0.760  0.00  0.00    +0.010 A 
ATOM     21  C   LIG    1        2.321  -0.419   0.863  0.00  0.00    +0.001 A 
ATOM     22  C   LIG    1        3.312  -1.381   0.805  0.00  0.00    +0.003 A 
ATOM     23  C   LIG    1        2.976  -2.712   0.643  0.00  0.00    +0.039 A 
ATOM     24  C   LIG    1        1.646  -3.082   0.539  0.00  0.00    +0.130 A 
ATOM     25  F   LIG    1        1.316  -4.382   0.381  0.00  0.00    -0.205 F 
ENDBRANCH  18  19
ENDBRANCH  17  18
ENDBRANCH  14  17
ENDBRANCH  10  11
BRANCH   2  26
ATOM     26  N   LIG    1       -8.331  -5.120   2.168  0.00  0.00    -0.329 N 
ATOM     27  H   LIG    1       -8.000  -6.028   2.254  0.00  0.00    +0.145 HD
ATOM     28  H   LIG    1       -8.947  -4.765   2.827  0.00  0.00    +0.145 HD
ENDBRANCH   2  26
BRANCH   1  29
ATOM     29  C   LIG    1       -7.751  -2.515   2.638  0.00  0.00    +0.341 C 
ATOM     30  O   LIG    1       -7.997  -3.258   3.571  0.00  0.00    -0.245 OA
BRANCH  29  32
ATOM     31  C   LIG    1       -7.725  -0.731   4.198  0.00  0.00    +0.280 C 
ATOM     32  O   LIG    1       -7.592  -1.191   2.852  0.00  0.00    -0.465 OA
ENDBRANCH  29  32
ENDBRANCH   1  29
BRANCH   6  33
ATOM     33  O   LIG    1       -8.430  -4.400  -4.785  0.00  0.00    -0.507 OA
ATOM     34  H   LIG    1       -9.371  -4.372  -5.007  0.00  0.00    +0.292 HD
ENDBRANCH   6  33
TORSDOF 8
