REMARK  Name = ZINC00393798
REMARK                            x       y       z     vdW  Elec       q    Type
REMARK                         _______ _______ _______ _____ _____    ______ ____
ROOT
ATOM      1  C   LIG    1       -0.217   5.298   0.032  0.00  0.00    +0.037 C 
ENDROOT
BRANCH   1   6
ATOM      2  C   LIG    1        1.174   1.794   0.001  0.00  0.00    +0.003 A 
ATOM      3  C   LIG    1       -0.013   1.076   0.008  0.00  0.00    +0.020 A 
ATOM      4  C   LIG    1       -1.214   1.759   0.017  0.00  0.00    +0.111 A 
ATOM      5  N   LIG    1       -1.239   3.078   0.030  0.00  0.00    -0.260 NA
ATOM      6  C   LIG    1       -0.132   3.793   0.024  0.00  0.00    +0.040 A 
ATOM      7  C   LIG    1        1.107   3.179   0.009  0.00  0.00    +0.023 A 
ENDBRANCH   1   6
BRANCH   1   8
ATOM      8  C   LIG    1       -1.083   5.766  -1.139  0.00  0.00    -0.073 C 
BRANCH   8   9
ATOM      9  N   LIG    1       -1.161   7.258  -1.141  0.00  0.00    +0.380 N 
ATOM     10  H   LIG    1       -1.709   7.568  -0.330  0.00  0.00    -0.082 HD
ATOM     11  C   LIG    1       -1.790   7.735  -2.373  0.00  0.00    -0.079 C 
ATOM     12  C   LIG    1       -1.113   9.077  -2.709  0.00  0.00    -0.020 C 
ATOM     13  C   LIG    1       -0.053   9.281  -1.603  0.00  0.00    -0.020 C 
ATOM     14  C   LIG    1        0.188   7.842  -1.083  0.00  0.00    -0.079 C 
ENDBRANCH   8   9
ENDBRANCH   1   8
TORSDOF 3
