REMARK  Name = ZINC00603684
REMARK                            x       y       z     vdW  Elec       q    Type
REMARK                         _______ _______ _______ _____ _____    ______ ____
ROOT
ATOM      1  N   LIG    1       -3.728   1.722   0.232  0.00  0.00    -0.281 N 
ATOM      2  H   LIG    1       -3.639   2.546  -0.273  0.00  0.00    +0.155 HD
ATOM      3  C   LIG    1       -2.726   1.313   1.035  0.00  0.00    +0.248 C 
ATOM      4  O   LIG    1       -2.872   0.331   1.737  0.00  0.00    -0.270 OA
ENDROOT
BRANCH   1  10
ATOM      5  C   LIG    1       -9.600  -0.658  -0.814  0.00  0.00    -0.023 C 
ATOM      6  C   LIG    1       -9.765   0.680  -0.085  0.00  0.00    +0.007 C 
ATOM      7  C   LIG    1       -8.570   1.566  -0.427  0.00  0.00    +0.035 C 
ATOM      8  C   LIG    1       -7.278   0.828  -0.191  0.00  0.00    -0.042 A 
ATOM      9  C   LIG    1       -6.117   1.580  -0.079  0.00  0.00    +0.027 A 
ATOM     10  C   LIG    1       -4.895   0.959   0.126  0.00  0.00    +0.034 A 
ATOM     11  C   LIG    1       -4.837  -0.425   0.230  0.00  0.00    +0.023 A 
ATOM     12  C   LIG    1       -5.993  -1.167   0.127  0.00  0.00    +0.006 A 
ATOM     13  C   LIG    1       -7.218  -0.544  -0.082  0.00  0.00    -0.044 A 
ATOM     14  C   LIG    1       -8.442  -1.418  -0.170  0.00  0.00    +0.037 C 
BRANCH   5  15
ATOM     15  C   LIG    1      -10.886  -1.477  -0.688  0.00  0.00    -0.076 C 
BRANCH  15  17
ATOM     16  C   LIG    1      -11.795  -3.682  -1.107  0.00  0.00    -0.097 C 
ATOM     17  N   LIG    1      -10.741  -2.716  -1.480  0.00  0.00    +0.376 N 
ATOM     18  H   LIG    1       -9.822  -3.131  -1.284  0.00  0.00    -0.083 HD
ATOM     19  C   LIG    1      -10.829  -2.405  -2.923  0.00  0.00    -0.097 C 
ENDBRANCH  15  17
ENDBRANCH   5  15
ENDBRANCH   1  10
BRANCH   3  20
ATOM     20  C   LIG    1       -1.451   2.058   1.064  0.00  0.00    +0.037 A 
ATOM     21  C   LIG    1       -0.412   1.634   1.897  0.00  0.00    +0.013 A 
ATOM     22  C   LIG    1        0.777   2.326   1.918  0.00  0.00    +0.009 A 
ATOM     23  C   LIG    1        0.945   3.453   1.113  0.00  0.00    -0.018 A 
ATOM     24  C   LIG    1       -0.094   3.880   0.284  0.00  0.00    +0.009 A 
ATOM     25  C   LIG    1       -1.284   3.189   0.261  0.00  0.00    +0.013 A 
BRANCH  23  26
ATOM     26  C   LIG    1        2.226   4.197   1.137  0.00  0.00    -0.018 A 
ATOM     27  C   LIG    1        3.264   3.777   1.968  0.00  0.00    +0.011 A 
ATOM     28  C   LIG    1        4.456   4.470   1.984  0.00  0.00    +0.039 A 
ATOM     29  C   LIG    1        4.620   5.589   1.183  0.00  0.00    +0.123 A 
ATOM     30  F   LIG    1        5.788   6.268   1.206  0.00  0.00    -0.205 F 
ATOM     31  C   LIG    1        3.590   6.014   0.359  0.00  0.00    +0.039 A 
ATOM     32  C   LIG    1        2.396   5.324   0.333  0.00  0.00    +0.011 A 
ENDBRANCH  23  26
ENDBRANCH   3  20
TORSDOF 5
