REMARK  Name = ZINC00527204
REMARK                            x       y       z     vdW  Elec       q    Type
REMARK                         _______ _______ _______ _____ _____    ______ ____
ROOT
ATOM      1  C   LIG    1        1.191  -2.563  -4.516  0.00  0.00    +0.142 C 
ATOM      2  C   LIG    1        1.287  -3.975  -4.538  0.00  0.00    +0.027 C 
ATOM      3  C   LIG    1        1.389  -4.744  -3.375  0.00  0.00    +0.007 C 
ATOM      4  C   LIG    1        1.478  -6.101  -3.475  0.00  0.00    +0.000 C 
ATOM      5  C   LIG    1        1.469  -6.731  -4.717  0.00  0.00    +0.000 C 
ATOM      6  C   LIG    1        1.371  -6.009  -5.870  0.00  0.00    +0.006 C 
ATOM      7  C   LIG    1        1.277  -4.616  -5.803  0.00  0.00    +0.018 C 
ATOM      8  C   LIG    1        1.172  -3.798  -6.955  0.00  0.00    +0.103 C 
ATOM      9  N   LIG    1        1.088  -2.488  -6.804  0.00  0.00    -0.248 NA
ATOM     10  H   LIG    1        0.217  -2.210  -7.255  0.00  0.00    +0.141 HD
ATOM     11  N   LIG    1        1.092  -1.910  -5.661  0.00  0.00    -0.239 NA
ATOM     12  H   LIG    1        1.022  -0.943  -5.634  0.00  0.00    +0.142 HD
ENDROOT
BRANCH   1  18
ATOM     13  C   LIG    1        2.514   1.421   0.050  0.00  0.00    +0.109 C 
ATOM     14  C   LIG    1        1.207   1.046  -0.599  0.00  0.00    +0.213 C 
ATOM     15  N   LIG    1        1.203   0.378  -1.769  0.00  0.00    -0.299 N 
ATOM     16  C   LIG    1        2.466   0.004  -2.422  0.00  0.00    +0.123 C 
ATOM     17  C   LIG    1        2.462  -1.510  -2.666  0.00  0.00    +0.105 C 
ATOM     18  N   LIG    1        1.195  -1.878  -3.313  0.00  0.00    -0.283 NA
ATOM     19  C   LIG    1       -0.068  -1.504  -2.661  0.00  0.00    +0.105 C 
ATOM     20  C   LIG    1       -0.064   0.005  -2.414  0.00  0.00    +0.123 C 
ATOM     21  O   LIG    1        0.158   1.344  -0.067  0.00  0.00    -0.276 OA
ENDBRANCH   1  18
BRANCH   8  22
ATOM     22  C   LIG    1        1.157  -4.402  -8.307  0.00  0.00    -0.029 A 
ATOM     23  C   LIG    1        0.376  -5.530  -8.562  0.00  0.00    +0.005 A 
ATOM     24  C   LIG    1        0.365  -6.088  -9.824  0.00  0.00    +0.000 A 
ATOM     25  C   LIG    1        1.127  -5.531 -10.836  0.00  0.00    +0.000 A 
ATOM     26  C   LIG    1        1.904  -4.412 -10.590  0.00  0.00    +0.000 A 
ATOM     27  C   LIG    1        1.919  -3.842  -9.333  0.00  0.00    +0.005 A 
ENDBRANCH   8  22
TORSDOF 2
