REMARK  Name = ZINC00633296
REMARK                            x       y       z     vdW  Elec       q    Type
REMARK                         _______ _______ _______ _____ _____    ______ ____
ROOT
ATOM      1  N   LIG    1        3.582   2.123  -0.021  0.00  0.00    -0.327 N 
ATOM      2  C   LIG    1        3.587   3.591  -0.118  0.00  0.00    +0.120 C 
ATOM      3  C   LIG    1        4.535   4.001  -1.249  0.00  0.00    +0.103 C 
ATOM      4  N   LIG    1        5.852   3.389  -1.026  0.00  0.00    -0.299 NA
ATOM      5  C   LIG    1        5.773   1.923  -1.072  0.00  0.00    +0.103 C 
ATOM      6  C   LIG    1        4.875   1.428   0.073  0.00  0.00    +0.120 C 
ENDROOT
BRANCH   1   9
ATOM      7  C   LIG    1        1.209  -0.683  -0.026  0.00  0.00    +0.003 A 
ATOM      8  C   LIG    1        2.397   0.021  -0.035  0.00  0.00    +0.023 A 
ATOM      9  C   LIG    1        2.381   1.409  -0.013  0.00  0.00    +0.031 A 
ATOM     10  C   LIG    1        1.169   2.087   0.017  0.00  0.00    +0.038 A 
ATOM     11  C   LIG    1       -0.017   1.377   0.026  0.00  0.00    +0.020 A 
ATOM     12 BR   LIG    1       -1.668   2.298   0.067  0.00  0.00    -0.050 Br
ATOM     13  C   LIG    1        0.003  -0.006   0.004  0.00  0.00    +0.015 A 
ENDBRANCH   1   9
BRANCH   4  14
ATOM     14  C   LIG    1        6.837   3.893  -1.992  0.00  0.00    +0.086 C 
BRANCH  14  15
ATOM     15  C   LIG    1        8.237   3.432  -1.581  0.00  0.00    +0.035 C 
BRANCH  15  16
ATOM     16  C   LIG    1        9.263   3.958  -2.586  0.00  0.00    +0.119 C 
BRANCH  16  17
ATOM     17  N   LIG    1       10.604   3.516  -2.192  0.00  0.00    -0.224 N 
ATOM     18  C   LIG    1       11.423   4.211  -1.372  0.00  0.00    +0.244 C 
ATOM     19  C   LIG    1       12.716   3.436  -1.350  0.00  0.00    +0.164 C 
ATOM     20  C   LIG    1       13.147   3.055   0.074  0.00  0.00    +0.033 C 
ATOM     21  C   LIG    1       13.627   1.589  -0.046  0.00  0.00    +0.021 C 
ATOM     22  C   LIG    1       13.391   1.216  -1.531  0.00  0.00    +0.110 C 
ATOM     23  N   LIG    1       12.336   2.148  -1.989  0.00  0.00    -0.274 N 
ATOM     24  O   LIG    1       11.171   5.238  -0.779  0.00  0.00    -0.273 OA
ATOM     25  C   LIG    1       11.171   2.368  -2.596  0.00  0.00    +0.312 C 
ATOM     26  O   LIG    1       10.681   1.620  -3.419  0.00  0.00    -0.252 OA
ENDBRANCH  16  17
ENDBRANCH  15  16
ENDBRANCH  14  15
ENDBRANCH   4  14
TORSDOF 5
