REMARK  Name = ZINC00575916
REMARK                            x       y       z     vdW  Elec       q    Type
REMARK                         _______ _______ _______ _____ _____    ______ ____
ROOT
ATOM      1  S   LIG    1        5.257   0.367  -0.008  0.00  0.00    +0.073 S 
ATOM      2  O   LIG    1        6.132  -0.752  -0.014  0.00  0.00    -0.150 OA
ATOM      3  O   LIG    1        5.412   1.451   0.898  0.00  0.00    -0.150 OA
ENDROOT
BRANCH   1  12
ATOM      4  C   LIG    1        2.188  -3.430  -2.080  0.00  0.00    +0.001 A 
ATOM      5  C   LIG    1        3.477  -2.942  -2.289  0.00  0.00    +0.001 A 
ATOM      6  C   LIG    1        3.966  -1.913  -1.545  0.00  0.00    +0.010 A 
ATOM      7  C   LIG    1        3.161  -1.330  -0.551  0.00  0.00    +0.009 A 
ATOM      8  C   LIG    1        1.851  -1.826  -0.339  0.00  0.00    -0.016 A 
ATOM      9  C   LIG    1        1.046  -1.244   0.655  0.00  0.00    +0.008 A 
ATOM     10  C   LIG    1        1.535  -0.213   1.399  0.00  0.00    +0.003 A 
ATOM     11  C   LIG    1        2.823   0.275   1.190  0.00  0.00    +0.029 A 
ATOM     12  C   LIG    1        3.631  -0.265   0.237  0.00  0.00    +0.116 A 
ATOM     13  C   LIG    1        1.381  -2.891  -1.127  0.00  0.00    +0.008 A 
ENDBRANCH   1  12
BRANCH   1  14
ATOM     14  N   LIG    1        5.306   1.015  -1.532  0.00  0.00    -0.215 N 
ATOM     15  H   LIG    1        5.927   0.663  -2.188  0.00  0.00    +0.174 HD
BRANCH  14  16
ATOM     16  C   LIG    1        4.458   2.059  -1.869  0.00  0.00    +0.062 A 
ATOM     17  C   LIG    1        4.137   3.030  -0.928  0.00  0.00    +0.025 A 
ATOM     18  C   LIG    1        3.294   4.068  -1.266  0.00  0.00    +0.002 A 
ATOM     19  C   LIG    1        2.760   4.153  -2.543  0.00  0.00    +0.001 A 
ATOM     20  C   LIG    1        3.065   3.202  -3.490  0.00  0.00    +0.017 A 
ATOM     21  C   LIG    1        3.924   2.145  -3.166  0.00  0.00    +0.081 A 
BRANCH  21  22
ATOM     22  C   LIG    1        4.259   1.128  -4.174  0.00  0.00    +0.339 C 
ATOM     23  O   LIG    1        3.792   1.207  -5.302  0.00  0.00    -0.245 OA
BRANCH  22  24
ATOM     24  O   LIG    1        5.006   0.203  -3.884  0.00  0.00    -0.477 OA
ATOM     25  H   LIG    1        5.364   0.143  -3.021  0.00  0.00    +0.295 HD
ENDBRANCH  22  24
ENDBRANCH  21  22
ENDBRANCH  14  16
ENDBRANCH   1  14
TORSDOF 5
