REMARK  Name = ZINC00372044
REMARK                            x       y       z     vdW  Elec       q    Type
REMARK                         _______ _______ _______ _____ _____    ______ ____
ROOT
ATOM      1  C   LIG    1       -1.264  -0.763   0.011  0.00  0.00    +0.136 A 
ATOM      2  C   LIG    1       -1.377  -2.121   0.010  0.00  0.00    +0.050 A 
ATOM      3  C   LIG    1       -2.746  -2.421   0.021  0.00  0.00    +0.051 A 
ATOM      4  C   LIG    1       -3.416  -1.217   0.027  0.00  0.00    +0.148 A 
ATOM      5  O   LIG    1       -2.500  -0.228   0.026  0.00  0.00    -0.454 OA
ENDROOT
BRANCH   1  12
ATOM      6  C   LIG    1       -0.017   1.393   0.010  0.00  0.00    +0.013 A 
ATOM      7  C   LIG    1        1.170   2.095   0.002  0.00  0.00    +0.021 A 
ATOM      8  C   LIG    1        2.378   1.419  -0.013  0.00  0.00    +0.041 A 
ATOM      9 CL   LIG    1        3.868   2.311  -0.023  0.00  0.00    -0.084 Cl
ATOM     10  C   LIG    1        2.404   0.035  -0.021  0.00  0.00    +0.021 A 
ATOM     11  C   LIG    1        1.224  -0.680  -0.014  0.00  0.00    +0.013 A 
ATOM     12  C   LIG    1        0.002  -0.004   0.002  0.00  0.00    +0.017 A 
ENDBRANCH   1  12
BRANCH   4  13
ATOM     13  C   LIG    1       -4.870  -1.043   0.039  0.00  0.00    +0.176 C 
ATOM     14  N   LIG    1       -5.382   0.154   0.045  0.00  0.00    -0.185 NA
BRANCH  14  15
ATOM     15  N   LIG    1       -6.773   0.321   0.056  0.00  0.00    -0.218 N 
ATOM     16  H   LIG    1       -7.354  -0.456   0.060  0.00  0.00    +0.176 HD
BRANCH  15  17
ATOM     17  C   LIG    1       -7.303   1.560   0.062  0.00  0.00    +0.147 C 
ATOM     18  S   LIG    1       -9.003   1.764   0.076  0.00  0.00    -0.017 S 
BRANCH  17  19
ATOM     19  N   LIG    1       -6.495   2.639   0.057  0.00  0.00    -0.339 N 
ATOM     20  H   LIG    1       -6.876   3.530   0.061  0.00  0.00    +0.144 HD
ATOM     21  H   LIG    1       -5.532   2.523   0.049  0.00  0.00    +0.144 HD
ENDBRANCH  17  19
ENDBRANCH  15  17
ENDBRANCH  14  15
ENDBRANCH   4  13
TORSDOF 5
