REMARK  Name = ZINC00596951
REMARK                            x       y       z     vdW  Elec       q    Type
REMARK                         _______ _______ _______ _____ _____    ______ ____
ROOT
ATOM      1  C   LIG    1        5.982  -4.726  -0.283  0.00  0.00    +0.123 A 
ATOM      2  C   LIG    1        7.222  -4.123  -0.445  0.00  0.00    +0.046 A 
ATOM      3  C   LIG    1        8.367  -4.895  -0.499  0.00  0.00    +0.005 A 
ATOM      4  C   LIG    1        8.281  -6.270  -0.393  0.00  0.00    +0.023 A 
ATOM      5  C   LIG    1        7.044  -6.879  -0.230  0.00  0.00    +0.035 A 
ATOM      6  C   LIG    1        5.893  -6.105  -0.170  0.00  0.00    +0.069 A 
ENDROOT
BRANCH   5   7
ATOM      7  N   LIG    1        6.957  -8.270  -0.123  0.00  0.00    -0.314 N 
ATOM      8  H   LIG    1        6.098  -8.692   0.034  0.00  0.00    +0.152 HD
BRANCH   7   9
ATOM      9  C   LIG    1        8.101  -9.047  -0.239  0.00  0.00    +0.045 A 
ATOM     10  C   LIG    1        8.398  -9.677  -1.443  0.00  0.00    +0.024 A 
ATOM     11  C   LIG    1        9.536 -10.448  -1.556  0.00  0.00    +0.002 A 
ATOM     12  C   LIG    1       10.391 -10.604  -0.476  0.00  0.00    +0.001 A 
ATOM     13  C   LIG    1       10.115  -9.989   0.725  0.00  0.00    +0.017 A 
ATOM     14  C   LIG    1        8.968  -9.198   0.856  0.00  0.00    +0.080 A 
BRANCH  14  15
ATOM     15  C   LIG    1        8.670  -8.533   2.133  0.00  0.00    +0.339 C 
ATOM     16  O   LIG    1        9.476  -8.584   3.053  0.00  0.00    -0.245 OA
BRANCH  15  17
ATOM     17  O   LIG    1        7.615  -7.929   2.277  0.00  0.00    -0.477 OA
ATOM     18  H   LIG    1        6.998  -7.890   1.573  0.00  0.00    +0.295 HD
ENDBRANCH  15  17
ENDBRANCH  14  15
ENDBRANCH   7   9
ENDBRANCH   5   7
BRANCH   1  19
ATOM     19  O   LIG    1        4.857  -3.966  -0.230  0.00  0.00    -0.486 OA
BRANCH  19  20
ATOM     20  C   LIG    1        5.024  -2.552  -0.353  0.00  0.00    +0.284 C 
BRANCH  20  28
ATOM     21  C   LIG    1       -0.007   1.373  -0.153  0.00  0.00    +0.001 A 
ATOM     22  C   LIG    1        1.171   2.098  -0.324  0.00  0.00    +0.002 A 
ATOM     23  C   LIG    1        2.376   1.471  -0.396  0.00  0.00    +0.028 A 
ATOM     24  C   LIG    1        2.442   0.070  -0.297  0.00  0.00    +0.071 A 
ATOM     25  C   LIG    1        1.243  -0.665  -0.123  0.00  0.00    +0.000 A 
ATOM     26  C   LIG    1        1.310  -2.067  -0.024  0.00  0.00    +0.012 A 
ATOM     27  C   LIG    1        2.538  -2.660  -0.101  0.00  0.00    +0.027 A 
ATOM     28  C   LIG    1        3.678  -1.878  -0.272  0.00  0.00    +0.079 A 
ATOM     29  N   LIG    1        3.612  -0.572  -0.363  0.00  0.00    -0.248 NA
ATOM     30  C   LIG    1        0.016   0.015  -0.053  0.00  0.00    +0.010 A 
ENDBRANCH  20  28
ENDBRANCH  19  20
ENDBRANCH   1  19
TORSDOF 7
