REMARK  Name = ZINC00519099
REMARK                            x       y       z     vdW  Elec       q    Type
REMARK                         _______ _______ _______ _____ _____    ______ ____
ROOT
ATOM      1  C   LIG    1        0.663   1.311  -0.678  0.00  0.00    +0.039 C 
ATOM      2  C   LIG    1        0.584  -0.183  -0.497  0.00  0.00    -0.071 C 
ATOM      3  C   LIG    1        0.762  -0.939  -1.532  0.00  0.00    -0.027 C 
ATOM      4  C   LIG    1        0.692  -2.415  -1.509  0.00  0.00    +0.038 C 
ATOM      5  C   LIG    1        0.651  -2.976  -0.092  0.00  0.00    +0.021 C 
ATOM      6  C   LIG    1       -0.314  -2.127   0.742  0.00  0.00    +0.022 C 
ATOM      7  C   LIG    1        2.035  -2.989   0.542  0.00  0.00    +0.170 C 
ATOM      8  O   LIG    1        2.504  -1.663   0.778  0.00  0.00    -0.371 OA
ATOM      9  C   LIG    1        1.644  -0.875   1.609  0.00  0.00    +0.155 C 
ATOM     10  C   LIG    1        0.297  -0.725   0.880  0.00  0.00    +0.048 C 
ENDROOT
BRANCH   9  11
ATOM     11  C   LIG    1        2.256   0.483   1.836  0.00  0.00    -0.018 A 
ATOM     12  C   LIG    1        3.206   0.968   0.956  0.00  0.00    +0.010 A 
ATOM     13  C   LIG    1        3.764   2.216   1.159  0.00  0.00    +0.046 A 
ATOM     14  C   LIG    1        3.380   2.977   2.253  0.00  0.00    +0.117 A 
ATOM     15  C   LIG    1        2.431   2.485   3.138  0.00  0.00    +0.046 A 
ATOM     16  C   LIG    1        1.871   1.240   2.927  0.00  0.00    +0.010 A 
BRANCH  14  17
ATOM     17  O   LIG    1        3.931   4.202   2.458  0.00  0.00    -0.507 OA
ATOM     18  H   LIG    1        4.732   4.187   3.000  0.00  0.00    +0.292 HD
ENDBRANCH  14  17
ENDBRANCH   9  11
BRANCH   5  19
ATOM     19  C   LIG    1        0.121  -4.410  -0.147  0.00  0.00    +0.165 C 
BRANCH  19  20
ATOM     20  O   LIG    1        1.006  -5.215  -0.929  0.00  0.00    -0.394 OA
ATOM     21  H   LIG    1        0.732  -6.139  -1.007  0.00  0.00    +0.209 HD
ENDBRANCH  19  20
ENDBRANCH   5  19
TORSDOF 4
