REMARK  Name = ZINC00537931
REMARK                            x       y       z     vdW  Elec       q    Type
REMARK                         _______ _______ _______ _____ _____    ______ ____
ROOT
ATOM      1  C   LIG    1        0.776  -1.798  -1.335  0.00  0.00    +0.403 C 
ATOM      2  N   LIG    1        1.395  -2.298  -2.422  0.00  0.00    -0.267 N 
ATOM      3  C   LIG    1        1.964  -1.398  -3.433  0.00  0.00    +0.115 C 
ATOM      4  C   LIG    1        3.460  -1.704  -3.582  0.00  0.00    +0.050 C 
ATOM      5  C   LIG    1        3.627  -3.198  -3.757  0.00  0.00    -0.057 C 
ATOM      6  C   LIG    1        2.993  -4.117  -2.736  0.00  0.00    +0.050 C 
ATOM      7  C   LIG    1        4.319  -3.694  -4.789  0.00  0.00    +0.007 C 
ATOM      8  C   LIG    1        4.458  -5.161  -4.933  0.00  0.00    -0.013 A 
ATOM      9  C   LIG    1        5.102  -5.925  -3.964  0.00  0.00    +0.010 A 
ATOM     10  C   LIG    1        5.196  -7.293  -4.143  0.00  0.00    +0.020 A 
ATOM     11  C   LIG    1        4.653  -7.881  -5.273  0.00  0.00    +0.041 A 
ATOM     12 CL   LIG    1        4.772  -9.600  -5.489  0.00  0.00    -0.084 Cl
ATOM     13  C   LIG    1        4.017  -7.112  -6.232  0.00  0.00    +0.024 A 
ATOM     14  C   LIG    1        3.924  -5.740  -6.058  0.00  0.00    -0.038 A 
ATOM     15  C   LIG    1        3.255  -4.895  -7.097  0.00  0.00    +0.040 C 
ATOM     16  C   LIG    1        4.221  -4.063  -7.897  0.00  0.00    +0.042 C 
ATOM     17  C   LIG    1        4.899  -2.959  -7.130  0.00  0.00    -0.021 A 
ATOM     18  C   LIG    1        5.564  -2.025  -7.936  0.00  0.00    +0.007 A 
ATOM     19  C   LIG    1        6.186  -0.944  -7.365  0.00  0.00    +0.020 A 
ATOM     20  C   LIG    1        6.152  -0.799  -5.990  0.00  0.00    +0.111 A 
ATOM     21  N   LIG    1        5.538  -1.692  -5.251  0.00  0.00    -0.255 NA
ATOM     22  C   LIG    1        4.926  -2.765  -5.768  0.00  0.00    +0.075 A 
ATOM     23  C   LIG    1        1.514  -3.751  -2.606  0.00  0.00    +0.115 C 
ATOM     24  O   LIG    1        0.312  -2.549  -0.500  0.00  0.00    -0.226 OA
ENDROOT
BRANCH   1  25
ATOM     25  O   LIG    1        0.671  -0.465  -1.174  0.00  0.00    -0.451 OA
BRANCH  25  27
ATOM     26  C   LIG    1       -0.019   1.526   0.010  0.00  0.00    +0.048 C 
ATOM     27  C   LIG    1        0.002  -0.004   0.002  0.00  0.00    +0.230 C 
ENDBRANCH  25  27
ENDBRANCH   1  25
TORSDOF 2
