REMARK  Name = ZINC00405263
REMARK                            x       y       z     vdW  Elec       q    Type
REMARK                         _______ _______ _______ _____ _____    ______ ____
ROOT
ATOM      1  C   LIG    1       -2.514   0.978   0.019  0.00  0.00    +0.128 C 
ENDROOT
BRANCH   1   2
ATOM      2  C   LIG    1       -1.220   1.750   0.017  0.00  0.00    -0.019 A 
ATOM      3  C   LIG    1       -0.013   1.076   0.008  0.00  0.00    +0.007 A 
ATOM      4  C   LIG    1        1.175   1.783   0.000  0.00  0.00    +0.022 A 
ATOM      5  C   LIG    1        1.157   3.166   0.008  0.00  0.00    +0.059 A 
ATOM      6 CL   LIG    1        2.648   4.054  -0.001  0.00  0.00    -0.082 Cl
ATOM      7  C   LIG    1       -0.052   3.841   0.022  0.00  0.00    +0.060 A 
ATOM      8 CL   LIG    1       -0.076   5.577   0.031  0.00  0.00    -0.082 Cl
ATOM      9  C   LIG    1       -1.240   3.132   0.030  0.00  0.00    +0.027 A 
ENDBRANCH   1   2
BRANCH   1  10
ATOM     10  O   LIG    1       -3.456   1.625  -0.839  0.00  0.00    -0.389 OA
ATOM     11  H   LIG    1       -3.664   2.533  -0.580  0.00  0.00    +0.210 HD
ENDBRANCH   1  10
BRANCH   1  12
ATOM     12  C   LIG    1       -3.073   0.924   1.442  0.00  0.00    -0.046 C 
BRANCH  12  13
ATOM     13  N   LIG    1       -4.274   0.068   1.457  0.00  0.00    +0.382 N 
ATOM     14  H   LIG    1       -4.019  -0.877   1.147  0.00  0.00    -0.085 HD
ATOM     15  H   LIG    1       -4.978   0.459   0.821  0.00  0.00    -0.085 HD
BRANCH  13  17
ATOM     16  C   LIG    1       -6.328  -0.329   2.731  0.00  0.00    -0.014 C 
ATOM     17  C   LIG    1       -4.836  -0.003   2.820  0.00  0.00    -0.078 C 
ATOM     18  C   LIG    1       -4.120  -1.099   3.611  0.00  0.00    -0.014 C 
ENDBRANCH  13  17
ENDBRANCH  12  13
ENDBRANCH   1  12
TORSDOF 5
