REMARK  Name = ZINC00538278
REMARK                            x       y       z     vdW  Elec       q    Type
REMARK                         _______ _______ _______ _____ _____    ______ ____
ROOT
ATOM      1  C   LIG    1       -0.016   1.362   0.009  0.00  0.00    +0.001 A 
ATOM      2  C   LIG    1        1.169   2.083   0.002  0.00  0.00    +0.002 A 
ATOM      3  C   LIG    1        2.385   1.436  -0.013  0.00  0.00    +0.026 A 
ATOM      4  C   LIG    1        2.428   0.045  -0.021  0.00  0.00    +0.050 A 
ATOM      5  C   LIG    1        1.223  -0.683  -0.013  0.00  0.00    +0.003 A 
ATOM      6  C   LIG    1        1.607  -2.090  -0.023  0.00  0.00    -0.017 A 
ATOM      7  C   LIG    1        2.953  -2.139  -0.036  0.00  0.00    +0.023 A 
ATOM      8  C   LIG    1        3.745  -3.427  -0.051  0.00  0.00    +0.055 C 
ATOM      9  C   LIG    1        2.810  -4.568  -0.469  0.00  0.00    +0.027 C 
ATOM     10  C   LIG    1        1.537  -4.523   0.380  0.00  0.00    +0.081 C 
ATOM     11  C   LIG    1        0.705  -3.297  -0.017  0.00  0.00    +0.058 C 
ATOM     12  N   LIG    1        3.458  -0.870  -0.036  0.00  0.00    -0.343 N 
ATOM     13  C   LIG    1        0.002  -0.004   0.002  0.00  0.00    +0.010 A 
ENDROOT
BRANCH  10  14
ATOM     14  N   LIG    1        0.754  -5.740   0.152  0.00  0.00    -0.187 NA
ATOM     15  H   LIG    1        0.141  -5.789  -0.598  0.00  0.00    +0.148 HD
BRANCH  14  16
ATOM     16  S   LIG    1        0.916  -7.033   1.174  0.00  0.00    +0.059 S 
ATOM     17  O   LIG    1        2.311  -7.266   1.316  0.00  0.00    -0.153 OA
ATOM     18  O   LIG    1        0.019  -8.033   0.711  0.00  0.00    -0.153 OA
BRANCH  16  19
ATOM     19  C   LIG    1        0.329  -6.523   2.755  0.00  0.00    +0.105 A 
ATOM     20  C   LIG    1        1.199  -5.949   3.664  0.00  0.00    +0.031 A 
ATOM     21  C   LIG    1        0.739  -5.549   4.904  0.00  0.00    +0.040 A 
ATOM     22  C   LIG    1       -0.594  -5.722   5.236  0.00  0.00    +0.124 A 
ATOM     23  F   LIG    1       -1.044  -5.331   6.449  0.00  0.00    -0.205 F 
ATOM     24  C   LIG    1       -1.464  -6.296   4.326  0.00  0.00    +0.040 A 
ATOM     25  C   LIG    1       -1.003  -6.692   3.084  0.00  0.00    +0.031 A 
ENDBRANCH  16  19
ENDBRANCH  14  16
ENDBRANCH  10  14
BRANCH  12  26
ATOM     26  C   LIG    1        4.883  -0.532  -0.050  0.00  0.00    +0.133 C 
BRANCH  26  27
ATOM     27  C   LIG    1        5.395  -0.421   1.388  0.00  0.00    +0.142 C 
BRANCH  27  28
ATOM     28  C   LIG    1        6.861  -0.073   1.374  0.00  0.00    +0.306 C 
ATOM     29  O   LIG    1        7.443   0.073   0.313  0.00  0.00    -0.251 OA
BRANCH  28  30
ATOM     30  O   LIG    1        7.466   0.063   2.424  0.00  0.00    -0.481 OA
ATOM     31  H   LIG    1        7.019  -0.049   3.240  0.00  0.00    +0.295 HD
ENDBRANCH  28  30
ENDBRANCH  27  28
ENDBRANCH  26  27
ENDBRANCH  12  26
TORSDOF 7
