REMARK  Name = ZINC00451523
REMARK                            x       y       z     vdW  Elec       q    Type
REMARK                         _______ _______ _______ _____ _____    ______ ____
ROOT
ATOM      1  N   LIG    1       -0.390   1.163  -4.938  0.00  0.00    -0.285 N 
ATOM      2  H   LIG    1        0.524   0.560  -5.041  0.00  0.00    +0.155 HD
ATOM      3  C   LIG    1       -0.751   1.638  -3.729  0.00  0.00    +0.217 C 
ATOM      4  O   LIG    1       -1.705   2.381  -3.630  0.00  0.00    -0.275 OA
ENDROOT
BRANCH   1   8
ATOM      5  C   LIG    1       -2.739   1.977  -8.286  0.00  0.00    +0.120 A 
ATOM      6  C   LIG    1       -1.362   1.866  -8.415  0.00  0.00    +0.047 A 
ATOM      7  C   LIG    1       -0.584   1.597  -7.307  0.00  0.00    +0.027 A 
ATOM      8  C   LIG    1       -1.179   1.437  -6.063  0.00  0.00    +0.034 A 
ATOM      9  C   LIG    1       -2.558   1.543  -5.935  0.00  0.00    +0.027 A 
ATOM     10  C   LIG    1       -3.335   1.818  -7.043  0.00  0.00    +0.047 A 
BRANCH   5  12
ATOM     11  C   LIG    1       -4.915   2.344  -9.171  0.00  0.00    +0.277 C 
ATOM     12  O   LIG    1       -3.505   2.243  -9.377  0.00  0.00    -0.495 OA
ENDBRANCH   5  12
ENDBRANCH   1   8
BRANCH   3  13
ATOM     13  C   LIG    1        0.029   1.246  -2.501  0.00  0.00    +0.099 C 
BRANCH  13  14
ATOM     14  C   LIG    1       -0.584   1.918  -1.271  0.00  0.00    -0.002 C 
ATOM     15  C   LIG    1        0.129   1.423  -0.011  0.00  0.00    +0.004 C 
ATOM     16  C   LIG    1       -0.485   2.094   1.219  0.00  0.00    +0.000 C 
ATOM     17  C   LIG    1       -0.325   3.612   1.105  0.00  0.00    +0.000 C 
ATOM     18  C   LIG    1       -1.039   4.106  -0.155  0.00  0.00    +0.000 C 
ATOM     19  C   LIG    1       -0.425   3.435  -1.385  0.00  0.00    +0.004 C 
ENDBRANCH  13  14
ENDBRANCH   3  13
TORSDOF 4
