REMARK  Name = ZINC00385637
REMARK                            x       y       z     vdW  Elec       q    Type
REMARK                         _______ _______ _______ _____ _____    ______ ____
ROOT
ATOM      1  N   LIG    1        1.809   0.268  -3.320  0.00  0.00    -0.309 N 
ATOM      2  H   LIG    1        2.778   0.215  -3.329  0.00  0.00    +0.149 HD
ATOM      3  C   LIG    1        1.106  -0.075  -4.417  0.00  0.00    +0.246 C 
ATOM      4  O   LIG    1       -0.109  -0.009  -4.405  0.00  0.00    -0.270 OA
ENDROOT
BRANCH   1  10
ATOM      5  C   LIG    1       -0.878   2.019   1.049  0.00  0.00    -0.095 C 
ATOM      6  N   LIG    1       -0.044   1.475  -0.052  0.00  0.00    +0.382 N 
ATOM      7  H   LIG    1       -0.470   1.751  -0.944  0.00  0.00    -0.081 HD
ATOM      8  C   LIG    1        1.327   2.034   0.000  0.00  0.00    -0.067 C 
ATOM      9  C   LIG    1        2.046   1.608  -1.285  0.00  0.00    +0.007 C 
ATOM     10  C   LIG    1        1.112   0.723  -2.114  0.00  0.00    +0.070 C 
ATOM     11  C   LIG    1        0.689  -0.489  -1.280  0.00  0.00    +0.007 C 
ATOM     12  C   LIG    1        2.129   1.554   1.210  0.00  0.00    -0.015 C 
ATOM     13  C   LIG    1        2.183   0.026   1.226  0.00  0.00    -0.003 C 
ATOM     14  C   LIG    1        0.760  -0.538   1.217  0.00  0.00    -0.015 C 
ATOM     15  C   LIG    1        0.002  -0.004   0.002  0.00  0.00    -0.067 C 
ENDBRANCH   1  10
BRANCH   3  16
ATOM     16  C   LIG    1        1.808  -0.532  -5.630  0.00  0.00    +0.065 A 
ATOM     17  C   LIG    1        3.198  -0.611  -5.649  0.00  0.00    +0.035 A 
ATOM     18  C   LIG    1        3.858  -1.040  -6.786  0.00  0.00    +0.044 A 
ATOM     19 CL   LIG    1        5.592  -1.132  -6.791  0.00  0.00    -0.083 Cl
ATOM     20  C   LIG    1        3.151  -1.396  -7.919  0.00  0.00    +0.047 A 
ATOM     21  C   LIG    1        1.765  -1.326  -7.926  0.00  0.00    +0.068 A 
ATOM     22  N   LIG    1        0.795  -1.603  -8.870  0.00  0.00    -0.344 N 
ATOM     23  H   LIG    1        0.950  -1.923  -9.805  0.00  0.00    +0.167 HD
ATOM     24  C   LIG    1       -0.409  -1.358  -8.290  0.00  0.00    +0.197 A 
ATOM     25  N   LIG    1       -0.239  -0.939  -7.069  0.00  0.00    -0.235 NA
ATOM     26  C   LIG    1        1.076  -0.899  -6.779  0.00  0.00    +0.101 A 
ENDBRANCH   3  16
TORSDOF 2
