REMARK  Name = ZINC00527831
REMARK                            x       y       z     vdW  Elec       q    Type
REMARK                         _______ _______ _______ _____ _____    ______ ____
ROOT
ATOM      1  C   LIG    1        5.048   5.342  -0.018  0.00  0.00    -0.043 A 
ATOM      2  C   LIG    1        3.879   6.080  -0.002  0.00  0.00    +0.007 A 
ATOM      3  C   LIG    1        2.656   5.439   0.006  0.00  0.00    +0.046 A 
ATOM      4  C   LIG    1        2.601   4.053  -0.001  0.00  0.00    +0.121 A 
ATOM      5  C   LIG    1        3.775   3.314  -0.011  0.00  0.00    +0.046 A 
ATOM      6  C   LIG    1        4.996   3.960  -0.025  0.00  0.00    +0.007 A 
ENDROOT
BRANCH   1   7
ATOM      7  C   LIG    1        6.381   6.044  -0.027  0.00  0.00    +0.070 C 
BRANCH   7  11
ATOM      8  C   LIG    1        7.680   6.686   3.992  0.00  0.00    +0.000 A 
ATOM      9  C   LIG    1        8.028   5.524   3.331  0.00  0.00    +0.000 A 
ATOM     10  C   LIG    1        7.607   5.316   2.030  0.00  0.00    +0.004 A 
ATOM     11  C   LIG    1        6.839   6.271   1.391  0.00  0.00    -0.043 A 
ATOM     12  C   LIG    1        6.496   7.436   2.050  0.00  0.00    +0.004 A 
ATOM     13  C   LIG    1        6.912   7.642   3.353  0.00  0.00    +0.000 A 
ENDBRANCH   7  11
ENDBRANCH   1   7
BRANCH   4  14
ATOM     14  O   LIG    1        1.398   3.419   0.007  0.00  0.00    -0.490 OA
BRANCH  14  15
ATOM     15  C   LIG    1        1.418   1.990  -0.001  0.00  0.00    +0.250 C 
BRANCH  15  16
ATOM     16  C   LIG    1       -0.018   1.461   0.010  0.00  0.00    +0.164 C 
BRANCH  16  17
ATOM     17  N   LIG    1        0.002  -0.004   0.002  0.00  0.00    -0.327 N 
ATOM     18  C   LIG    1       -0.099  -0.806  -1.092  0.00  0.00    +0.200 A 
ATOM     19  N   LIG    1       -0.042  -2.056  -0.738  0.00  0.00    -0.236 NA
ATOM     20  C   LIG    1        0.090  -2.143   0.611  0.00  0.00    +0.089 A 
ATOM     21  C   LIG    1        0.192  -3.213   1.503  0.00  0.00    +0.030 A 
ATOM     22  C   LIG    1        0.318  -2.974   2.842  0.00  0.00    +0.002 A 
ATOM     23  C   LIG    1        0.348  -1.676   3.329  0.00  0.00    +0.002 A 
ATOM     24  C   LIG    1        0.250  -0.603   2.468  0.00  0.00    +0.028 A 
ATOM     25  C   LIG    1        0.121  -0.827   1.104  0.00  0.00    +0.069 A 
ENDBRANCH  16  17
ENDBRANCH  15  16
ENDBRANCH  14  15
ENDBRANCH   4  14
TORSDOF 6
