REMARK  Name = ZINC00602525
REMARK                            x       y       z     vdW  Elec       q    Type
REMARK                         _______ _______ _______ _____ _____    ______ ____
ROOT
ATOM      1  C   LIG    1        5.377   3.217  -1.107  0.00  0.00    +0.253 C 
ATOM      2  N   LIG    1        6.072   3.644  -2.180  0.00  0.00    -0.296 N 
ATOM      3  C   LIG    1        5.598   3.369  -3.545  0.00  0.00    +0.127 C 
ATOM      4  C   LIG    1        5.580   4.693  -4.325  0.00  0.00    +0.127 C 
ATOM      5  N   LIG    1        6.906   5.321  -4.244  0.00  0.00    -0.297 N 
ATOM      6  C   LIG    1        7.245   5.671  -2.858  0.00  0.00    +0.127 C 
ATOM      7  C   LIG    1        7.328   4.393  -2.017  0.00  0.00    +0.127 C 
ATOM      8  O   LIG    1        5.785   3.449   0.011  0.00  0.00    -0.272 OA
ENDROOT
BRANCH   5   9
ATOM      9  C   LIG    1        6.980   6.430  -5.068  0.00  0.00    +0.220 A 
ATOM     10  N   LIG    1        6.709   6.284  -6.351  0.00  0.00    -0.214 NA
ATOM     11  C   LIG    1        6.765   7.337  -7.181  0.00  0.00    +0.082 A 
ATOM     12  C   LIG    1        6.478   7.216  -8.546  0.00  0.00    +0.078 A 
ATOM     13  C   LIG    1        6.555   8.326  -9.358  0.00  0.00    +0.164 A 
ATOM     14  C   LIG    1        6.918   9.573  -8.831  0.00  0.00    +0.162 A 
ATOM     15  C   LIG    1        7.203   9.714  -7.503  0.00  0.00    +0.062 A 
ATOM     16  C   LIG    1        7.131   8.601  -6.656  0.00  0.00    +0.044 A 
ATOM     17  C   LIG    1        7.417   8.696  -5.273  0.00  0.00    +0.129 A 
ATOM     18  N   LIG    1        7.328   7.598  -4.535  0.00  0.00    -0.199 NA
BRANCH  17  19
ATOM     19  N   LIG    1        7.779   9.900  -4.706  0.00  0.00    -0.343 N 
ATOM     20  H   LIG    1        7.840  10.696  -5.257  0.00  0.00    +0.144 HD
ATOM     21  H   LIG    1        7.972   9.951  -3.757  0.00  0.00    +0.144 HD
ENDBRANCH  17  19
BRANCH  13  22
ATOM     22  O   LIG    1        6.277   8.211 -10.682  0.00  0.00    -0.491 OA
ATOM     23  C   LIG    1        5.913   6.914 -11.159  0.00  0.00    +0.277 C 
ENDBRANCH  13  22
BRANCH  14  24
ATOM     24  O   LIG    1        6.988  10.655  -9.652  0.00  0.00    -0.491 OA
ATOM     25  C   LIG    1        7.364  11.899  -9.057  0.00  0.00    +0.277 C 
ENDBRANCH  14  24
ENDBRANCH   5   9
BRANCH   1  26
ATOM     26  C   LIG    1        4.093   2.452  -1.297  0.00  0.00    +0.325 C 
BRANCH  26  27
ATOM     27  O   LIG    1        3.548   2.113  -0.020  0.00  0.00    -0.479 OA
BRANCH  27  33
ATOM     28  C   LIG    1        1.170   2.089   0.002  0.00  0.00    +0.001 A 
ATOM     29  C   LIG    1       -0.017   1.378   0.010  0.00  0.00    +0.008 A 
ATOM     30  C   LIG    1        0.002  -0.004   0.002  0.00  0.00    +0.004 A 
ATOM     31  C   LIG    1        1.207  -0.682  -0.013  0.00  0.00    +0.049 A 
ATOM     32  C   LIG    1        2.399   0.024  -0.021  0.00  0.00    +0.162 A 
ATOM     33  C   LIG    1        2.380   1.415  -0.013  0.00  0.00    +0.166 A 
BRANCH  28  35
ATOM     34  C   LIG    1        0.404   4.100  -1.230  0.00  0.00    +0.012 C 
ATOM     35  C   LIG    1        1.145   3.595   0.010  0.00  0.00    +0.017 C 
ATOM     36  C   LIG    1        0.428   4.087   1.268  0.00  0.00    +0.012 C 
ENDBRANCH  28  35
BRANCH  32  37
ATOM     37  O   LIG    1        3.585  -0.642  -0.035  0.00  0.00    -0.491 OA
ATOM     38  C   LIG    1        3.528  -2.070  -0.042  0.00  0.00    +0.277 C 
ENDBRANCH  32  37
ENDBRANCH  27  33
ENDBRANCH  26  27
ENDBRANCH   1  26
TORSDOF 9
