REMARK  Name = ZINC00673286
REMARK                            x       y       z     vdW  Elec       q    Type
REMARK                         _______ _______ _______ _____ _____    ______ ____
ROOT
ATOM      1  C   LIG    1        0.724   8.895  -1.583  0.00  0.00    +0.247 C 
ATOM      2  N   LIG    1        0.917   7.573  -1.406  0.00  0.00    -0.295 N 
ATOM      3  C   LIG    1        1.851   7.077  -0.384  0.00  0.00    +0.127 C 
ATOM      4  C   LIG    1        2.806   6.076  -1.043  0.00  0.00    +0.124 C 
ATOM      5  N   LIG    1        2.026   5.037  -1.728  0.00  0.00    -0.327 N 
ATOM      6  C   LIG    1        1.218   5.607  -2.815  0.00  0.00    +0.124 C 
ATOM      7  C   LIG    1        0.198   6.589  -2.228  0.00  0.00    +0.127 C 
ATOM      8  O   LIG    1        1.273   9.694  -0.849  0.00  0.00    -0.270 OA
ENDROOT
BRANCH   1  13
ATOM      9  C   LIG    1       -2.699  10.761  -5.816  0.00  0.00    +0.044 C 
ATOM     10  C   LIG    1       -1.802  10.272  -4.708  0.00  0.00    -0.047 A 
ATOM     11  C   LIG    1       -2.249   9.287  -3.845  0.00  0.00    +0.004 A 
ATOM     12  C   LIG    1       -1.431   8.831  -2.832  0.00  0.00    +0.013 A 
ATOM     13  C   LIG    1       -0.155   9.375  -2.671  0.00  0.00    +0.037 A 
ATOM     14  C   LIG    1        0.288  10.369  -3.544  0.00  0.00    +0.016 A 
ATOM     15  C   LIG    1       -0.537  10.811  -4.557  0.00  0.00    -0.047 A 
ATOM     16  C   LIG    1       -0.060  11.884  -5.502  0.00  0.00    +0.044 C 
ENDBRANCH   1  13
BRANCH   5  17
ATOM     17  C   LIG    1        2.855   4.018  -2.201  0.00  0.00    +0.030 A 
ATOM     18  C   LIG    1        4.227   4.085  -1.994  0.00  0.00    +0.023 A 
ATOM     19  C   LIG    1        5.045   3.076  -2.464  0.00  0.00    +0.002 A 
ATOM     20  C   LIG    1        4.499   2.000  -3.140  0.00  0.00    +0.012 A 
ATOM     21  C   LIG    1        3.134   1.934  -3.354  0.00  0.00    +0.057 A 
ATOM     22  C   LIG    1        2.310   2.937  -2.881  0.00  0.00    +0.035 A 
BRANCH  21  23
ATOM     23  C   LIG    1        2.545   0.763  -4.098  0.00  0.00    +0.417 C 
ATOM     24  F   LIG    1        1.887   1.222  -5.244  0.00  0.00    -0.166 F 
ATOM     25  F   LIG    1        1.633   0.097  -3.272  0.00  0.00    -0.166 F 
ATOM     26  F   LIG    1        3.567  -0.117  -4.468  0.00  0.00    -0.166 F 
ENDBRANCH  21  23
ENDBRANCH   5  17
TORSDOF 3
