REMARK  Name = ZINC00608233
REMARK                            x       y       z     vdW  Elec       q    Type
REMARK                         _______ _______ _______ _____ _____    ______ ____
ROOT
ATOM      1  C   LIG    1        0.626  -0.619   1.042  0.00  0.00    +0.147 C 
ATOM      2  C   LIG    1        1.203   0.152   2.053  0.00  0.00    +0.034 C 
ATOM      3  C   LIG    1        1.840  -0.434   3.105  0.00  0.00    +0.006 C 
ATOM      4  C   LIG    1        1.923  -1.832   3.179  0.00  0.00    -0.002 C 
ATOM      5  C   LIG    1        2.589  -2.487   4.227  0.00  0.00    +0.027 C 
ATOM      6  C   LIG    1        2.631  -3.870   4.232  0.00  0.00    +0.087 C 
ATOM      7  N   LIG    1        2.006  -4.593   3.295  0.00  0.00    -0.295 NA
ATOM      8  C   LIG    1        1.947  -6.055   3.400  0.00  0.00    +0.089 C 
ATOM      9  C   LIG    1        3.267  -6.626   3.910  0.00  0.00    +0.051 C 
ATOM     10  C   LIG    1        3.672  -5.916   5.176  0.00  0.00    -0.038 A 
ATOM     11  C   LIG    1        4.339  -6.585   6.178  0.00  0.00    +0.053 A 
ATOM     12  C   LIG    1        4.714  -5.908   7.331  0.00  0.00    +0.162 A 
ATOM     13  C   LIG    1        4.418  -4.555   7.476  0.00  0.00    +0.162 A 
ATOM     14  C   LIG    1        3.744  -3.881   6.472  0.00  0.00    +0.054 A 
ATOM     15  C   LIG    1        1.395  -4.024   2.277  0.00  0.00    +0.091 C 
ATOM     16  C   LIG    1        3.365  -4.564   5.320  0.00  0.00    -0.023 A 
ATOM     17  C   LIG    1        1.326  -2.629   2.166  0.00  0.00    +0.038 C 
ATOM     18  C   LIG    1        0.677  -1.999   1.089  0.00  0.00    +0.151 C 
ENDROOT
BRANCH   1  20
ATOM     19  C   LIG    1       -0.017   1.425   0.010  0.00  0.00    +0.194 C 
ATOM     20  O   LIG    1        0.002  -0.004   0.002  0.00  0.00    -0.377 OA
ENDBRANCH   1  20
BRANCH  12  21
ATOM     21  O   LIG    1        5.372  -6.568   8.321  0.00  0.00    -0.491 OA
ATOM     22  C   LIG    1        5.643  -7.954   8.107  0.00  0.00    +0.277 C 
ENDBRANCH  12  21
BRANCH  13  23
ATOM     23  O   LIG    1        4.792  -3.895   8.605  0.00  0.00    -0.491 OA
ATOM     24  C   LIG    1        4.456  -2.508   8.687  0.00  0.00    +0.277 C 
ENDBRANCH  13  23
BRANCH  18  25
ATOM     25  O   LIG    1        0.110  -2.740   0.101  0.00  0.00    -0.377 OA
ATOM     26  C   LIG    1        0.936  -3.075  -1.015  0.00  0.00    +0.194 C 
ENDBRANCH  18  25
TORSDOF 4
