REMARK  Name = ZINC00517261
REMARK                            x       y       z     vdW  Elec       q    Type
REMARK                         _______ _______ _______ _____ _____    ______ ____
ROOT
ATOM      1  C   LIG    1        2.395   0.347  -4.217  0.00  0.00    +0.181 A 
ATOM      2  C   LIG    1        3.078  -0.285  -5.213  0.00  0.00    +0.208 A 
ATOM      3  C   LIG    1        3.664   0.483  -6.253  0.00  0.00    +0.238 A 
ATOM      4  C   LIG    1        3.497   1.944  -6.192  0.00  0.00    +0.109 A 
ATOM      5  C   LIG    1        4.042   2.779  -7.177  0.00  0.00    +0.135 A 
ATOM      6  C   LIG    1        3.863   4.146  -7.085  0.00  0.00    +0.091 A 
ATOM      7  C   LIG    1        3.147   4.688  -6.023  0.00  0.00    +0.124 A 
ATOM      8  C   LIG    1        2.605   3.868  -5.045  0.00  0.00    +0.092 A 
ATOM      9  C   LIG    1        2.773   2.494  -5.120  0.00  0.00    +0.147 A 
ATOM     10  O   LIG    1        4.282  -0.048  -7.161  0.00  0.00    -0.283 OA
ATOM     11  O   LIG    1        2.247   1.682  -4.179  0.00  0.00    -0.451 OA
ENDROOT
BRANCH   1  14
ATOM     12  C   LIG    1        1.405  -0.870  -0.805  0.00  0.00    +0.162 A 
ATOM     13  C   LIG    1        1.973  -0.105  -1.806  0.00  0.00    +0.061 A 
ATOM     14  C   LIG    1        1.791  -0.465  -3.145  0.00  0.00    +0.025 A 
ATOM     15  C   LIG    1        1.035  -1.597  -3.464  0.00  0.00    +0.015 A 
ATOM     16  C   LIG    1        0.471  -2.354  -2.460  0.00  0.00    +0.050 A 
ATOM     17  C   LIG    1        0.657  -2.000  -1.131  0.00  0.00    +0.158 A 
BRANCH  12  19
ATOM     18  C   LIG    1        2.359   0.647   0.759  0.00  0.00    +0.277 C 
ATOM     19  O   LIG    1        1.581  -0.523   0.498  0.00  0.00    -0.491 OA
ENDBRANCH  12  19
BRANCH  17  20
ATOM     20  O   LIG    1        0.103  -2.753  -0.145  0.00  0.00    -0.503 OA
ATOM     21  H   LIG    1       -0.789  -2.477   0.107  0.00  0.00    +0.292 HD
ENDBRANCH  17  20
ENDBRANCH   1  14
BRANCH   2  22
ATOM     22  O   LIG    1        3.196  -1.640  -5.211  0.00  0.00    -0.501 OA
ATOM     23  H   LIG    1        3.698  -1.992  -5.958  0.00  0.00    +0.292 HD
ENDBRANCH   2  22
BRANCH   5  24
ATOM     24  O   LIG    1        4.741   2.248  -8.213  0.00  0.00    -0.506 OA
ATOM     25  H   LIG    1        4.198   2.028  -8.982  0.00  0.00    +0.292 HD
ENDBRANCH   5  24
BRANCH   7  26
ATOM     26  O   LIG    1        2.977   6.032  -5.943  0.00  0.00    -0.507 OA
ATOM     27  H   LIG    1        2.182   6.355  -6.389  0.00  0.00    +0.292 HD
ENDBRANCH   7  26
TORSDOF 6
