REMARK  Name = ZINC00538159
REMARK                            x       y       z     vdW  Elec       q    Type
REMARK                         _______ _______ _______ _____ _____    ______ ____
ROOT
ATOM      1  C   LIG    1        3.445  -4.975   0.038  0.00  0.00    +0.002 A 
ATOM      2  C   LIG    1        4.383  -4.577   0.972  0.00  0.00    +0.001 A 
ATOM      3  C   LIG    1        4.273  -3.338   1.575  0.00  0.00    +0.017 A 
ATOM      4  C   LIG    1        3.221  -2.494   1.248  0.00  0.00    +0.034 A 
ATOM      5  C   LIG    1        2.272  -2.893   0.312  0.00  0.00    +0.048 A 
ATOM      6  N   LIG    1        1.194  -2.082  -0.035  0.00  0.00    -0.298 N 
ATOM      7  C   LIG    1        1.170  -0.695   0.086  0.00  0.00    +0.049 A 
ATOM      8  C   LIG    1        0.308   0.030  -0.723  0.00  0.00    +0.043 A 
ATOM      9  C   LIG    1        0.256   1.423  -0.625  0.00  0.00    +0.054 A 
ATOM     10  C   LIG    1        1.074   2.088   0.292  0.00  0.00    +0.020 A 
ATOM     11  C   LIG    1        1.931   1.366   1.094  0.00  0.00    +0.018 A 
ATOM     12  C   LIG    1        1.986  -0.021   0.995  0.00  0.00    +0.034 A 
ATOM     13  S   LIG    1        3.100  -0.917   2.024  0.00  0.00    -0.086 S 
ATOM     14  C   LIG    1        2.395  -4.140  -0.292  0.00  0.00    +0.024 A 
ENDROOT
BRANCH   9  15
ATOM     15  C   LIG    1       -0.635   2.168  -1.463  0.00  0.00    +0.099 C 
ATOM     16  N   LIG    1       -1.342   2.759  -2.127  0.00  0.00    -0.191 NA
ENDBRANCH   9  15
BRANCH   6  17
ATOM     17  C   LIG    1       -0.003  -2.737  -0.567  0.00  0.00    +0.109 C 
BRANCH  17  18
ATOM     18  C   LIG    1        0.106  -2.841  -2.090  0.00  0.00    +0.001 C 
BRANCH  18  19
ATOM     19  C   LIG    1       -1.145  -3.525  -2.645  0.00  0.00    -0.077 C 
BRANCH  19  20
ATOM     20  N   LIG    1       -1.040  -3.625  -4.107  0.00  0.00    +0.380 N 
ATOM     21  H   LIG    1       -0.183  -4.098  -4.350  0.00  0.00    -0.082 HD
ATOM     22  C   LIG    1       -1.033  -2.277  -4.689  0.00  0.00    -0.076 C 
ATOM     23  C   LIG    1       -0.843  -2.372  -6.204  0.00  0.00    +0.013 C 
ATOM     24  C   LIG    1       -1.992  -3.184  -6.807  0.00  0.00    +0.111 C 
ATOM     25  C   LIG    1       -2.036  -4.562  -6.140  0.00  0.00    +0.013 C 
ATOM     26  C   LIG    1       -2.182  -4.386  -4.627  0.00  0.00    -0.076 C 
BRANCH  24  27
ATOM     27  O   LIG    1       -1.781  -3.340  -8.212  0.00  0.00    -0.392 OA
ATOM     28  H   LIG    1       -2.473  -3.846  -8.660  0.00  0.00    +0.210 HD
ENDBRANCH  24  27
ENDBRANCH  19  20
ENDBRANCH  18  19
ENDBRANCH  17  18
ENDBRANCH   6  17
TORSDOF 6
