REMARK  Name = ZINC00597083
REMARK                            x       y       z     vdW  Elec       q    Type
REMARK                         _______ _______ _______ _____ _____    ______ ____
ROOT
ATOM      1  N   LIG    1        1.075  -0.627   4.770  0.00  0.00    -0.319 N 
ATOM      2  H   LIG    1        1.256   0.301   4.985  0.00  0.00    +0.148 HD
ENDROOT
BRANCH   1  12
ATOM      3  C   LIG    1        0.439   1.472  -0.054  0.00  0.00    +0.046 C 
ATOM      4  C   LIG    1        0.222  -0.019  -0.029  0.00  0.00    -0.018 A 
ATOM      5  C   LIG    1       -0.098  -0.676  -1.189  0.00  0.00    -0.004 A 
ATOM      6  C   LIG    1       -0.228   0.108  -2.469  0.00  0.00    +0.048 C 
ATOM      7  C   LIG    1       -0.307  -2.051  -1.209  0.00  0.00    +0.124 A 
ATOM      8  C   LIG    1       -0.187  -2.772  -0.029  0.00  0.00    +0.007 A 
ATOM      9  C   LIG    1       -0.408  -4.262  -0.025  0.00  0.00    +0.049 C 
ATOM     10  C   LIG    1        0.134  -2.117   1.133  0.00  0.00    +0.047 A 
ATOM     11  S   LIG    1        0.386  -2.609   2.822  0.00  0.00    -0.052 S 
ATOM     12  C   LIG    1        0.766  -0.989   3.474  0.00  0.00    +0.159 A 
ATOM     13  N   LIG    1        0.670  -0.228   2.408  0.00  0.00    -0.225 NA
ATOM     14  C   LIG    1        0.357  -0.723   1.189  0.00  0.00    +0.084 A 
BRANCH   7  15
ATOM     15  O   LIG    1       -0.624  -2.682  -2.371  0.00  0.00    -0.506 OA
ATOM     16  H   LIG    1        0.142  -2.992  -2.873  0.00  0.00    +0.292 HD
ENDBRANCH   7  15
ENDBRANCH   1  12
BRANCH   1  17
ATOM     17  C   LIG    1        1.130  -1.647   5.821  0.00  0.00    +0.138 C 
BRANCH  17  18
ATOM     18  C   LIG    1        1.485  -0.996   7.134  0.00  0.00    -0.030 A 
ATOM     19  C   LIG    1        2.811  -0.866   7.504  0.00  0.00    +0.007 A 
ATOM     20  C   LIG    1        3.136  -0.270   8.708  0.00  0.00    +0.029 A 
ATOM     21  C   LIG    1        2.137   0.197   9.541  0.00  0.00    +0.105 A 
ATOM     22  C   LIG    1        0.811   0.068   9.170  0.00  0.00    +0.029 A 
ATOM     23  C   LIG    1        0.486  -0.525   7.964  0.00  0.00    +0.007 A 
BRANCH  21  24
ATOM     24  S   LIG    1        2.552   0.957  11.076  0.00  0.00    +0.056 S 
ATOM     25  O   LIG    1        3.835   0.465  11.438  0.00  0.00    -0.153 OA
ATOM     26  O   LIG    1        1.416   0.816  11.918  0.00  0.00    -0.153 OA
BRANCH  24  27
ATOM     27  N   LIG    1        2.730   2.578  10.788  0.00  0.00    -0.204 NA
ATOM     28  H   LIG    1        2.961   3.177  11.514  0.00  0.00    +0.144 HD
ATOM     29  H   LIG    1        2.603   2.928   9.892  0.00  0.00    +0.144 HD
ENDBRANCH  24  27
ENDBRANCH  21  24
ENDBRANCH  17  18
ENDBRANCH   1  17
TORSDOF 6
