REMARK  Name = ZINC00470785
REMARK                            x       y       z     vdW  Elec       q    Type
REMARK                         _______ _______ _______ _____ _____    ______ ____
ROOT
ATOM      1  C   LIG    1       -1.218   1.751   0.017  0.00  0.00    +0.019 A 
ATOM      2  C   LIG    1       -0.013   1.076   0.008  0.00  0.00    +0.047 A 
ATOM      3  C   LIG    1        1.179   1.786   0.000  0.00  0.00    +0.127 A 
ATOM      4  C   LIG    1        1.157   3.173   0.008  0.00  0.00    +0.021 A 
ATOM      5  C   LIG    1       -0.050   3.844   0.022  0.00  0.00    +0.024 A 
ATOM      6  C   LIG    1       -1.237   3.134   0.029  0.00  0.00    +0.018 A 
ATOM      7 BR   LIG    1       -2.889   4.055   0.048  0.00  0.00    -0.050 Br
ENDROOT
BRANCH   3   8
ATOM      8  O   LIG    1        2.366   1.124  -0.015  0.00  0.00    -0.480 OA
BRANCH   8   9
ATOM      9  C   LIG    1        2.312  -0.304  -0.022  0.00  0.00    +0.349 C 
BRANCH   9  10
ATOM     10  C   LIG    1        3.713  -0.859  -0.038  0.00  0.00    +0.343 C 
ATOM     11  O   LIG    1        4.660  -0.109  -0.043  0.00  0.00    -0.247 OA
BRANCH  10  12
ATOM     12  O   LIG    1        3.908  -2.187  -0.047  0.00  0.00    -0.478 OA
ATOM     13  H   LIG    1        3.174  -2.769  -0.043  0.00  0.00    +0.295 HD
ENDBRANCH  10  12
ENDBRANCH   9  10
ENDBRANCH   8   9
ENDBRANCH   3   8
BRANCH   4  14
ATOM     14  C   LIG    1        2.450   3.948  -0.000  0.00  0.00    +0.194 C 
BRANCH  14  15
ATOM     15  O   LIG    1        2.167   5.348   0.009  0.00  0.00    -0.390 OA
ATOM     16  H   LIG    1        2.954   5.909   0.005  0.00  0.00    +0.210 HD
ENDBRANCH  14  15
ENDBRANCH   4  14
TORSDOF 6
