REMARK  Name = ZINC00598952
REMARK                            x       y       z     vdW  Elec       q    Type
REMARK                         _______ _______ _______ _____ _____    ______ ____
ROOT
ATOM      1  N   LIG    1        2.412   1.119   0.004  0.00  0.00    -0.232 N 
ATOM      2  C   LIG    1        3.510   1.452  -0.737  0.00  0.00    +0.075 A 
ATOM      3  C   LIG    1        4.471   0.515  -0.482  0.00  0.00    +0.062 A 
ATOM      4  C   LIG    1        3.941  -0.406   0.421  0.00  0.00    +0.166 A 
ATOM      5  N   LIG    1        2.716  -0.050   0.713  0.00  0.00    -0.162 NA
ENDROOT
BRANCH   2   6
ATOM      6  C   LIG    1        3.636   2.614  -1.645  0.00  0.00    +0.001 A 
ATOM      7  C   LIG    1        2.501   3.159  -2.246  0.00  0.00    +0.013 A 
ATOM      8  C   LIG    1        2.624   4.245  -3.088  0.00  0.00    +0.039 A 
ATOM      9  C   LIG    1        3.873   4.788  -3.345  0.00  0.00    +0.123 A 
ATOM     10  F   LIG    1        3.988   5.848  -4.174  0.00  0.00    -0.205 F 
ATOM     11  C   LIG    1        5.004   4.247  -2.754  0.00  0.00    +0.039 A 
ATOM     12  C   LIG    1        4.891   3.164  -1.907  0.00  0.00    +0.013 A 
ENDBRANCH   2   6
BRANCH   1  16
ATOM     13  C   LIG    1       -1.199   3.198   0.118  0.00  0.00    +0.088 A 
ATOM     14  C   LIG    1       -1.199   1.820  -0.003  0.00  0.00    +0.029 A 
ATOM     15  C   LIG    1       -0.004   1.128  -0.035  0.00  0.00    +0.029 A 
ATOM     16  C   LIG    1        1.198   1.818   0.043  0.00  0.00    +0.066 A 
ATOM     17  C   LIG    1        1.196   3.202   0.159  0.00  0.00    +0.029 A 
ATOM     18  C   LIG    1       -0.003   3.888   0.196  0.00  0.00    +0.029 A 
BRANCH  13  20
ATOM     19  C   LIG    1       -3.099   4.455  -1.569  0.00  0.00    +0.200 C 
ATOM     20  S   LIG    1       -2.725   4.077   0.165  0.00  0.00    -0.006 S 
ATOM     21  O   LIG    1       -2.433   5.272   0.875  0.00  0.00    -0.170 OA
ATOM     22  O   LIG    1       -3.666   3.142   0.676  0.00  0.00    -0.170 OA
ENDBRANCH  13  20
ENDBRANCH   1  16
BRANCH   4  23
ATOM     23  C   LIG    1        4.660  -1.612   0.970  0.00  0.00    +0.436 C 
ATOM     24  F   LIG    1        5.742  -1.194   1.752  0.00  0.00    -0.164 F 
ATOM     25  F   LIG    1        5.126  -2.399  -0.088  0.00  0.00    -0.164 F 
ATOM     26  F   LIG    1        3.779  -2.362   1.757  0.00  0.00    -0.164 F 
ENDBRANCH   4  23
TORSDOF 4
