REMARK  Name = ZINC00586605
REMARK                            x       y       z     vdW  Elec       q    Type
REMARK                         _______ _______ _______ _____ _____    ______ ____
ROOT
ATOM      1  C   LIG    1       -2.370   0.889  -2.895  0.00  0.00    +0.050 A 
ATOM      2  C   LIG    1       -2.629   2.255  -3.083  0.00  0.00    +0.257 A 
ATOM      3  N   LIG    1       -2.219   3.144  -2.157  0.00  0.00    -0.302 N 
ATOM      4  C   LIG    1       -1.565   2.733  -1.056  0.00  0.00    +0.163 A 
ATOM      5  N   LIG    1       -1.304   1.429  -0.851  0.00  0.00    -0.291 N 
ATOM      6  S   LIG    1       -1.057   3.887   0.103  0.00  0.00    -0.013 S 
ATOM      7  H   LIG    1       -2.403   4.118  -2.289  0.00  0.00    +0.171 HD
ATOM      8  O   LIG    1       -3.223   2.635  -4.078  0.00  0.00    -0.267 OA
ATOM      9  C   LIG    1       -1.699   0.488  -1.772  0.00  0.00    +0.093 A 
ENDROOT
BRANCH   1  11
ATOM     10  C   LIG    1       -4.341  -0.059  -4.063  0.00  0.00    +0.012 C 
ATOM     11  C   LIG    1       -2.820  -0.123  -3.917  0.00  0.00    +0.021 C 
ATOM     12  C   LIG    1       -2.165   0.189  -5.265  0.00  0.00    +0.012 C 
ENDBRANCH   1  11
BRANCH   5  13
ATOM     13  C   LIG    1       -0.589   1.010   0.358  0.00  0.00    +0.287 C 
BRANCH  13  14
ATOM     14  O   LIG    1       -1.468   1.089   1.482  0.00  0.00    -0.355 OA
BRANCH  14  15
ATOM     15  C   LIG    1       -2.386  -0.002   1.579  0.00  0.00    +0.197 C 
BRANCH  15  16
ATOM     16  C   LIG    1       -3.259   0.182   2.794  0.00  0.00    -0.022 A 
ATOM     17  C   LIG    1       -2.870  -0.346   4.011  0.00  0.00    +0.006 A 
ATOM     18  C   LIG    1       -3.668  -0.172   5.126  0.00  0.00    +0.000 A 
ATOM     19  C   LIG    1       -4.860   0.520   5.022  0.00  0.00    +0.000 A 
ATOM     20  C   LIG    1       -5.252   1.043   3.804  0.00  0.00    +0.000 A 
ATOM     21  C   LIG    1       -4.451   0.874   2.690  0.00  0.00    +0.006 A 
ENDBRANCH  15  16
ENDBRANCH  14  15
ENDBRANCH  13  14
ENDBRANCH   5  13
BRANCH   9  22
ATOM     22  S   LIG    1       -1.350  -1.218  -1.505  0.00  0.00    -0.071 S 
BRANCH  22  23
ATOM     23  C   LIG    1        0.398  -1.211  -1.723  0.00  0.00    +0.014 A 
ATOM     24  C   LIG    1        1.041  -0.060  -2.160  0.00  0.00    +0.015 A 
ATOM     25  C   LIG    1        2.412  -0.056  -2.325  0.00  0.00    +0.001 A 
ATOM     26  C   LIG    1        3.144  -1.200  -2.066  0.00  0.00    +0.000 A 
ATOM     27  C   LIG    1        2.507  -2.350  -1.636  0.00  0.00    +0.001 A 
ATOM     28  C   LIG    1        1.137  -2.359  -1.464  0.00  0.00    +0.015 A 
ENDBRANCH  22  23
ENDBRANCH   9  22
TORSDOF 7
