REMARK  Name = ZINC00601247
REMARK                            x       y       z     vdW  Elec       q    Type
REMARK                         _______ _______ _______ _____ _____    ______ ____
ROOT
ATOM      1  O   LIG    1       -1.006 -10.216   0.501  0.00  0.00    -0.422 OA
ENDROOT
BRANCH   1   5
ATOM      2  C   LIG    1       -0.043  -6.209   0.691  0.00  0.00    -0.037 A 
ATOM      3  C   LIG    1       -0.911  -6.664  -0.284  0.00  0.00    +0.008 A 
ATOM      4  C   LIG    1       -1.235  -8.005  -0.350  0.00  0.00    +0.046 A 
ATOM      5  C   LIG    1       -0.688  -8.896   0.563  0.00  0.00    +0.132 A 
ATOM      6  C   LIG    1        0.183  -8.436   1.540  0.00  0.00    +0.046 A 
ATOM      7  C   LIG    1        0.508  -7.095   1.599  0.00  0.00    +0.008 A 
BRANCH   2   8
ATOM      8  C   LIG    1        0.309  -4.745   0.761  0.00  0.00    +0.155 C 
BRANCH   8   9
ATOM      9  C   LIG    1        1.520  -4.478  -0.095  0.00  0.00    +0.312 C 
ATOM     10  O   LIG    1        2.044  -5.383  -0.700  0.00  0.00    -0.250 OA
BRANCH   9  11
ATOM     11  O   LIG    1        2.017  -3.234  -0.185  0.00  0.00    -0.455 OA
BRANCH  11  12
ATOM     12  C   LIG    1        3.166  -3.053  -1.015  0.00  0.00    +0.327 C 
BRANCH  12  15
ATOM     13  C   LIG    1        5.045   0.213  -1.688  0.00  0.00    +0.131 C 
ATOM     14  N   LIG    1        4.645  -1.196  -1.708  0.00  0.00    -0.305 N 
ATOM     15  C   LIG    1        3.578  -1.604  -0.994  0.00  0.00    +0.253 C 
ATOM     16  O   LIG    1        2.949  -0.804  -0.334  0.00  0.00    -0.272 OA
ATOM     17  C   LIG    1        5.405  -2.162  -2.506  0.00  0.00    +0.131 C 
ENDBRANCH  12  15
ENDBRANCH  11  12
ENDBRANCH   9  11
ENDBRANCH   8   9
ENDBRANCH   2   8
ENDBRANCH   1   5
BRANCH   1  18
ATOM     18  C   LIG    1       -0.404 -10.967  -0.443  0.00  0.00    +0.344 C 
ATOM     19  O   LIG    1        0.432 -10.472  -1.172  0.00  0.00    -0.245 OA
BRANCH  18  20
ATOM     20  C   LIG    1       -0.761 -12.390  -0.589  0.00  0.00    +0.060 A 
ATOM     21  C   LIG    1       -1.726 -12.960   0.246  0.00  0.00    +0.018 A 
ATOM     22  C   LIG    1       -2.057 -14.289   0.106  0.00  0.00    +0.043 A 
ATOM     23  C   LIG    1       -1.430 -15.065  -0.864  0.00  0.00    +0.100 A 
ATOM     24  C   LIG    1       -0.468 -14.501  -1.697  0.00  0.00    +0.043 A 
ATOM     25  C   LIG    1       -0.138 -13.172  -1.567  0.00  0.00    +0.018 A 
BRANCH  23  26
ATOM     26  N   LIG    1       -1.766 -16.411  -1.002  0.00  0.00    -0.246 N 
ATOM     27  H   LIG    1       -1.927 -16.954  -0.215  0.00  0.00    +0.265 HD
BRANCH  26  28
ATOM     28  C   LIG    1       -1.870 -16.967  -2.251  0.00  0.00    +0.346 C 
ATOM     29  N   LIG    1       -2.069 -18.277  -2.382  0.00  0.00    -0.292 N 
ATOM     30  H   LIG    1       -2.143 -18.670  -3.266  0.00  0.00    +0.255 HD
ATOM     31  H   LIG    1       -2.142 -18.838  -1.594  0.00  0.00    +0.255 HD
BRANCH  28  32
ATOM     32  N   LIG    1       -1.771 -16.197  -3.333  0.00  0.00    -0.292 N 
ATOM     33  H   LIG    1       -1.635 -16.600  -4.205  0.00  0.00    +0.255 HD
ATOM     34  H   LIG    1       -1.834 -15.232  -3.249  0.00  0.00    +0.255 HD
ENDBRANCH  28  32
ENDBRANCH  26  28
ENDBRANCH  23  26
ENDBRANCH  18  20
ENDBRANCH   1  18
TORSDOF 11
