REMARK  Name = ZINC00356600
REMARK                            x       y       z     vdW  Elec       q    Type
REMARK                         _______ _______ _______ _____ _____    ______ ____
ROOT
ATOM      1  C   LIG    1        2.505  -2.503  -4.381  0.00  0.00    +0.060 C 
ATOM      2  C   LIG    1        2.708  -4.020  -4.310  0.00  0.00    +0.053 C 
ATOM      3  C   LIG    1        1.656  -3.429  -5.241  0.00  0.00    +0.169 C 
ATOM      4  C   LIG    1        1.802  -3.479  -6.743  0.00  0.00    +0.342 C 
ATOM      5  O   LIG    1        0.545  -3.666  -7.196  0.00  0.00    -0.405 OA
ATOM      6  C   LIG    1       -0.332  -3.735  -6.179  0.00  0.00    +0.228 C 
ATOM      7  O   LIG    1        2.816  -3.376  -7.393  0.00  0.00    -0.248 OA
ATOM      8  N   LIG    1        0.221  -3.609  -5.012  0.00  0.00    -0.231 NA
ENDROOT
BRANCH   1  12
ATOM      9  C   LIG    1        0.606  -0.607  -1.056  0.00  0.00    +0.120 A 
ATOM     10  C   LIG    1        1.173   0.161  -2.062  0.00  0.00    +0.046 A 
ATOM     11  C   LIG    1        1.786  -0.455  -3.136  0.00  0.00    +0.007 A 
ATOM     12  C   LIG    1        1.835  -1.835  -3.209  0.00  0.00    -0.041 A 
ATOM     13  C   LIG    1        1.270  -2.602  -2.207  0.00  0.00    +0.007 A 
ATOM     14  C   LIG    1        0.661  -1.992  -1.128  0.00  0.00    +0.046 A 
BRANCH   9  16
ATOM     15  C   LIG    1       -0.017   1.425   0.010  0.00  0.00    +0.277 C 
ATOM     16  O   LIG    1        0.002  -0.004   0.002  0.00  0.00    -0.495 OA
ENDBRANCH   9  16
ENDBRANCH   1  12
BRANCH   6  17
ATOM     17  C   LIG    1       -1.785  -3.936  -6.372  0.00  0.00    +0.037 A 
ATOM     18  C   LIG    1       -2.638  -3.992  -5.269  0.00  0.00    +0.013 A 
ATOM     19  C   LIG    1       -3.992  -4.179  -5.456  0.00  0.00    +0.001 A 
ATOM     20  C   LIG    1       -4.505  -4.312  -6.734  0.00  0.00    +0.000 A 
ATOM     21  C   LIG    1       -3.665  -4.257  -7.832  0.00  0.00    +0.001 A 
ATOM     22  C   LIG    1       -2.310  -4.065  -7.659  0.00  0.00    +0.013 A 
ENDBRANCH   6  17
TORSDOF 3
