REMARK  Name = ZINC00362857
REMARK                            x       y       z     vdW  Elec       q    Type
REMARK                         _______ _______ _______ _____ _____    ______ ____
ROOT
ATOM      1  N   LIG    1        0.835   5.632   0.024  0.00  0.00    -0.279 N 
ATOM      2  H   LIG    1       -0.131   5.693  -0.041  0.00  0.00    +0.155 HD
ATOM      3  C   LIG    1        1.435   4.425   0.013  0.00  0.00    +0.284 C 
ATOM      4  O   LIG    1        2.650   4.350   0.009  0.00  0.00    -0.266 OA
ENDROOT
BRANCH   1  12
ATOM      5  C   LIG    1        1.118   7.890   0.830  0.00  0.00    +0.025 A 
ATOM      6  C   LIG    1        1.883   9.036   0.936  0.00  0.00    +0.023 A 
ATOM      7  C   LIG    1        3.126   9.098   0.334  0.00  0.00    +0.059 A 
ATOM      8 CL   LIG    1        4.081  10.543   0.463  0.00  0.00    -0.082 Cl
ATOM      9  C   LIG    1        3.612   8.010  -0.372  0.00  0.00    +0.061 A 
ATOM     10 CL   LIG    1        5.173   8.091  -1.126  0.00  0.00    -0.082 Cl
ATOM     11  C   LIG    1        2.854   6.859  -0.476  0.00  0.00    +0.044 A 
ATOM     12  C   LIG    1        1.605   6.795   0.128  0.00  0.00    +0.035 A 
ENDBRANCH   1  12
BRANCH   3  13
ATOM     13  C   LIG    1        0.626   3.204   0.007  0.00  0.00    +0.191 A 
ATOM     14  C   LIG    1        1.104   1.924  -0.004  0.00  0.00    +0.056 A 
ATOM     15  C   LIG    1       -0.013   1.076  -0.008  0.00  0.00    +0.058 A 
ATOM     16  C   LIG    1       -1.113   1.865  -0.005  0.00  0.00    +0.171 A 
ATOM     17 BR   LIG    1       -2.904   1.259  -0.017  0.00  0.00    -0.008 Br
ATOM     18  O   LIG    1       -0.723   3.147   0.009  0.00  0.00    -0.444 OA
ENDBRANCH   3  13
TORSDOF 2
