REMARK  Name = ZINC00391982
REMARK                            x       y       z     vdW  Elec       q    Type
REMARK                         _______ _______ _______ _____ _____    ______ ____
ROOT
ATOM      1  C   LIG    1       -1.201  -0.638   0.010  0.00  0.00    +0.124 A 
ATOM      2  C   LIG    1       -2.374   0.102   0.019  0.00  0.00    +0.049 A 
ATOM      3  C   LIG    1       -3.598  -0.540   0.028  0.00  0.00    +0.053 A 
ATOM      4  C   LIG    1       -3.656  -1.924   0.027  0.00  0.00    +0.162 A 
ATOM      5  C   LIG    1       -2.480  -2.668   0.017  0.00  0.00    +0.165 A 
ATOM      6  C   LIG    1       -1.254  -2.023   0.003  0.00  0.00    +0.095 A 
ENDROOT
BRANCH   1   8
ATOM      7  C   LIG    1       -0.017   1.425   0.010  0.00  0.00    +0.277 C 
ATOM      8  O   LIG    1        0.002  -0.004   0.002  0.00  0.00    -0.495 OA
ENDBRANCH   1   8
BRANCH   4   9
ATOM      9  O   LIG    1       -4.861  -2.555   0.036  0.00  0.00    -0.491 OA
ATOM     10  C   LIG    1       -6.027  -1.728   0.046  0.00  0.00    +0.277 C 
ENDBRANCH   4   9
BRANCH   5  11
ATOM     11  O   LIG    1       -2.535  -4.027   0.016  0.00  0.00    -0.491 OA
ATOM     12  C   LIG    1       -1.289  -4.726   0.006  0.00  0.00    +0.277 C 
ENDBRANCH   5  11
TORSDOF 3
