REMARK  Name = ZINC00389827
REMARK                            x       y       z     vdW  Elec       q    Type
REMARK                         _______ _______ _______ _____ _____    ______ ____
ROOT
ATOM      1  N   LIG    1       -0.018   1.461   0.010  0.00  0.00    -0.345 N 
ATOM      2  H   LIG    1       -0.864   1.934   0.017  0.00  0.00    +0.146 HD
ENDROOT
BRANCH   1   6
ATOM      3  C   LIG    1        3.559   3.591  -0.012  0.00  0.00    +0.000 A 
ATOM      4  C   LIG    1        2.353   4.268   0.003  0.00  0.00    +0.002 A 
ATOM      5  C   LIG    1        1.165   3.564   0.010  0.00  0.00    +0.023 A 
ATOM      6  C   LIG    1        1.182   2.175   0.003  0.00  0.00    +0.027 A 
ATOM      7  C   LIG    1        2.395   1.499  -0.007  0.00  0.00    +0.023 A 
ATOM      8  C   LIG    1        3.580   2.209  -0.019  0.00  0.00    +0.002 A 
ENDBRANCH   1   6
BRANCH   1   9
ATOM      9  C   LIG    1        0.002  -0.004   0.002  0.00  0.00    +0.086 C 
BRANCH   9  10
ATOM     10  C   LIG    1       -1.433  -0.534   0.013  0.00  0.00    -0.055 C 
ATOM     11  N   LIG    1       -2.179   0.012  -1.132  0.00  0.00    +0.382 N 
ATOM     12  H   LIG    1       -3.001   0.526  -0.794  0.00  0.00    -0.085 HD
ATOM     13  H   LIG    1       -1.574   0.646  -1.666  0.00  0.00    -0.085 HD
ATOM     14  C   LIG    1       -2.613  -1.102  -1.996  0.00  0.00    -0.082 C 
ATOM     15  C   LIG    1       -2.653  -2.333  -1.056  0.00  0.00    -0.021 C 
ATOM     16  C   LIG    1       -1.428  -2.069  -0.141  0.00  0.00    -0.016 C 
ENDBRANCH   9  10
ENDBRANCH   1   9
TORSDOF 3
