REMARK  Name = ZINC00673785
REMARK                            x       y       z     vdW  Elec       q    Type
REMARK                         _______ _______ _______ _____ _____    ______ ____
ROOT
ATOM      1  C   LIG    1       -1.392  -4.611   2.197  0.00  0.00    +0.109 A 
ATOM      2  C   LIG    1       -1.542  -3.465   2.956  0.00  0.00    +0.030 A 
ATOM      3  C   LIG    1       -2.759  -3.178   3.542  0.00  0.00    +0.025 A 
ATOM      4  C   LIG    1       -3.833  -4.040   3.367  0.00  0.00    +0.034 A 
ATOM      5  C   LIG    1       -3.679  -5.190   2.603  0.00  0.00    +0.025 A 
ATOM      6  C   LIG    1       -2.461  -5.469   2.016  0.00  0.00    +0.030 A 
ENDROOT
BRANCH   4   7
ATOM      7  N   LIG    1       -5.067  -3.752   3.959  0.00  0.00    -0.279 N 
ATOM      8  H   LIG    1       -5.360  -2.832   4.047  0.00  0.00    +0.155 HD
ATOM      9  C   LIG    1       -5.849  -4.754   4.408  0.00  0.00    +0.284 C 
ATOM     10  O   LIG    1       -5.445  -5.902   4.380  0.00  0.00    -0.266 OA
BRANCH   9  11
ATOM     11  C   LIG    1       -7.188  -4.461   4.929  0.00  0.00    +0.189 A 
ATOM     12  C   LIG    1       -8.077  -5.376   5.418  0.00  0.00    +0.054 A 
ATOM     13  C   LIG    1       -9.221  -4.660   5.804  0.00  0.00    +0.042 A 
ATOM     14  C   LIG    1       -8.983  -3.357   5.539  0.00  0.00    +0.196 A 
ATOM     15  O   LIG    1       -7.755  -3.240   5.016  0.00  0.00    -0.458 OA
ENDBRANCH   9  11
ENDBRANCH   4   7
BRANCH   1  16
ATOM     16  S   LIG    1        0.163  -4.974   1.451  0.00  0.00    +0.072 S 
ATOM     17  O   LIG    1        1.158  -4.396   2.285  0.00  0.00    -0.150 OA
ATOM     18  O   LIG    1        0.147  -6.359   1.133  0.00  0.00    -0.150 OA
BRANCH  16  19
ATOM     19  N   LIG    1        0.218  -4.158   0.012  0.00  0.00    -0.216 N 
ATOM     20  H   LIG    1        0.298  -4.648  -0.821  0.00  0.00    +0.174 HD
BRANCH  19  26
ATOM     21  C   LIG    1       -0.062   1.506  -0.050  0.00  0.00    +0.044 C 
ATOM     22  C   LIG    1        0.012   0.001  -0.034  0.00  0.00    -0.050 A 
ATOM     23  C   LIG    1        1.136  -0.629   0.470  0.00  0.00    +0.008 A 
ATOM     24  C   LIG    1        1.207  -2.008   0.487  0.00  0.00    -0.028 A 
ATOM     25  C   LIG    1        2.432  -2.693   1.036  0.00  0.00    +0.046 C 
ATOM     26  C   LIG    1        0.149  -2.763  -0.003  0.00  0.00    +0.054 A 
ATOM     27  C   LIG    1       -0.978  -2.127  -0.509  0.00  0.00    -0.028 A 
ATOM     28  C   LIG    1       -2.128  -2.942  -1.043  0.00  0.00    +0.046 C 
ATOM     29  C   LIG    1       -1.045  -0.748  -0.518  0.00  0.00    +0.008 A 
ENDBRANCH  19  26
ENDBRANCH  16  19
ENDBRANCH   1  16
TORSDOF 5
