REMARK  Name = ZINC00592419
REMARK                            x       y       z     vdW  Elec       q    Type
REMARK                         _______ _______ _______ _____ _____    ______ ____
ROOT
ATOM      1  C   LIG    1        0.984  -2.072  -0.144  0.00  0.00    +0.017 A 
ATOM      2  C   LIG    1        0.855  -0.702  -0.217  0.00  0.00    +0.050 A 
ATOM      3  C   LIG    1        0.544  -0.095  -1.426  0.00  0.00    +0.168 A 
ATOM      4  C   LIG    1        0.355  -0.869  -2.571  0.00  0.00    +0.163 A 
ATOM      5  C   LIG    1        0.489  -2.242  -2.505  0.00  0.00    +0.062 A 
ATOM      6  C   LIG    1        0.802  -2.853  -1.287  0.00  0.00    +0.041 A 
ENDROOT
BRANCH   6   7
ATOM      7  C   LIG    1        0.941  -4.320  -1.210  0.00  0.00    +0.248 C 
ATOM      8  N   LIG    1        1.243  -4.908  -0.036  0.00  0.00    -0.279 N 
ATOM      9  H   LIG    1        1.442  -4.363   0.742  0.00  0.00    +0.155 HD
ATOM     10  O   LIG    1        0.782  -4.999  -2.207  0.00  0.00    -0.270 OA
BRANCH   8  11
ATOM     11  C   LIG    1        1.269  -6.300   0.062  0.00  0.00    +0.074 A 
ATOM     12  C   LIG    1        0.117  -7.016   0.387  0.00  0.00    +0.082 A 
ATOM     13 CL   LIG    1       -1.381  -6.188   0.679  0.00  0.00    -0.080 Cl
ATOM     14  C   LIG    1        0.184  -8.393   0.468  0.00  0.00    +0.132 A 
ATOM     15  N   LIG    1        1.320  -9.029   0.253  0.00  0.00    -0.260 NA
ATOM     16  C   LIG    1        2.432  -8.387  -0.051  0.00  0.00    +0.132 A 
ATOM     17  C   LIG    1        2.449  -7.011  -0.158  0.00  0.00    +0.082 A 
ATOM     18 CL   LIG    1        3.917  -6.177  -0.559  0.00  0.00    -0.080 Cl
ENDBRANCH   8  11
ENDBRANCH   6   7
BRANCH   3  19
ATOM     19  O   LIG    1        0.417   1.256  -1.494  0.00  0.00    -0.431 OA
BRANCH  19  20
ATOM     20  C   LIG    1        0.618   1.987  -0.283  0.00  0.00    +0.541 C 
ATOM     21  F   LIG    1        1.913   1.754   0.194  0.00  0.00    -0.166 F 
ATOM     22  F   LIG    1       -0.313   1.570   0.674  0.00  0.00    -0.166 F 
ENDBRANCH  19  20
ENDBRANCH   3  19
BRANCH   4  23
ATOM     23  O   LIG    1        0.045  -0.272  -3.752  0.00  0.00    -0.488 OA
BRANCH  23  24
ATOM     24  C   LIG    1       -0.134  -1.126  -4.884  0.00  0.00    +0.232 C 
BRANCH  24  25
ATOM     25  C   LIG    1       -0.475  -0.281  -6.112  0.00  0.00    +0.027 C 
ATOM     26  C   LIG    1       -1.850  -0.486  -6.752  0.00  0.00    +0.007 C 
ATOM     27  C   LIG    1       -0.593  -1.002  -7.456  0.00  0.00    +0.007 C 
ENDBRANCH  24  25
ENDBRANCH  23  24
ENDBRANCH   4  23
TORSDOF 7
