REMARK  Name = ZINC00602803
REMARK                            x       y       z     vdW  Elec       q    Type
REMARK                         _______ _______ _______ _____ _____    ______ ____
ROOT
ATOM      1  C   LIG    1       -0.330  -1.347   0.773  0.00  0.00    +0.144 A 
ATOM      2  C   LIG    1        0.050  -1.305  -0.549  0.00  0.00    +0.076 A 
ATOM      3  C   LIG    1        0.509  -0.102  -1.107  0.00  0.00    +0.076 A 
ATOM      4  C   LIG    1        0.575   1.057  -0.296  0.00  0.00    +0.025 A 
ATOM      5  C   LIG    1        1.039   2.267  -0.864  0.00  0.00    +0.060 A 
ATOM      6  C   LIG    1        1.414   2.254  -2.216  0.00  0.00    +0.091 A 
ATOM      7  C   LIG    1        1.317   1.057  -2.945  0.00  0.00    +0.132 A 
ATOM      8  C   LIG    1        0.188   0.993   1.050  0.00  0.00    +0.039 A 
ATOM      9  N   LIG    1        0.883  -0.048  -2.394  0.00  0.00    -0.253 NA
ATOM     10  C   LIG    1       -0.265  -0.197   1.574  0.00  0.00    +0.077 A 
ENDROOT
BRANCH  10  11
ATOM     11  N   LIG    1       -0.657  -0.261   2.916  0.00  0.00    -0.279 N 
ATOM     12  H   LIG    1       -1.290  -0.937   3.205  0.00  0.00    +0.155 HD
ATOM     13  C   LIG    1       -0.157   0.617   3.808  0.00  0.00    +0.241 C 
ATOM     14  O   LIG    1        0.715   1.396   3.470  0.00  0.00    -0.271 OA
BRANCH  13  15
ATOM     15  C   LIG    1       -0.664   0.634   5.188  0.00  0.00    +0.061 C 
ATOM     16  C   LIG    1       -0.170   1.501   6.067  0.00  0.00    -0.040 C 
BRANCH  16  17
ATOM     17  C   LIG    1       -0.690   1.519   7.482  0.00  0.00    -0.052 C 
BRANCH  17  18
ATOM     18  N   LIG    1        0.447   1.338   8.410  0.00  0.00    +0.378 N 
ATOM     19  H   LIG    1        0.982   0.509   8.124  0.00  0.00    -0.082 HD
ATOM     20  C   LIG    1       -0.053   1.136   9.786  0.00  0.00    -0.096 C 
ATOM     21  C   LIG    1        1.331   2.521   8.362  0.00  0.00    -0.096 C 
ENDBRANCH  17  18
ENDBRANCH  16  17
ENDBRANCH  13  15
ENDBRANCH  10  11
BRANCH   5  22
ATOM     22  N   LIG    1        1.119   3.422  -0.113  0.00  0.00    -0.313 N 
ATOM     23  H   LIG    1        0.310   3.846   0.214  0.00  0.00    +0.152 HD
BRANCH  22  24
ATOM     24  C   LIG    1        2.368   3.981   0.177  0.00  0.00    +0.033 A 
ATOM     25  C   LIG    1        3.471   3.159   0.366  0.00  0.00    +0.026 A 
ATOM     26  C   LIG    1        4.705   3.714   0.646  0.00  0.00    +0.041 A 
ATOM     27  C   LIG    1        4.840   5.088   0.752  0.00  0.00    +0.142 A 
ATOM     28  F   LIG    1        6.046   5.627   1.032  0.00  0.00    -0.204 F 
ATOM     29  C   LIG    1        3.739   5.910   0.570  0.00  0.00    +0.078 A 
ATOM     30 CL   LIG    1        3.912   7.632   0.702  0.00  0.00    -0.081 Cl
ATOM     31  C   LIG    1        2.504   5.359   0.283  0.00  0.00    +0.046 A 
ENDBRANCH  22  24
ENDBRANCH   5  22
BRANCH   6  32
ATOM     32  C   LIG    1        1.892   3.448  -2.846  0.00  0.00    +0.103 C 
ATOM     33  N   LIG    1        2.271   4.395  -3.346  0.00  0.00    -0.191 NA
ENDBRANCH   6  32
BRANCH   1  34
ATOM     34  O   LIG    1       -0.774  -2.514   1.307  0.00  0.00    -0.490 OA
BRANCH  34  36
ATOM     35  C   LIG    1       -1.340  -4.862   1.214  0.00  0.00    +0.048 C 
ATOM     36  C   LIG    1       -0.818  -3.650   0.441  0.00  0.00    +0.226 C 
ENDBRANCH  34  36
ENDBRANCH   1  34
TORSDOF 9
