REMARK  Name = ZINC00537818
REMARK                            x       y       z     vdW  Elec       q    Type
REMARK                         _______ _______ _______ _____ _____    ______ ____
ROOT
ATOM      1  N   LIG    1        4.852   1.460  -0.059  0.00  0.00    +0.381 N 
ATOM      2  H   LIG    1        4.825   0.786  -0.834  0.00  0.00    -0.082 HD
ATOM      3  C   LIG    1        5.969   2.402  -0.280  0.00  0.00    -0.077 C 
ATOM      4  C   LIG    1        7.267   1.605  -0.435  0.00  0.00    +0.006 C 
ATOM      5  C   LIG    1        7.519   0.796   0.840  0.00  0.00    +0.089 C 
ATOM      6  C   LIG    1        6.320  -0.122   1.098  0.00  0.00    +0.006 C 
ATOM      7  C   LIG    1        5.050   0.725   1.208  0.00  0.00    -0.077 C 
ENDROOT
BRANCH   5   8
ATOM      8  N   LIG    1        8.729  -0.013   0.676  0.00  0.00    -0.289 N 
ATOM      9  C   LIG    1        9.877   0.069   1.463  0.00  0.00    +0.070 A 
ATOM     10  C   LIG    1       10.227   0.845   2.557  0.00  0.00    +0.029 A 
ATOM     11  C   LIG    1       11.468   0.688   3.142  0.00  0.00    +0.022 A 
ATOM     12  C   LIG    1       12.363  -0.244   2.643  0.00  0.00    +0.043 A 
ATOM     13 CL   LIG    1       13.920  -0.433   3.387  0.00  0.00    -0.083 Cl
ATOM     14  C   LIG    1       12.020  -1.026   1.556  0.00  0.00    +0.047 A 
ATOM     15  C   LIG    1       10.776  -0.875   0.963  0.00  0.00    +0.068 A 
ATOM     16  N   LIG    1       10.151  -1.495  -0.117  0.00  0.00    -0.306 N 
ATOM     17  H   LIG    1       10.533  -2.195  -0.669  0.00  0.00    +0.170 HD
ATOM     18  C   LIG    1        8.925  -0.957  -0.263  0.00  0.00    +0.328 A 
ATOM     19  O   LIG    1        8.118  -1.274  -1.117  0.00  0.00    -0.247 OA
ENDBRANCH   5   8
BRANCH   1  20
ATOM     20  C   LIG    1        3.571   2.196  -0.020  0.00  0.00    -0.060 C 
BRANCH  20  21
ATOM     21  C   LIG    1        2.422   1.186  -0.015  0.00  0.00    +0.086 C 
BRANCH  21  23
ATOM     22  C   LIG    1       -0.014   1.212   0.009  0.00  0.00    +0.244 C 
ATOM     23  N   LIG    1        1.143   1.901   0.001  0.00  0.00    -0.313 N 
ATOM     24  H   LIG    1        1.130   2.871   0.007  0.00  0.00    +0.149 HD
ATOM     25  O   LIG    1        0.002  -0.004   0.002  0.00  0.00    -0.270 OA
BRANCH  22  32
ATOM     26  C   LIG    1       -1.325   3.329   0.032  0.00  0.00    +0.016 A 
ATOM     27  C   LIG    1       -2.531   3.997   0.037  0.00  0.00    +0.039 A 
ATOM     28  C   LIG    1       -3.721   3.285   0.038  0.00  0.00    +0.123 A 
ATOM     29  F   LIG    1       -4.900   3.944   0.048  0.00  0.00    -0.205 F 
ATOM     30  C   LIG    1       -3.705   1.898   0.030  0.00  0.00    +0.039 A 
ATOM     31  C   LIG    1       -2.505   1.220   0.021  0.00  0.00    +0.016 A 
ATOM     32  C   LIG    1       -1.304   1.933   0.019  0.00  0.00    +0.037 A 
ENDBRANCH  22  32
ENDBRANCH  21  23
ENDBRANCH  20  21
ENDBRANCH   1  20
TORSDOF 5
