REMARK  Name = ZINC00404157
REMARK                            x       y       z     vdW  Elec       q    Type
REMARK                         _______ _______ _______ _____ _____    ______ ____
ROOT
ATOM      1  C   LIG    1       -2.083  -1.047   2.479  0.00  0.00    +0.248 C 
ATOM      2  N   LIG    1       -2.167  -0.401   1.299  0.00  0.00    -0.306 N 
ATOM      3  H   LIG    1       -2.225  -0.905   0.473  0.00  0.00    +0.149 HD
ATOM      4  O   LIG    1       -2.009  -0.414   3.515  0.00  0.00    -0.270 OA
ENDROOT
BRANCH   2   5
ATOM      5  C   LIG    1       -2.170   1.064   1.264  0.00  0.00    +0.098 C 
ATOM      6  C   LIG    1       -0.729   1.579   1.267  0.00  0.00    +0.006 C 
ATOM      7  C   LIG    1       -0.013   1.086   0.008  0.00  0.00    -0.081 C 
ATOM      8  N   LIG    1       -0.718   1.579  -1.190  0.00  0.00    +0.381 N 
ATOM      9  H   LIG    1       -0.749   2.605  -1.166  0.00  0.00    -0.086 HD
ATOM     10  H   LIG    1       -0.213   1.273  -2.030  0.00  0.00    -0.086 HD
ATOM     11  C   LIG    1       -2.095   1.052  -1.231  0.00  0.00    -0.049 C 
ATOM     12  C   LIG    1       -2.873   1.544  -0.009  0.00  0.00    +0.121 C 
BRANCH  12  13
ATOM     13  O   LIG    1       -4.202   1.021  -0.046  0.00  0.00    -0.380 OA
ATOM     14  C   LIG    1       -5.136   1.856  -0.734  0.00  0.00    +0.194 C 
ENDBRANCH  12  13
ENDBRANCH   2   5
BRANCH   1  21
ATOM     15  C   LIG    1       -1.986  -3.194   3.740  0.00  0.00    +0.134 A 
ATOM     16  C   LIG    1       -1.990  -4.577   3.763  0.00  0.00    +0.070 A 
ATOM     17  C   LIG    1       -2.074  -5.289   2.573  0.00  0.00    +0.047 A 
ATOM     18  C   LIG    1       -2.160  -4.614   1.356  0.00  0.00    +0.062 A 
ATOM     19 CL   LIG    1       -2.265  -5.514  -0.125  0.00  0.00    -0.082 Cl
ATOM     20  C   LIG    1       -2.163  -3.249   1.323  0.00  0.00    +0.038 A 
ATOM     21  C   LIG    1       -2.079  -2.518   2.514  0.00  0.00    +0.080 A 
BRANCH  17  22
ATOM     22  N   LIG    1       -2.072  -6.680   2.596  0.00  0.00    -0.357 N 
ATOM     23  H   LIG    1       -2.012  -7.151   3.442  0.00  0.00    +0.142 HD
ATOM     24  H   LIG    1       -2.131  -7.179   1.766  0.00  0.00    +0.142 HD
ENDBRANCH  17  22
BRANCH  15  26
ATOM     25  C   LIG    1       -1.805  -3.249   6.109  0.00  0.00    +0.277 C 
ATOM     26  O   LIG    1       -1.898  -2.493   4.899  0.00  0.00    -0.494 OA
ENDBRANCH  15  26
ENDBRANCH   1  21
TORSDOF 5
