REMARK  Name = ZINC00359759
REMARK                            x       y       z     vdW  Elec       q    Type
REMARK                         _______ _______ _______ _____ _____    ______ ____
ROOT
ATOM      1  C   LIG    1        3.706  -0.712  -0.167  0.00  0.00    +0.016 C 
ATOM      2  C   LIG    1        3.716  -1.693  -1.343  0.00  0.00    -0.011 C 
ATOM      3  C   LIG    1        5.020  -2.493  -1.321  0.00  0.00    -0.078 C 
ATOM      4  N   LIG    1        5.121  -3.238  -0.060  0.00  0.00    +0.383 N 
ATOM      5  H   LIG    1        4.313  -3.833   0.044  0.00  0.00    -0.081 HD
ATOM      6  C   LIG    1        5.184  -2.300   1.068  0.00  0.00    -0.078 C 
ATOM      7  C   LIG    1        3.886  -1.493   1.138  0.00  0.00    -0.011 C 
ENDROOT
BRANCH   1  11
ATOM      8  C   LIG    1       -0.021   1.374  -0.083  0.00  0.00    +0.000 A 
ATOM      9  C   LIG    1        1.162   2.077  -0.215  0.00  0.00    +0.000 A 
ATOM     10  C   LIG    1        2.368   1.402  -0.242  0.00  0.00    +0.004 A 
ATOM     11  C   LIG    1        2.391   0.024  -0.136  0.00  0.00    -0.044 A 
ATOM     12  C   LIG    1        1.208  -0.679  -0.003  0.00  0.00    +0.004 A 
ATOM     13  C   LIG    1        0.003  -0.004   0.023  0.00  0.00    +0.000 A 
ENDBRANCH   1  11
BRANCH   4  14
ATOM     14  C   LIG    1        6.335  -4.064  -0.076  0.00  0.00    -0.040 C 
ATOM     15  C   LIG    1        7.569  -3.158  -0.094  0.00  0.00    -0.013 C 
ATOM     16  C   LIG    1        8.833  -4.019  -0.111  0.00  0.00    -0.001 C 
ATOM     17  C   LIG    1        8.867  -4.901   1.138  0.00  0.00    +0.002 C 
ATOM     18  C   LIG    1        7.634  -5.807   1.156  0.00  0.00    +0.030 C 
ATOM     19  C   LIG    1        6.369  -4.946   1.173  0.00  0.00    +0.101 C 
BRANCH  19  20
ATOM     20  O   LIG    1        5.217  -5.792   1.190  0.00  0.00    -0.393 OA
ATOM     21  H   LIG    1        5.173  -6.381   1.956  0.00  0.00    +0.210 HD
ENDBRANCH  19  20
ENDBRANCH   4  14
TORSDOF 3
