REMARK  Name = ZINC00608205
REMARK                            x       y       z     vdW  Elec       q    Type
REMARK                         _______ _______ _______ _____ _____    ______ ____
ROOT
ATOM      1  C   LIG    1       -1.746  -0.639  -2.500  0.00  0.00    +0.197 C 
ATOM      2  O   LIG    1       -2.029   0.377  -3.106  0.00  0.00    -0.287 OA
ENDROOT
BRANCH   1   4
ATOM      3  C   LIG    1       -1.401  -0.510   0.011  0.00  0.00    +0.117 A 
ATOM      4  C   LIG    1       -2.147  -0.792  -1.094  0.00  0.00    +0.071 A 
ATOM      5  C   LIG    1       -3.443  -1.283  -0.585  0.00  0.00    +0.031 A 
ATOM      6  C   LIG    1       -4.617  -1.727  -1.185  0.00  0.00    +0.012 A 
ATOM      7  C   LIG    1       -5.676  -2.128  -0.399  0.00  0.00    +0.001 A 
ATOM      8  C   LIG    1       -5.572  -2.089   0.984  0.00  0.00    +0.004 A 
ATOM      9  C   LIG    1       -4.414  -1.651   1.589  0.00  0.00    +0.047 A 
ATOM     10  C   LIG    1       -3.336  -1.243   0.813  0.00  0.00    +0.136 A 
ATOM     11  O   LIG    1       -2.104  -0.782   1.115  0.00  0.00    -0.459 OA
BRANCH   3  13
ATOM     12  C   LIG    1       -0.025   1.554  -0.009  0.00  0.00    +0.012 C 
ATOM     13  C   LIG    1        0.008   0.024  -0.010  0.00  0.00    +0.072 C 
ENDBRANCH   3  13
ENDBRANCH   1   4
BRANCH   1  14
ATOM     14  C   LIG    1       -0.999  -1.718  -3.176  0.00  0.00    +0.025 A 
ATOM     15  C   LIG    1       -0.777  -2.933  -2.521  0.00  0.00    +0.030 A 
ATOM     16  C   LIG    1       -0.080  -3.938  -3.155  0.00  0.00    +0.061 A 
ATOM     17 BR   LIG    1        0.223  -5.582  -2.270  0.00  0.00    -0.046 Br
ATOM     18  C   LIG    1        0.402  -3.746  -4.445  0.00  0.00    +0.145 A 
ATOM     19  C   LIG    1        0.182  -2.539  -5.100  0.00  0.00    +0.061 A 
ATOM     20 BR   LIG    1        0.840  -2.283  -6.854  0.00  0.00    -0.046 Br
ATOM     21  C   LIG    1       -0.518  -1.531  -4.474  0.00  0.00    +0.030 A 
BRANCH  18  22
ATOM     22  O   LIG    1        1.088  -4.738  -5.067  0.00  0.00    -0.505 OA
ATOM     23  H   LIG    1        0.530  -5.342  -5.577  0.00  0.00    +0.292 HD
ENDBRANCH  18  22
ENDBRANCH   1  14
TORSDOF 4
