REMARK  Name = ZINC00602685
REMARK                            x       y       z     vdW  Elec       q    Type
REMARK                         _______ _______ _______ _____ _____    ______ ____
ROOT
ATOM      1  C   LIG    1        3.978  -0.435   0.340  0.00  0.00    +0.228 A 
ATOM      2  N   LIG    1        2.817  -0.001   0.738  0.00  0.00    -0.210 NA
ATOM      3  C   LIG    1        2.538   1.152   0.097  0.00  0.00    +0.117 A 
ATOM      4  C   LIG    1        3.602   1.416  -0.742  0.00  0.00    +0.163 A 
ATOM      5  O   LIG    1        4.488   0.411  -0.564  0.00  0.00    -0.436 OA
ENDROOT
BRANCH   1  11
ATOM      6  C   LIG    1        7.683  -4.098   2.636  0.00  0.00    -0.096 C 
ATOM      7  N   LIG    1        6.908  -2.954   2.112  0.00  0.00    +0.378 N 
ATOM      8  H   LIG    1        7.434  -2.089   2.281  0.00  0.00    -0.082 HD
ATOM      9  C   LIG    1        5.606  -2.867   2.808  0.00  0.00    -0.076 C 
ATOM     10  C   LIG    1        4.873  -1.610   2.334  0.00  0.00    +0.026 C 
ATOM     11  C   LIG    1        4.646  -1.697   0.822  0.00  0.00    +0.138 C 
ATOM     12  C   LIG    1        5.997  -1.861   0.120  0.00  0.00    +0.026 C 
ATOM     13  C   LIG    1        6.697  -3.111   0.658  0.00  0.00    -0.076 C 
BRANCH  11  14
ATOM     14  O   LIG    1        3.814  -2.820   0.526  0.00  0.00    -0.379 OA
ATOM     15  H   LIG    1        2.941  -2.783   0.941  0.00  0.00    +0.211 HD
ENDBRANCH  11  14
ENDBRANCH   1  11
BRANCH   3  16
ATOM     16  C   LIG    1        1.317   1.976   0.257  0.00  0.00    +0.004 A 
ATOM     17  C   LIG    1        0.067   1.364   0.348  0.00  0.00    +0.013 A 
ATOM     18  C   LIG    1       -1.067   2.136   0.492  0.00  0.00    +0.039 A 
ATOM     19  C   LIG    1       -0.966   3.517   0.555  0.00  0.00    +0.123 A 
ATOM     20  F   LIG    1       -2.079   4.268   0.701  0.00  0.00    -0.205 F 
ATOM     21  C   LIG    1        0.274   4.129   0.465  0.00  0.00    +0.039 A 
ATOM     22  C   LIG    1        1.414   3.366   0.316  0.00  0.00    +0.013 A 
ENDBRANCH   3  16
BRANCH   4  23
ATOM     23  C   LIG    1        3.745   2.569  -1.651  0.00  0.00    +0.022 A 
ATOM     24  C   LIG    1        2.701   2.946  -2.507  0.00  0.00    +0.031 A 
ATOM     25  C   LIG    1        2.877   4.032  -3.336  0.00  0.00    +0.111 A 
ATOM     26  N   LIG    1        4.012   4.708  -3.338  0.00  0.00    -0.263 NA
ATOM     27  C   LIG    1        5.021   4.385  -2.551  0.00  0.00    +0.111 A 
ATOM     28  C   LIG    1        4.931   3.315  -1.686  0.00  0.00    +0.031 A 
ENDBRANCH   4  23
TORSDOF 4
