REMARK  Name = ZINC00391977
REMARK                            x       y       z     vdW  Elec       q    Type
REMARK                         _______ _______ _______ _____ _____    ______ ____
ROOT
ATOM      1  C   LIG    1        0.002  -0.004   0.002  0.00  0.00    +0.064 A 
ATOM      2  C   LIG    1       -0.016   1.354   0.009  0.00  0.00    +0.208 A 
ATOM      3  O   LIG    1        1.099   2.088   0.003  0.00  0.00    -0.462 OA
ATOM      4  C   LIG    1        2.337   1.553  -0.012  0.00  0.00    +0.142 A 
ATOM      5  C   LIG    1        3.459   2.373  -0.018  0.00  0.00    +0.096 A 
ATOM      6  C   LIG    1        4.724   1.816  -0.034  0.00  0.00    +0.162 A 
ATOM      7  C   LIG    1        4.889   0.428  -0.044  0.00  0.00    +0.159 A 
ATOM      8  C   LIG    1        3.786  -0.399  -0.037  0.00  0.00    +0.064 A 
ATOM      9  C   LIG    1        2.506   0.158  -0.021  0.00  0.00    +0.068 A 
ATOM     10  C   LIG    1        1.303  -0.694  -0.014  0.00  0.00    +0.200 A 
ATOM     11  O   LIG    1        1.381  -1.910  -0.022  0.00  0.00    -0.286 OA
ENDROOT
BRANCH   1  17
ATOM     12  C   LIG    1       -1.467  -1.795  -0.921  0.00  0.00    +0.012 A 
ATOM     13  C   LIG    1       -2.643  -2.516  -0.907  0.00  0.00    +0.046 A 
ATOM     14  C   LIG    1       -3.627  -2.222   0.026  0.00  0.00    +0.117 A 
ATOM     15  C   LIG    1       -3.430  -1.206   0.952  0.00  0.00    +0.046 A 
ATOM     16  C   LIG    1       -2.255  -0.485   0.946  0.00  0.00    +0.012 A 
ATOM     17  C   LIG    1       -1.264  -0.778   0.011  0.00  0.00    -0.011 A 
BRANCH  14  18
ATOM     18  O   LIG    1       -4.787  -2.931   0.034  0.00  0.00    -0.507 OA
ATOM     19  H   LIG    1       -5.481  -2.556  -0.525  0.00  0.00    +0.292 HD
ENDBRANCH  14  18
ENDBRANCH   1  17
BRANCH   6  20
ATOM     20  O   LIG    1        5.815   2.624  -0.040  0.00  0.00    -0.503 OA
ATOM     21  H   LIG    1        6.123   2.864  -0.925  0.00  0.00    +0.292 HD
ENDBRANCH   6  20
BRANCH   7  22
ATOM     22  O   LIG    1        6.140  -0.107  -0.059  0.00  0.00    -0.503 OA
ATOM     23  H   LIG    1        6.493  -0.257  -0.947  0.00  0.00    +0.292 HD
ENDBRANCH   7  22
TORSDOF 4
