REMARK  Name = ZINC00396107
REMARK                            x       y       z     vdW  Elec       q    Type
REMARK                         _______ _______ _______ _____ _____    ______ ____
ROOT
ATOM      1  C   LIG    1        0.002  -0.004   0.002  0.00  0.00    +0.049 A 
ATOM      2  C   LIG    1       -0.017   1.377   0.010  0.00  0.00    +0.049 A 
ATOM      3  C   LIG    1        1.175   2.087   0.002  0.00  0.00    +0.122 A 
ATOM      4  C   LIG    1        2.385   1.410  -0.014  0.00  0.00    +0.049 A 
ATOM      5  C   LIG    1        2.404   0.029  -0.021  0.00  0.00    +0.049 A 
ATOM      6  C   LIG    1        1.212  -0.681  -0.014  0.00  0.00    +0.117 A 
ENDROOT
BRANCH   6   7
ATOM      7  O   LIG    1        1.231  -2.041  -0.021  0.00  0.00    -0.507 OA
ATOM      8  H   LIG    1        1.228  -2.429  -0.907  0.00  0.00    +0.292 HD
ENDBRANCH   6   7
BRANCH   3   9
ATOM      9  O   LIG    1        1.157   3.446   0.009  0.00  0.00    -0.481 OA
BRANCH   9  10
ATOM     10  C   LIG    1        2.421   4.113   0.001  0.00  0.00    +0.349 C 
BRANCH  10  11
ATOM     11  C   LIG    1        2.203   5.604   0.010  0.00  0.00    +0.343 C 
ATOM     12  O   LIG    1        1.080   6.050   0.023  0.00  0.00    -0.247 OA
BRANCH  11  13
ATOM     13  O   LIG    1        3.256   6.436   0.004  0.00  0.00    -0.478 OA
ATOM     14  H   LIG    1        4.127   6.090  -0.005  0.00  0.00    +0.295 HD
ENDBRANCH  11  13
ENDBRANCH  10  11
ENDBRANCH   9  10
ENDBRANCH   3   9
TORSDOF 5
