REMARK  Name = ZINC00625005
REMARK                            x       y       z     vdW  Elec       q    Type
REMARK                         _______ _______ _______ _____ _____    ______ ____
ROOT
ATOM      1  N   LIG    1       -1.908  -6.995  -1.259  0.00  0.00    -0.216 N 
ATOM      2  H   LIG    1       -2.601  -6.297  -1.308  0.00  0.00    +0.174 HD
ENDROOT
BRANCH   1   3
ATOM      3  C   LIG    1       -2.273  -8.325  -1.105  0.00  0.00    +0.059 A 
ATOM      4  C   LIG    1       -1.299  -9.313  -1.029  0.00  0.00    +0.025 A 
ATOM      5  C   LIG    1       -1.664 -10.634  -0.876  0.00  0.00    +0.002 A 
ATOM      6  C   LIG    1       -3.002 -10.989  -0.798  0.00  0.00    +0.001 A 
ATOM      7  C   LIG    1       -3.983 -10.025  -0.872  0.00  0.00    +0.013 A 
ATOM      8  C   LIG    1       -3.630  -8.680  -1.021  0.00  0.00    +0.045 A 
BRANCH   8   9
ATOM      9  C   LIG    1       -4.674  -7.643  -1.094  0.00  0.00    +0.195 C 
ATOM     10  O   LIG    1       -5.323  -7.505  -2.113  0.00  0.00    -0.287 OA
BRANCH   9  11
ATOM     11  C   LIG    1       -4.932  -6.771   0.071  0.00  0.00    +0.022 A 
ATOM     12  C   LIG    1       -5.842  -5.716  -0.030  0.00  0.00    +0.012 A 
ATOM     13  C   LIG    1       -6.078  -4.906   1.061  0.00  0.00    +0.001 A 
ATOM     14  C   LIG    1       -5.415  -5.136   2.253  0.00  0.00    +0.000 A 
ATOM     15  C   LIG    1       -4.512  -6.179   2.361  0.00  0.00    +0.001 A 
ATOM     16  C   LIG    1       -4.271  -7.001   1.280  0.00  0.00    +0.012 A 
ENDBRANCH   9  11
ENDBRANCH   8   9
ENDBRANCH   1   3
BRANCH   1  17
ATOM     17  S   LIG    1       -0.308  -6.581  -1.358  0.00  0.00    +0.072 S 
ATOM     18  O   LIG    1        0.268  -6.879  -0.094  0.00  0.00    -0.150 OA
ATOM     19  O   LIG    1        0.182  -7.141  -2.569  0.00  0.00    -0.150 OA
BRANCH  17  23
ATOM     20  C   LIG    1       -0.115  -2.082  -1.841  0.00  0.00    +0.033 A 
ATOM     21  C   LIG    1       -0.102  -2.647  -0.572  0.00  0.00    +0.025 A 
ATOM     22  C   LIG    1       -0.162  -4.020  -0.428  0.00  0.00    +0.030 A 
ATOM     23  C   LIG    1       -0.233  -4.831  -1.546  0.00  0.00    +0.109 A 
ATOM     24  C   LIG    1       -0.244  -4.271  -2.810  0.00  0.00    +0.030 A 
ATOM     25  C   LIG    1       -0.192  -2.900  -2.961  0.00  0.00    +0.025 A 
BRANCH  20  28
ATOM     26  C   LIG    1       -0.761   1.413  -3.080  0.00  0.00    +0.109 C 
ATOM     27  C   LIG    1       -0.739  -0.091  -2.983  0.00  0.00    +0.214 C 
ATOM     28  N   LIG    1       -0.055  -0.692  -1.990  0.00  0.00    -0.286 N 
ATOM     29  H   LIG    1        0.479  -0.162  -1.378  0.00  0.00    +0.155 HD
ATOM     30  O   LIG    1       -1.337  -0.760  -3.799  0.00  0.00    -0.276 OA
ENDBRANCH  20  28
ENDBRANCH  17  23
ENDBRANCH   1  17
TORSDOF 6
