REMARK  Name = ZINC00603769
REMARK                            x       y       z     vdW  Elec       q    Type
REMARK                         _______ _______ _______ _____ _____    ______ ____
ROOT
ATOM      1  C   LIG    1        1.271  -2.140  -0.022  0.00  0.00    +0.093 A 
ATOM      2  C   LIG    1        2.297  -2.942  -0.500  0.00  0.00    +0.099 A 
ATOM      3  N   LIG    1        1.934  -4.219  -0.320  0.00  0.00    -0.227 NA
ATOM      4  C   LIG    1        0.746  -4.265   0.241  0.00  0.00    +0.139 A 
ATOM      5  N   LIG    1        0.300  -2.993   0.449  0.00  0.00    -0.336 N 
ATOM      6  H   LIG    1       -0.545  -2.737   0.852  0.00  0.00    +0.167 HD
ENDROOT
BRANCH   2   7
ATOM      7  C   LIG    1        3.566  -2.470  -1.102  0.00  0.00    +0.006 A 
ATOM      8  C   LIG    1        3.584  -1.312  -1.878  0.00  0.00    +0.014 A 
ATOM      9  C   LIG    1        4.766  -0.875  -2.438  0.00  0.00    +0.050 A 
ATOM     10  C   LIG    1        5.940  -1.583  -2.231  0.00  0.00    +0.166 A 
ATOM     11  C   LIG    1        5.929  -2.742  -1.456  0.00  0.00    +0.167 A 
ATOM     12  O   LIG    1        7.197  -3.246  -1.407  0.00  0.00    -0.453 OA
ATOM     13  C   LIG    1        7.903  -2.616  -2.492  0.00  0.00    +0.466 C 
ATOM     14  O   LIG    1        7.216  -1.363  -2.667  0.00  0.00    -0.453 OA
ATOM     15  C   LIG    1        4.747  -3.181  -0.888  0.00  0.00    +0.059 A 
ENDBRANCH   2   7
BRANCH   1  20
ATOM     16  C   LIG    1       -0.017   1.378   0.010  0.00  0.00    +0.004 A 
ATOM     17  C   LIG    1        1.194   2.059   0.002  0.00  0.00    +0.020 A 
ATOM     18  C   LIG    1        2.376   1.342  -0.013  0.00  0.00    +0.111 A 
ATOM     19  N   LIG    1        2.369   0.024  -0.020  0.00  0.00    -0.253 NA
ATOM     20  C   LIG    1        1.233  -0.666  -0.013  0.00  0.00    +0.089 A 
ATOM     21  C   LIG    1        0.002  -0.004   0.002  0.00  0.00    +0.030 A 
ENDBRANCH   1  20
BRANCH   4  22
ATOM     22  C   LIG    1        0.013  -5.498   0.595  0.00  0.00    +0.017 A 
ATOM     23  C   LIG    1       -1.252  -5.414   1.183  0.00  0.00    +0.012 A 
ATOM     24  C   LIG    1       -1.935  -6.563   1.513  0.00  0.00    +0.014 A 
ATOM     25  C   LIG    1       -1.363  -7.812   1.258  0.00  0.00    +0.037 A 
ATOM     26  C   LIG    1       -0.099  -7.896   0.669  0.00  0.00    +0.014 A 
ATOM     27  C   LIG    1        0.582  -6.748   0.335  0.00  0.00    +0.012 A 
BRANCH  25  28
ATOM     28  C   LIG    1       -2.096  -9.045   1.612  0.00  0.00    +0.242 C 
ATOM     29  N   LIG    1       -1.546 -10.251   1.367  0.00  0.00    -0.325 N 
ATOM     30  H   LIG    1       -2.027 -11.060   1.599  0.00  0.00    +0.145 HD
ATOM     31  H   LIG    1       -0.668 -10.309   0.958  0.00  0.00    +0.145 HD
ATOM     32  O   LIG    1       -3.196  -8.973   2.125  0.00  0.00    -0.270 OA
ENDBRANCH  25  28
ENDBRANCH   4  22
TORSDOF 4
