REMARK  Name = ZINC00388851
REMARK                            x       y       z     vdW  Elec       q    Type
REMARK                         _______ _______ _______ _____ _____    ______ ____
ROOT
ATOM      1  C   LIG    1       -0.016   1.362   0.009  0.00  0.00    +0.002 A 
ATOM      2  C   LIG    1        1.167   2.086   0.002  0.00  0.00    +0.002 A 
ATOM      3  C   LIG    1        2.383   1.437  -0.013  0.00  0.00    +0.028 A 
ATOM      4  C   LIG    1        2.422   0.049  -0.021  0.00  0.00    +0.069 A 
ATOM      5  C   LIG    1        1.223  -0.684  -0.013  0.00  0.00    +0.089 A 
ATOM      6  N   LIG    1        1.563  -1.998  -0.024  0.00  0.00    -0.236 NA
ATOM      7  C   LIG    1        2.858  -2.115  -0.037  0.00  0.00    +0.200 A 
ATOM      8  N   LIG    1        3.439  -0.885  -0.036  0.00  0.00    -0.326 N 
ATOM      9  C   LIG    1        0.002  -0.004   0.002  0.00  0.00    +0.030 A 
ENDROOT
BRANCH   8  10
ATOM     10  C   LIG    1        4.876  -0.603  -0.050  0.00  0.00    +0.158 C 
BRANCH  10  11
ATOM     11  C   LIG    1        5.360  -0.392   1.362  0.00  0.00    -0.028 A 
ATOM     12  C   LIG    1        5.346   0.875   1.915  0.00  0.00    +0.007 A 
ATOM     13  C   LIG    1        5.789   1.069   3.210  0.00  0.00    +0.020 A 
ATOM     14  C   LIG    1        6.247  -0.005   3.952  0.00  0.00    +0.041 A 
ATOM     15 CL   LIG    1        6.804   0.238   5.578  0.00  0.00    -0.084 Cl
ATOM     16  C   LIG    1        6.261  -1.272   3.398  0.00  0.00    +0.020 A 
ATOM     17  C   LIG    1        5.812  -1.466   2.105  0.00  0.00    +0.007 A 
ENDBRANCH  10  11
ENDBRANCH   8  10
TORSDOF 2
