REMARK  Name = ZINC00599006
REMARK                            x       y       z     vdW  Elec       q    Type
REMARK                         _______ _______ _______ _____ _____    ______ ____
ROOT
ATOM      1  C   LIG    1       -1.403   2.957   1.426  0.00  0.00    +0.162 A 
ATOM      2  C   LIG    1       -1.015   4.279   1.578  0.00  0.00    +0.050 A 
ATOM      3  C   LIG    1        0.156   4.727   0.997  0.00  0.00    +0.008 A 
ATOM      4  C   LIG    1        0.946   3.857   0.267  0.00  0.00    -0.036 A 
ATOM      5  C   LIG    1        0.568   2.537   0.116  0.00  0.00    +0.053 A 
ATOM      6  C   LIG    1       -0.605   2.081   0.696  0.00  0.00    +0.163 A 
ENDROOT
BRANCH   1   8
ATOM      7  C   LIG    1       -3.326   3.472   2.726  0.00  0.00    +0.277 C 
ATOM      8  O   LIG    1       -2.558   2.517   1.992  0.00  0.00    -0.491 OA
ENDBRANCH   1   8
BRANCH   4   9
ATOM      9  C   LIG    1        2.222   4.351  -0.365  0.00  0.00    +0.053 C 
BRANCH   9  10
ATOM     10  C   LIG    1        1.891   5.302  -1.486  0.00  0.00    -0.040 A 
ATOM     11  C   LIG    1        1.298   6.519  -1.208  0.00  0.00    +0.004 A 
ATOM     12  C   LIG    1        0.999   7.393  -2.237  0.00  0.00    +0.000 A 
ATOM     13  C   LIG    1        1.285   7.046  -3.544  0.00  0.00    +0.000 A 
ATOM     14  C   LIG    1        1.874   5.828  -3.822  0.00  0.00    +0.000 A 
ATOM     15  C   LIG    1        2.177   4.955  -2.794  0.00  0.00    +0.004 A 
ENDBRANCH   9  10
BRANCH   9  16
ATOM     16  C   LIG    1        3.065   5.076   0.686  0.00  0.00    +0.048 C 
BRANCH  16  17
ATOM     17  C   LIG    1        4.393   5.462   0.087  0.00  0.00    -0.044 A 
ATOM     18  C   LIG    1        5.480   4.604   0.158  0.00  0.00    +0.023 A 
ATOM     19  C   LIG    1        6.680   4.990  -0.407  0.00  0.00    +0.111 A 
ATOM     20  N   LIG    1        6.801   6.162  -0.999  0.00  0.00    -0.263 NA
ATOM     21  C   LIG    1        5.790   7.005  -1.082  0.00  0.00    +0.111 A 
ATOM     22  C   LIG    1        4.557   6.685  -0.544  0.00  0.00    +0.023 A 
ENDBRANCH  16  17
ENDBRANCH   9  16
ENDBRANCH   4   9
BRANCH   6  23
ATOM     23  O   LIG    1       -0.979   0.782   0.549  0.00  0.00    -0.485 OA
BRANCH  23  24
ATOM     24  C   LIG    1       -0.057  -0.087  -0.112  0.00  0.00    +0.174 C 
ATOM     25  C   LIG    1       -0.297  -0.053  -1.635  0.00  0.00    +0.044 C 
ATOM     26  C   LIG    1       -0.055  -1.515  -2.090  0.00  0.00    +0.004 C 
ATOM     27  C   LIG    1       -0.660  -2.340  -0.927  0.00  0.00    +0.004 C 
ATOM     28  C   LIG    1       -0.287  -1.541   0.338  0.00  0.00    +0.044 C 
ENDBRANCH  23  24
ENDBRANCH   6  23
TORSDOF 7
