REMARK  Name = ZINC00602632
REMARK                            x       y       z     vdW  Elec       q    Type
REMARK                         _______ _______ _______ _____ _____    ______ ____
ROOT
ATOM      1  C   LIG    1        1.090   3.472   0.354  0.00  0.00    +0.241 A 
ATOM      2  C   LIG    1        1.135   2.096   0.543  0.00  0.00    +0.119 A 
ATOM      3 BR   LIG    1        2.787   1.204   0.774  0.00  0.00    -0.041 Br
ATOM      4  C   LIG    1       -0.065   1.388   0.558  0.00  0.00    +0.139 A 
ATOM      5  N   LIG    1       -1.207   2.049   0.387  0.00  0.00    -0.198 NA
ATOM      6  C   LIG    1       -1.211   3.362   0.215  0.00  0.00    +0.224 A 
ATOM      7  N   LIG    1       -0.089   4.065   0.195  0.00  0.00    -0.178 NA
ENDROOT
BRANCH   4   8
ATOM      8  N   LIG    1       -0.069   0.014   0.743  0.00  0.00    -0.342 N 
ATOM      9  H   LIG    1       -0.908  -0.472   0.752  0.00  0.00    +0.144 HD
ATOM     10  H   LIG    1        0.768  -0.461   0.863  0.00  0.00    +0.144 HD
ENDBRANCH   4   8
BRANCH   6  11
ATOM     11  N   LIG    1       -2.421   4.016   0.046  0.00  0.00    -0.283 N 
ATOM     12  H   LIG    1       -2.446   4.985  -0.004  0.00  0.00    +0.155 HD
BRANCH  11  13
ATOM     13  C   LIG    1       -3.602   3.284  -0.052  0.00  0.00    +0.034 A 
ATOM     14  C   LIG    1       -3.597   2.038  -0.672  0.00  0.00    +0.024 A 
ATOM     15  C   LIG    1       -4.761   1.309  -0.766  0.00  0.00    +0.020 A 
ATOM     16  C   LIG    1       -5.951   1.826  -0.247  0.00  0.00    +0.052 A 
ATOM     17  C   LIG    1       -5.954   3.080   0.370  0.00  0.00    +0.020 A 
ATOM     18  C   LIG    1       -4.786   3.802   0.465  0.00  0.00    +0.024 A 
BRANCH  16  19
ATOM     19  C   LIG    1       -7.165   1.073  -0.348  0.00  0.00    +0.099 C 
ATOM     20  N   LIG    1       -8.128   0.476  -0.428  0.00  0.00    -0.191 NA
ENDBRANCH  16  19
ENDBRANCH  11  13
ENDBRANCH   6  11
BRANCH   1  21
ATOM     21  O   LIG    1        2.233   4.200   0.333  0.00  0.00    -0.436 OA
BRANCH  21  29
ATOM     22  C   LIG    1        2.313   5.144  -2.326  0.00  0.00    +0.047 C 
ATOM     23  C   LIG    1        2.165   6.065  -1.142  0.00  0.00    -0.007 A 
ATOM     24  C   LIG    1        2.057   7.424  -1.337  0.00  0.00    +0.025 A 
ATOM     25  C   LIG    1        1.925   8.277  -0.238  0.00  0.00    +0.052 A 
ATOM     26  C   LIG    1        1.897   7.747   1.054  0.00  0.00    +0.025 A 
ATOM     27  C   LIG    1        2.000   6.386   1.240  0.00  0.00    -0.007 A 
ATOM     28  C   LIG    1        1.970   5.813   2.634  0.00  0.00    +0.047 C 
ATOM     29  C   LIG    1        2.132   5.541   0.145  0.00  0.00    +0.136 A 
BRANCH  25  30
ATOM     30  C   LIG    1        1.817   9.691  -0.436  0.00  0.00    +0.099 C 
ATOM     31  N   LIG    1        1.731  10.813  -0.594  0.00  0.00    -0.191 NA
ENDBRANCH  25  30
ENDBRANCH  21  29
ENDBRANCH   1  21
TORSDOF 7
