REMARK  Name = ZINC00642079
REMARK                            x       y       z     vdW  Elec       q    Type
REMARK                         _______ _______ _______ _____ _____    ______ ____
ROOT
ATOM      1  C   LIG    1        2.385   1.420  -0.013  0.00  0.00    +0.001 A 
ATOM      2  C   LIG    1        1.177   2.090   0.002  0.00  0.00    +0.001 A 
ATOM      3  C   LIG    1       -0.017   1.386   0.010  0.00  0.00    +0.012 A 
ATOM      4  C   LIG    1        0.002  -0.004   0.002  0.00  0.00    +0.036 A 
ATOM      5  C   LIG    1        1.232  -0.686  -0.013  0.00  0.00    +0.029 A 
ATOM      6  C   LIG    1        1.243  -2.167  -0.022  0.00  0.00    +0.174 C 
ATOM      7  O   LIG    1        2.300  -2.767  -0.036  0.00  0.00    -0.291 OA
ATOM      8  C   LIG    1       -0.022  -2.908  -0.014  0.00  0.00    +0.134 C 
ATOM      9  C   LIG    1       -1.205  -2.260   0.001  0.00  0.00    +0.213 C 
ATOM     10  O   LIG    1       -2.357  -2.971   0.008  0.00  0.00    -0.288 OA
ATOM     11  C   LIG    1       -1.257  -0.779   0.009  0.00  0.00    +0.229 C 
ATOM     12  O   LIG    1       -2.327  -0.206   0.023  0.00  0.00    -0.284 OA
ATOM     13  C   LIG    1        2.419   0.034  -0.021  0.00  0.00    +0.012 A 
ENDROOT
BRANCH   8  14
ATOM     14  C   LIG    1        0.001  -4.415  -0.023  0.00  0.00    +0.019 C 
BRANCH  14  15
ATOM     15  C   LIG    1        0.120  -4.915  -1.464  0.00  0.00    +0.001 C 
BRANCH  15  16
ATOM     16  C   LIG    1        0.143  -6.444  -1.473  0.00  0.00    +0.003 C 
BRANCH  16  17
ATOM     17  C   LIG    1        0.263  -6.944  -2.914  0.00  0.00    -0.011 C 
ATOM     18  C   LIG    1       -0.993  -6.553  -3.696  0.00  0.00    +0.004 C 
ATOM     19  C   LIG    1       -0.873  -7.053  -5.137  0.00  0.00    +0.004 C 
ATOM     20  C   LIG    1       -0.726  -8.576  -5.138  0.00  0.00    -0.008 C 
ATOM     21  C   LIG    1       -0.606  -9.076  -6.579  0.00  0.00    +0.004 C 
ATOM     22  C   LIG    1       -0.458 -10.599  -6.580  0.00  0.00    +0.000 C 
ATOM     23  C   LIG    1        0.798 -10.989  -5.799  0.00  0.00    +0.000 C 
ATOM     24  C   LIG    1        0.678 -10.490  -4.357  0.00  0.00    +0.004 C 
ATOM     25  C   LIG    1        0.530  -8.967  -4.356  0.00  0.00    -0.008 C 
ATOM     26  C   LIG    1        0.411  -8.467  -2.915  0.00  0.00    +0.007 C 
ENDBRANCH  16  17
ENDBRANCH  15  16
ENDBRANCH  14  15
ENDBRANCH   8  14
TORSDOF 4
