REMARK  Name = ZINC00464036
REMARK                            x       y       z     vdW  Elec       q    Type
REMARK                         _______ _______ _______ _____ _____    ______ ____
ROOT
ATOM      1  C   LIG    1        3.132  -5.631  -1.546  0.00  0.00    -0.046 A 
ATOM      2  C   LIG    1        4.318  -6.131  -1.042  0.00  0.00    +0.005 A 
ATOM      3  C   LIG    1        4.597  -7.481  -1.141  0.00  0.00    +0.029 A 
ATOM      4  C   LIG    1        3.689  -8.332  -1.743  0.00  0.00    +0.105 A 
ATOM      5  C   LIG    1        2.503  -7.833  -2.246  0.00  0.00    +0.029 A 
ATOM      6  C   LIG    1        2.222  -6.483  -2.143  0.00  0.00    +0.005 A 
ENDROOT
BRANCH   4   7
ATOM      7  S   LIG    1        4.046 -10.053  -1.871  0.00  0.00    +0.056 S 
ATOM      8  O   LIG    1        5.460 -10.180  -1.812  0.00  0.00    -0.153 OA
ATOM      9  O   LIG    1        3.281 -10.546  -2.962  0.00  0.00    -0.153 OA
BRANCH   7  10
ATOM     10  N   LIG    1        3.449 -10.779  -0.507  0.00  0.00    -0.204 NA
ATOM     11  H   LIG    1        3.545 -11.736  -0.386  0.00  0.00    +0.144 HD
ATOM     12  H   LIG    1        3.002 -10.246   0.170  0.00  0.00    +0.144 HD
ENDBRANCH   7  10
ENDBRANCH   4   7
BRANCH   1  13
ATOM     13  C   LIG    1        2.827  -4.159  -1.438  0.00  0.00    +0.054 C 
BRANCH  13  14
ATOM     14  C   LIG    1        2.095  -3.885  -0.123  0.00  0.00    +0.109 C 
BRANCH  14  16
ATOM     15  C   LIG    1        1.153  -1.977   1.065  0.00  0.00    +0.216 C 
ATOM     16  N   LIG    1        1.799  -2.454  -0.018  0.00  0.00    -0.315 N 
ATOM     17  H   LIG    1        2.068  -1.850  -0.727  0.00  0.00    +0.149 HD
ATOM     18  O   LIG    1        0.817  -2.733   1.952  0.00  0.00    -0.276 OA
BRANCH  15  19
ATOM     19  C   LIG    1        0.849  -0.505   1.173  0.00  0.00    +0.074 C 
BRANCH  19  21
ATOM     20  C   LIG    1       -0.225   1.438   0.027  0.00  0.00    +0.004 C 
ATOM     21  C   LIG    1       -0.034  -0.079  -0.002  0.00  0.00    +0.009 C 
ENDBRANCH  19  21
BRANCH  19  22
ATOM     22  C   LIG    1        0.116  -0.231   2.488  0.00  0.00    +0.009 C 
ATOM     23  C   LIG    1        1.057  -0.504   3.663  0.00  0.00    +0.004 C 
ENDBRANCH  19  22
ENDBRANCH  15  19
ENDBRANCH  14  16
ENDBRANCH  13  14
ENDBRANCH   1  13
TORSDOF 8
