REMARK  Name = ZINC00597557
REMARK                            x       y       z     vdW  Elec       q    Type
REMARK                         _______ _______ _______ _____ _____    ______ ____
ROOT
ATOM      1  C   LIG    1        2.545   3.678  -0.024  0.00  0.00    +0.142 C 
ATOM      2  C   LIG    1        3.408   2.483  -0.483  0.00  0.00    +0.051 C 
ATOM      3  C   LIG    1        2.573   1.272  -0.017  0.00  0.00    +0.039 C 
ATOM      4  C   LIG    1        1.143   1.767   0.018  0.00  0.00    -0.041 A 
ATOM      5  C   LIG    1       -0.049   1.062   0.052  0.00  0.00    +0.007 A 
ATOM      6  C   LIG    1       -1.255   1.734   0.075  0.00  0.00    +0.046 A 
ATOM      7  C   LIG    1       -1.273   3.121   0.078  0.00  0.00    +0.121 A 
ATOM      8  C   LIG    1       -0.080   3.826   0.045  0.00  0.00    +0.052 A 
ATOM      9  C   LIG    1        1.127   3.150   0.015  0.00  0.00    -0.003 A 
ENDROOT
BRANCH   1  10
ATOM     10  C   LIG    1        2.654   4.812  -1.010  0.00  0.00    +0.115 A 
ATOM     11  N   LIG    1        2.428   4.805  -2.303  0.00  0.00    -0.249 NA
ATOM     12  C   LIG    1        2.566   5.894  -3.030  0.00  0.00    +0.119 A 
ATOM     13  C   LIG    1        2.963   7.036  -2.413  0.00  0.00    +0.066 A 
ATOM     14  S   LIG    1        3.119   6.462  -0.728  0.00  0.00    -0.077 S 
ENDBRANCH   1  10
BRANCH   1  16
ATOM     15  C   LIG    1        2.928   3.080   2.266  0.00  0.00    +0.195 C 
ATOM     16  O   LIG    1        2.950   4.111   1.276  0.00  0.00    -0.365 OA
ENDBRANCH   1  16
BRANCH   7  17
ATOM     17  O   LIG    1       -2.458   3.787   0.108  0.00  0.00    -0.487 OA
BRANCH  17  18
ATOM     18  C   LIG    1       -3.647   2.995   0.142  0.00  0.00    +0.264 C 
BRANCH  18  19
ATOM     19  C   LIG    1       -4.852   3.899   0.172  0.00  0.00    -0.010 A 
ATOM     20  C   LIG    1       -5.433   4.307  -1.028  0.00  0.00    +0.007 A 
ATOM     21  C   LIG    1       -6.523   5.123  -1.036  0.00  0.00    +0.009 A 
ATOM     22  C   LIG    1       -7.072   5.562   0.181  0.00  0.00    -0.018 A 
ATOM     23  C   LIG    1       -8.197   6.404   0.212  0.00  0.00    +0.008 A 
ATOM     24  C   LIG    1       -8.701   6.809   1.410  0.00  0.00    +0.001 A 
ATOM     25  C   LIG    1       -8.120   6.401   2.609  0.00  0.00    +0.001 A 
ATOM     26  C   LIG    1       -7.030   5.586   2.617  0.00  0.00    +0.008 A 
ATOM     27  C   LIG    1       -6.480   5.147   1.400  0.00  0.00    -0.018 A 
ATOM     28  C   LIG    1       -5.360   4.300   1.369  0.00  0.00    +0.015 A 
ENDBRANCH  18  19
ENDBRANCH  17  18
ENDBRANCH   7  17
TORSDOF 5
