REMARK  Name = ZINC00608300
REMARK                            x       y       z     vdW  Elec       q    Type
REMARK                         _______ _______ _______ _____ _____    ______ ____
ROOT
ATOM      1  N   LIG    1       -2.902  -4.060   0.214  0.00  0.00    -0.304 NA
ATOM      2  C   LIG    1       -2.760  -4.822  -0.863  0.00  0.00    +0.084 C 
ATOM      3  C   LIG    1       -2.755  -6.180  -0.788  0.00  0.00    +0.019 C 
ATOM      4  C   LIG    1       -2.907  -6.789   0.474  0.00  0.00    -0.001 C 
ATOM      5  C   LIG    1       -2.913  -8.179   0.626  0.00  0.00    +0.010 C 
ATOM      6  C   LIG    1       -2.754  -9.072  -0.578  0.00  0.00    +0.009 C 
ATOM      7  C   LIG    1       -3.065  -8.731   1.883  0.00  0.00    +0.081 C 
ATOM      8  C   LIG    1       -3.215  -7.894   3.012  0.00  0.00    +0.044 C 
ATOM      9  C   LIG    1       -3.352  -8.790   4.178  0.00  0.00    -0.018 A 
ATOM     10  C   LIG    1       -3.525  -8.563   5.541  0.00  0.00    +0.051 A 
ATOM     11  C   LIG    1       -3.623  -9.636   6.409  0.00  0.00    +0.117 A 
ATOM     12  C   LIG    1       -3.548 -10.935   5.921  0.00  0.00    +0.047 A 
ATOM     13  C   LIG    1       -3.377 -11.168   4.573  0.00  0.00    +0.027 A 
ATOM     14  C   LIG    1       -3.277 -10.100   3.687  0.00  0.00    +0.031 A 
ATOM     15  C   LIG    1       -3.213  -6.518   2.879  0.00  0.00    -0.000 C 
ATOM     16  C   LIG    1       -3.373  -5.638   4.092  0.00  0.00    +0.008 C 
ATOM     17  N   LIG    1       -3.105 -10.047   2.312  0.00  0.00    -0.340 N 
ATOM     18  H   LIG    1       -3.025 -10.821   1.733  0.00  0.00    +0.146 HD
ATOM     19  C   LIG    1       -3.058  -5.948   1.610  0.00  0.00    +0.010 C 
ATOM     20  C   LIG    1       -3.043  -4.555   1.421  0.00  0.00    +0.088 C 
ENDROOT
BRANCH  11  21
ATOM     21  O   LIG    1       -3.792  -9.419   7.740  0.00  0.00    -0.507 OA
ATOM     22  H   LIG    1       -4.718  -9.365   8.016  0.00  0.00    +0.292 HD
ENDBRANCH  11  21
BRANCH   1  23
ATOM     23  C   LIG    1       -2.896  -2.604   0.049  0.00  0.00    +0.066 C 
BRANCH  23  24
ATOM     24  C   LIG    1       -1.461  -2.084   0.165  0.00  0.00    -0.063 C 
BRANCH  24  25
ATOM     25  N   LIG    1       -1.440  -0.642  -0.112  0.00  0.00    +0.380 N 
ATOM     26  H   LIG    1       -1.863  -0.465  -1.011  0.00  0.00    -0.082 HD
BRANCH  25  28
ATOM     27  C   LIG    1       -2.274   1.555   0.577  0.00  0.00    -0.017 C 
ATOM     28  C   LIG    1       -2.191   0.069   0.931  0.00  0.00    -0.082 C 
ENDBRANCH  25  28
BRANCH  25  29
ATOM     29  C   LIG    1       -0.050  -0.166  -0.125  0.00  0.00    -0.082 C 
ATOM     30  C   LIG    1        0.691  -0.786  -1.311  0.00  0.00    -0.017 C 
ENDBRANCH  25  29
ENDBRANCH  24  25
ENDBRANCH  23  24
ENDBRANCH   1  23
TORSDOF 6
