REMARK  Name = ZINC00389752
REMARK                            x       y       z     vdW  Elec       q    Type
REMARK                         _______ _______ _______ _____ _____    ______ ____
ROOT
ATOM      1  C   LIG    1        0.002  -0.004   0.002  0.00  0.00    +0.000 A 
ATOM      2  C   LIG    1       -0.017   1.379   0.010  0.00  0.00    +0.001 A 
ATOM      3  C   LIG    1        1.167   2.088   0.002  0.00  0.00    +0.013 A 
ATOM      4  C   LIG    1        2.385   1.407  -0.014  0.00  0.00    +0.038 A 
ATOM      5  C   LIG    1        2.397   0.012  -0.021  0.00  0.00    +0.013 A 
ATOM      6  C   LIG    1        1.206  -0.685  -0.013  0.00  0.00    +0.001 A 
ENDROOT
BRANCH   4   7
ATOM      7  C   LIG    1        3.657   2.161  -0.023  0.00  0.00    +0.239 A 
ATOM      8  N   LIG    1        4.795   1.522  -0.033  0.00  0.00    -0.167 NA
ATOM      9  S   LIG    1        5.943   2.791  -0.042  0.00  0.00    +0.098 S 
ATOM     10  C   LIG    1        4.836   4.127  -0.024  0.00  0.00    +0.397 A 
ATOM     11  O   LIG    1        5.071   5.321  -0.020  0.00  0.00    -0.235 OA
ATOM     12  O   LIG    1        3.644   3.490  -0.016  0.00  0.00    -0.397 OA
ENDBRANCH   4   7
TORSDOF 1
