REMARK  Name = ZINC00598360
REMARK                            x       y       z     vdW  Elec       q    Type
REMARK                         _______ _______ _______ _____ _____    ______ ____
ROOT
ATOM      1  C   LIG    1       -0.416   1.462   0.087  0.00  0.00    +0.066 C 
ATOM      2  C   LIG    1       -0.190  -0.027   0.039  0.00  0.00    +0.049 C 
ATOM      3  C   LIG    1       -1.275  -0.856   0.005  0.00  0.00    +0.069 C 
ATOM      4  C   LIG    1       -1.016  -2.350  -0.043  0.00  0.00    +0.096 C 
ATOM      5  C   LIG    1        0.443  -2.769  -0.050  0.00  0.00    +0.065 C 
ATOM      6  C   LIG    1        1.397  -1.751  -0.011  0.00  0.00    +0.049 C 
ATOM      7  C   LIG    1        2.860  -2.114  -0.015  0.00  0.00    +0.066 C 
ATOM      8  C   LIG    1        0.810  -4.097  -0.093  0.00  0.00    +0.285 C 
ATOM      9  N   LIG    1        1.053  -0.484   0.025  0.00  0.00    -0.256 NA
ENDROOT
BRANCH   4  10
ATOM     10  C   LIG    1       -1.678  -2.982   1.154  0.00  0.00    -0.033 A 
ATOM     11  C   LIG    1       -1.311  -2.597   2.430  0.00  0.00    +0.005 A 
ATOM     12  C   LIG    1       -1.918  -3.177   3.529  0.00  0.00    +0.003 A 
ATOM     13  C   LIG    1       -2.893  -4.141   3.351  0.00  0.00    +0.032 A 
ATOM     14  C   LIG    1       -3.260  -4.525   2.075  0.00  0.00    +0.122 A 
ATOM     15  C   LIG    1       -2.656  -3.943   0.977  0.00  0.00    +0.037 A 
BRANCH  14  16
ATOM     16  N   LIG    1       -4.303  -5.558   1.885  0.00  0.00    +0.006 N 
ATOM     17  O   LIG    1       -4.834  -6.066   2.846  0.00  0.00    -0.130 OA
BRANCH  16  18
ATOM     18  O   LIG    1       -4.625  -5.894   0.769  0.00  0.00    -0.396 OA
ATOM     19  H   LIG    1       -4.214  -5.501   0.025  0.00  0.00    +0.329 HD
ENDBRANCH  16  18
ENDBRANCH  14  16
ENDBRANCH   4  10
BRANCH   3  20
ATOM     20  C   LIG    1       -2.584  -0.343   0.016  0.00  0.00    +0.338 C 
ATOM     21  O   LIG    1       -2.767   0.860   0.056  0.00  0.00    -0.245 OA
BRANCH  20  22
ATOM     22  O   LIG    1       -3.640  -1.185  -0.017  0.00  0.00    -0.457 OA
BRANCH  22  23
ATOM     23  C   LIG    1       -4.941  -0.595  -0.004  0.00  0.00    +0.192 C 
ATOM     24  C   LIG    1       -5.466  -0.487   1.446  0.00  0.00    +0.061 C 
ATOM     25  C   LIG    1       -6.967  -0.842   1.299  0.00  0.00    +0.088 C 
ATOM     26  N   LIG    1       -6.964  -1.911   0.268  0.00  0.00    -0.295 NA
ATOM     27  C   LIG    1       -5.948  -1.505  -0.731  0.00  0.00    +0.129 C 
BRANCH  26  28
ATOM     28  C   LIG    1       -8.288  -2.047  -0.354  0.00  0.00    +0.119 C 
BRANCH  28  29
ATOM     29  C   LIG    1       -9.254  -2.629   0.644  0.00  0.00    -0.033 A 
ATOM     30  C   LIG    1       -9.408  -3.999   0.740  0.00  0.00    +0.005 A 
ATOM     31  C   LIG    1      -10.295  -4.534   1.655  0.00  0.00    +0.000 A 
ATOM     32  C   LIG    1      -11.028  -3.697   2.477  0.00  0.00    +0.000 A 
ATOM     33  C   LIG    1      -10.873  -2.327   2.382  0.00  0.00    +0.000 A 
ATOM     34  C   LIG    1       -9.983  -1.793   1.470  0.00  0.00    +0.005 A 
ENDBRANCH  28  29
ENDBRANCH  26  28
ENDBRANCH  22  23
ENDBRANCH  20  22
ENDBRANCH   3  20
BRANCH   8  35
ATOM     35  O   LIG    1        2.109  -4.433  -0.215  0.00  0.00    -0.467 OA
ATOM     36  C   LIG    1        2.418  -5.828  -0.253  0.00  0.00    +0.280 C 
ENDBRANCH   8  35
BRANCH   8  37
ATOM     37  O   LIG    1       -0.130  -5.059  -0.013  0.00  0.00    -0.480 OA
ATOM     38  H   LIG    1       -1.034  -4.825   0.072  0.00  0.00    +0.295 HD
ENDBRANCH   8  37
TORSDOF 10
