REMARK  Name = ZINC00575916
REMARK                            x       y       z     vdW  Elec       q    Type
REMARK                         _______ _______ _______ _____ _____    ______ ____
ROOT
ATOM      1  S   LIG    1        5.179   0.292  -0.048  0.00  0.00    +0.073 S 
ATOM      2  O   LIG    1        6.227  -0.667  -0.089  0.00  0.00    -0.150 OA
ATOM      3  O   LIG    1        5.077   1.264   0.984  0.00  0.00    -0.150 OA
ENDROOT
BRANCH   1  12
ATOM      4  C   LIG    1       -0.016   1.357   0.009  0.00  0.00    +0.001 A 
ATOM      5  C   LIG    1        1.169   2.091   0.002  0.00  0.00    +0.001 A 
ATOM      6  C   LIG    1        2.378   1.468  -0.013  0.00  0.00    +0.010 A 
ATOM      7  C   LIG    1        2.438   0.064  -0.021  0.00  0.00    +0.009 A 
ATOM      8  C   LIG    1        1.233  -0.683  -0.013  0.00  0.00    -0.016 A 
ATOM      9  C   LIG    1        1.292  -2.087  -0.021  0.00  0.00    +0.008 A 
ATOM     10  C   LIG    1        2.502  -2.709  -0.036  0.00  0.00    +0.003 A 
ATOM     11  C   LIG    1        3.687  -1.976  -0.043  0.00  0.00    +0.029 A 
ATOM     12  C   LIG    1        3.668  -0.615  -0.037  0.00  0.00    +0.116 A 
ATOM     13  C   LIG    1        0.002  -0.004   0.002  0.00  0.00    +0.008 A 
ENDBRANCH   1  12
BRANCH   1  14
ATOM     14  N   LIG    1        5.241   1.124  -1.478  0.00  0.00    -0.215 N 
ATOM     15  H   LIG    1        4.504   1.044  -2.126  0.00  0.00    +0.174 HD
BRANCH  14  16
ATOM     16  C   LIG    1        6.331   1.932  -1.764  0.00  0.00    +0.062 A 
ATOM     17  C   LIG    1        7.377   2.043  -0.855  0.00  0.00    +0.025 A 
ATOM     18  C   LIG    1        8.460   2.847  -1.141  0.00  0.00    +0.002 A 
ATOM     19  C   LIG    1        8.516   3.551  -2.334  0.00  0.00    +0.001 A 
ATOM     20  C   LIG    1        7.491   3.456  -3.248  0.00  0.00    +0.017 A 
ATOM     21  C   LIG    1        6.388   2.640  -2.976  0.00  0.00    +0.081 A 
BRANCH  21  22
ATOM     22  C   LIG    1        5.292   2.529  -3.950  0.00  0.00    +0.339 C 
ATOM     23  O   LIG    1        5.345   3.147  -5.005  0.00  0.00    -0.245 OA
BRANCH  22  24
ATOM     24  O   LIG    1        4.326   1.818  -3.706  0.00  0.00    -0.477 OA
ATOM     25  H   LIG    1        4.285   1.345  -2.898  0.00  0.00    +0.295 HD
ENDBRANCH  22  24
ENDBRANCH  21  22
ENDBRANCH  14  16
ENDBRANCH   1  14
TORSDOF 5
