REMARK  Name = ZINC00598412
REMARK                            x       y       z     vdW  Elec       q    Type
REMARK                         _______ _______ _______ _____ _____    ______ ____
ROOT
ATOM      1  C   LIG    1       -2.816   0.706   0.233  0.00  0.00    -0.095 C 
ATOM      2  N   LIG    1       -2.134   1.961  -0.223  0.00  0.00    +0.382 N 
ATOM      3  H   LIG    1       -2.718   2.426  -0.928  0.00  0.00    -0.081 HD
ATOM      4  C   LIG    1       -0.818   1.665  -0.779  0.00  0.00    -0.054 C 
ATOM      5  C   LIG    1       -0.347   2.940  -1.497  0.00  0.00    +0.092 C 
ATOM      6  C   LIG    1       -0.200   4.063  -0.466  0.00  0.00    +0.030 C 
ATOM      7  C   LIG    1       -1.507   4.221   0.316  0.00  0.00    -0.007 C 
ATOM      8  C   LIG    1        0.069   1.472   0.472  0.00  0.00    -0.016 C 
ATOM      9  C   LIG    1       -0.643   2.261   1.590  0.00  0.00    -0.017 C 
ATOM     10  C   LIG    1       -1.899   2.859   0.911  0.00  0.00    -0.068 C 
ENDROOT
BRANCH   6  11
ATOM     11  C   LIG    1        0.917   3.724   0.487  0.00  0.00    -0.044 A 
ATOM     12  C   LIG    1        0.876   4.183   1.790  0.00  0.00    +0.005 A 
ATOM     13  C   LIG    1        1.898   3.867   2.667  0.00  0.00    +0.014 A 
ATOM     14  C   LIG    1        2.966   3.101   2.236  0.00  0.00    +0.013 A 
ATOM     15  I   LIG    1        4.518   2.629   3.561  0.00  0.00    -0.044 I 
ATOM     16  C   LIG    1        3.009   2.647   0.930  0.00  0.00    +0.014 A 
ATOM     17  C   LIG    1        1.984   2.959   0.056  0.00  0.00    +0.005 A 
ENDBRANCH   6  11
BRANCH   5  18
ATOM     18  C   LIG    1        0.982   2.685  -2.159  0.00  0.00    +0.309 C 
ATOM     19  O   LIG    1        1.359   1.552  -2.341  0.00  0.00    -0.251 OA
BRANCH  18  20
ATOM     20  O   LIG    1        1.747   3.717  -2.547  0.00  0.00    -0.468 OA
ATOM     21  C   LIG    1        3.015   3.397  -3.178  0.00  0.00    +0.280 C 
ENDBRANCH  18  20
ENDBRANCH   5  18
TORSDOF 3
