REMARK  Name = ZINC00476927
REMARK                            x       y       z     vdW  Elec       q    Type
REMARK                         _______ _______ _______ _____ _____    ______ ____
ROOT
ATOM      1  C   LIG    1       -2.007   2.510   3.487  0.00  0.00    +0.284 C 
ATOM      2  N   LIG    1       -2.539   3.016   4.617  0.00  0.00    -0.175 N 
ATOM      3  C   LIG    1       -3.021   2.301   5.695  0.00  0.00    +0.098 A 
ATOM      4  C   LIG    1       -3.125   0.947   5.985  0.00  0.00    +0.030 A 
ATOM      5  C   LIG    1       -3.671   0.546   7.186  0.00  0.00    +0.002 A 
ATOM      6  C   LIG    1       -4.116   1.487   8.104  0.00  0.00    +0.002 A 
ATOM      7  C   LIG    1       -4.022   2.822   7.837  0.00  0.00    +0.032 A 
ATOM      8  C   LIG    1       -3.471   3.254   6.624  0.00  0.00    +0.113 A 
ATOM      9  N   LIG    1       -3.253   4.480   6.091  0.00  0.00    -0.129 NA
ATOM     10  N   LIG    1       -2.708   4.373   4.931  0.00  0.00    -0.057 NA
ATOM     11  O   LIG    1       -1.999   1.309   3.304  0.00  0.00    -0.265 OA
ENDROOT
BRANCH   1  17
ATOM     12  C   LIG    1       -0.764   2.889   1.359  0.00  0.00    +0.132 A 
ATOM     13  C   LIG    1       -0.233   3.749   0.409  0.00  0.00    +0.046 A 
ATOM     14  C   LIG    1       -0.359   5.115   0.565  0.00  0.00    +0.004 A 
ATOM     15  C   LIG    1       -1.016   5.638   1.668  0.00  0.00    +0.001 A 
ATOM     16  C   LIG    1       -1.548   4.799   2.622  0.00  0.00    +0.017 A 
ATOM     17  C   LIG    1       -1.433   3.414   2.474  0.00  0.00    +0.083 A 
BRANCH  12  19
ATOM     18  C   LIG    1        0.049   1.086   0.044  0.00  0.00    +0.277 C 
ATOM     19  O   LIG    1       -0.640   1.547   1.208  0.00  0.00    -0.494 OA
ENDBRANCH  12  19
ENDBRANCH   1  17
TORSDOF 2
