REMARK  Name = ZINC00597385
REMARK                            x       y       z     vdW  Elec       q    Type
REMARK                         _______ _______ _______ _____ _____    ______ ____
ROOT
ATOM      1  C   LIG    1       -1.245   3.142   0.029  0.00  0.00    +0.039 A 
ATOM      2  C   LIG    1       -0.066   3.858   0.022  0.00  0.00    +0.016 A 
ATOM      3  C   LIG    1        1.153   3.182   0.008  0.00  0.00    +0.042 A 
ATOM      4  C   LIG    1        1.165   1.780   0.001  0.00  0.00    -0.008 A 
ATOM      5  C   LIG    1        2.505   1.099  -0.016  0.00  0.00    +0.157 C 
ATOM      6  C   LIG    1        3.745   1.953  -0.016  0.00  0.00    +0.242 C 
ATOM      7  N   LIG    1        3.619   3.295  -0.008  0.00  0.00    -0.233 N 
ATOM      8  O   LIG    1        4.843   1.439  -0.023  0.00  0.00    -0.274 OA
ATOM      9  C   LIG    1        2.560   0.182  -1.246  0.00  0.00    +0.126 C 
ATOM     10  C   LIG    1        2.659  -1.204  -0.642  0.00  0.00    +0.221 C 
ATOM     11  N   LIG    1        2.661  -1.103   0.694  0.00  0.00    -0.255 N 
ATOM     12  H   LIG    1        2.717  -1.874   1.279  0.00  0.00    +0.158 HD
ATOM     13  O   LIG    1        2.728  -2.240  -1.268  0.00  0.00    -0.275 OA
ATOM     14  C   LIG    1        2.577   0.154   1.154  0.00  0.00    +0.239 C 
ATOM     15  O   LIG    1        2.563   0.477   2.323  0.00  0.00    -0.274 OA
ATOM     16  C   LIG    1       -0.013   1.076   0.008  0.00  0.00    +0.044 A 
ATOM     17  C   LIG    1        2.431   3.914   0.002  0.00  0.00    +0.253 C 
ATOM     18  O   LIG    1        2.407   5.129   0.005  0.00  0.00    -0.270 OA
ATOM     19  C   LIG    1       -1.224   1.756   0.017  0.00  0.00    +0.124 A 
ATOM     20  F   LIG    1       -2.384   1.065   0.019  0.00  0.00    -0.205 F 
ENDROOT
BRANCH   7  21
ATOM     21  C   LIG    1        4.835   4.112  -0.010  0.00  0.00    +0.154 C 
BRANCH  21  22
ATOM     22  C   LIG    1        5.245   4.400  -1.431  0.00  0.00    +0.006 A 
ATOM     23  C   LIG    1        5.030   5.654  -1.972  0.00  0.00    +0.009 A 
ATOM     24  C   LIG    1        5.407   5.919  -3.275  0.00  0.00    +0.016 A 
ATOM     25  C   LIG    1        5.997   4.930  -4.040  0.00  0.00    +0.021 A 
ATOM     26 BR   LIG    1        6.512   5.294  -5.823  0.00  0.00    -0.050 Br
ATOM     27  C   LIG    1        6.212   3.675  -3.502  0.00  0.00    +0.054 A 
ATOM     28  C   LIG    1        5.841   3.410  -2.194  0.00  0.00    +0.129 A 
ATOM     29  F   LIG    1        6.055   2.186  -1.665  0.00  0.00    -0.205 F 
ENDBRANCH  21  22
ENDBRANCH   7  21
TORSDOF 2
