REMARK  Name = ZINC00403052
REMARK                            x       y       z     vdW  Elec       q    Type
REMARK                         _______ _______ _______ _____ _____    ______ ____
ROOT
ATOM      1  C   LIG    1       -1.296  -0.769   0.011  0.00  0.00    +0.067 C 
ATOM      2  C   LIG    1        0.002  -0.004   0.002  0.00  0.00    +0.057 A 
ATOM      3  C   LIG    1        1.210  -0.695  -0.013  0.00  0.00    +0.136 A 
ATOM      4  N   LIG    1        2.357  -0.044  -0.020  0.00  0.00    -0.232 NA
ATOM      5  C   LIG    1        2.359   1.289  -0.013  0.00  0.00    +0.187 A 
ATOM      6  C   LIG    1        1.128   1.984   0.002  0.00  0.00    +0.172 A 
ATOM      7  C   LIG    1        1.164   3.457   0.009  0.00  0.00    +0.280 A 
ATOM      8  N   LIG    1        2.379   4.052   0.000  0.00  0.00    -0.293 N 
ATOM      9  C   LIG    1        3.517   3.300  -0.015  0.00  0.00    +0.195 A 
ATOM     10  H   LIG    1        2.454   5.150   0.005  0.00  0.00    +0.172 HD
ATOM     11  O   LIG    1        0.140   4.113   0.022  0.00  0.00    -0.265 OA
ATOM     12  N   LIG    1        3.508   1.990  -0.019  0.00  0.00    -0.195 NA
ATOM     13  N   LIG    1       -0.016   1.314   0.009  0.00  0.00    -0.242 NA
ENDROOT
BRANCH   9  14
ATOM     14  N   LIG    1        4.726   3.945  -0.024  0.00  0.00    -0.329 N 
ATOM     15  H   LIG    1        4.763   5.045  -0.019  0.00  0.00    +0.145 HD
ATOM     16  H   LIG    1        5.660   3.364  -0.036  0.00  0.00    +0.145 HD
ENDBRANCH   9  14
TORSDOF 1
