REMARK  Name = ZINC00469853
REMARK                            x       y       z     vdW  Elec       q    Type
REMARK                         _______ _______ _______ _____ _____    ______ ____
ROOT
ATOM      1  S   LIG    1        1.332  -4.363  -2.299  0.00  0.00    +0.076 S 
ATOM      2  O   LIG    1        0.653  -4.855  -1.152  0.00  0.00    -0.150 OA
ATOM      3  O   LIG    1        2.680  -4.706  -2.592  0.00  0.00    -0.150 OA
ENDROOT
BRANCH   1   8
ATOM      4  C   LIG    1        0.606  -0.608  -1.056  0.00  0.00    +0.122 A 
ATOM      5  C   LIG    1        1.173   0.161  -2.062  0.00  0.00    +0.049 A 
ATOM      6  C   LIG    1        1.786  -0.452  -3.138  0.00  0.00    +0.051 A 
ATOM      7  C   LIG    1        1.835  -1.836  -3.211  0.00  0.00    +0.147 A 
ATOM      8  C   LIG    1        1.269  -2.604  -2.205  0.00  0.00    +0.153 A 
ATOM      9  C   LIG    1        0.661  -1.991  -1.127  0.00  0.00    +0.078 A 
BRANCH   4  11
ATOM     10  C   LIG    1       -0.017   1.425   0.010  0.00  0.00    +0.277 C 
ATOM     11  O   LIG    1        0.002  -0.004   0.002  0.00  0.00    -0.495 OA
ENDBRANCH   4  11
BRANCH   7  12
ATOM     12  O   LIG    1        2.439  -2.439  -4.270  0.00  0.00    -0.493 OA
ATOM     13  C   LIG    1        3.000  -1.586  -5.269  0.00  0.00    +0.277 C 
ENDBRANCH   7  12
ENDBRANCH   1   8
BRANCH   1  14
ATOM     14  N   LIG    1        0.431  -4.816  -3.612  0.00  0.00    -0.215 N 
ATOM     15  H   LIG    1       -0.379  -5.335  -3.490  0.00  0.00    +0.174 HD
BRANCH  14  16
ATOM     16  C   LIG    1        0.839  -4.450  -4.898  0.00  0.00    +0.066 A 
ATOM     17  C   LIG    1       -0.081  -3.939  -5.812  0.00  0.00    +0.027 A 
ATOM     18  C   LIG    1        0.371  -3.591  -7.074  0.00  0.00    +0.022 A 
ATOM     19  C   LIG    1        1.708  -3.761  -7.384  0.00  0.00    +0.111 A 
ATOM     20  N   LIG    1        2.553  -4.247  -6.496  0.00  0.00    -0.261 NA
ATOM     21  C   LIG    1        2.166  -4.586  -5.282  0.00  0.00    +0.135 A 
ENDBRANCH  14  16
ENDBRANCH   1  14
TORSDOF 5
