REMARK  Name = ZINC00488399
REMARK                            x       y       z     vdW  Elec       q    Type
REMARK                         _______ _______ _______ _____ _____    ______ ____
ROOT
ATOM      1  C   LIG    1        3.454   2.390  -0.017  0.00  0.00    -0.021 A 
ATOM      2  C   LIG    1        2.848   3.587  -0.004  0.00  0.00    +0.087 A 
ATOM      3  N   LIG    1        1.490   3.423   0.007  0.00  0.00    -0.360 N 
ATOM      4  C   LIG    1        1.181   2.081   0.002  0.00  0.00    +0.047 A 
ATOM      5  C   LIG    1       -0.017   1.374   0.010  0.00  0.00    +0.028 A 
ATOM      6  C   LIG    1        0.002  -0.004   0.002  0.00  0.00    +0.034 A 
ATOM      7  C   LIG    1        1.205  -0.696  -0.013  0.00  0.00    +0.122 A 
ATOM      8  C   LIG    1        2.394  -0.021  -0.021  0.00  0.00    +0.042 A 
ATOM      9  H   LIG    1        0.841   4.144   0.017  0.00  0.00    +0.165 HD
ATOM     10  C   LIG    1        2.398   1.375  -0.013  0.00  0.00    +0.005 A 
ENDROOT
BRANCH   7  11
ATOM     11  N   LIG    1        1.201  -2.176  -0.021  0.00  0.00    +0.006 N 
ATOM     12  O   LIG    1        0.145  -2.782  -0.014  0.00  0.00    -0.130 OA
BRANCH  11  13
ATOM     13  O   LIG    1        2.254  -2.788  -0.034  0.00  0.00    -0.396 OA
ATOM     14  H   LIG    1        3.067  -2.321  -0.040  0.00  0.00    +0.329 HD
ENDBRANCH  11  13
ENDBRANCH   7  11
BRANCH   1  15
ATOM     15  C   LIG    1        4.940   2.137  -0.031  0.00  0.00    +0.056 C 
BRANCH  15  16
ATOM     16  C   LIG    1        5.409   1.936  -1.474  0.00  0.00    +0.109 C 
BRANCH  16  19
ATOM     17  C   LIG    1        8.976   1.231  -2.671  0.00  0.00    +0.109 C 
ATOM     18  C   LIG    1        7.491   1.484  -2.657  0.00  0.00    +0.210 C 
ATOM     19  N   LIG    1        6.854   1.690  -1.487  0.00  0.00    -0.315 N 
ATOM     20  H   LIG    1        7.351   1.677  -0.655  0.00  0.00    +0.149 HD
ATOM     21  O   LIG    1        6.868   1.500  -3.698  0.00  0.00    -0.276 OA
ENDBRANCH  16  19
ENDBRANCH  15  16
ENDBRANCH   1  15
TORSDOF 5
