REMARK  Name = ZINC00633299
REMARK                            x       y       z     vdW  Elec       q    Type
REMARK                         _______ _______ _______ _____ _____    ______ ____
ROOT
ATOM      1  N   LIG    1        3.582   2.123  -0.021  0.00  0.00    -0.327 N 
ATOM      2  C   LIG    1        3.587   3.591  -0.118  0.00  0.00    +0.120 C 
ATOM      3  C   LIG    1        4.462   4.150   1.009  0.00  0.00    +0.103 C 
ATOM      4  N   LIG    1        5.788   3.519   0.954  0.00  0.00    -0.299 NA
ATOM      5  C   LIG    1        5.699   2.072   1.186  0.00  0.00    +0.103 C 
ATOM      6  C   LIG    1        4.875   1.428   0.073  0.00  0.00    +0.120 C 
ENDROOT
BRANCH   1   9
ATOM      7  C   LIG    1        1.209  -0.683  -0.026  0.00  0.00    +0.003 A 
ATOM      8  C   LIG    1        2.397   0.021  -0.035  0.00  0.00    +0.023 A 
ATOM      9  C   LIG    1        2.381   1.409  -0.013  0.00  0.00    +0.031 A 
ATOM     10  C   LIG    1        1.169   2.087   0.017  0.00  0.00    +0.038 A 
ATOM     11  C   LIG    1       -0.017   1.377   0.026  0.00  0.00    +0.020 A 
ATOM     12 BR   LIG    1       -1.668   2.298   0.067  0.00  0.00    -0.050 Br
ATOM     13  C   LIG    1        0.003  -0.006   0.004  0.00  0.00    +0.015 A 
ENDBRANCH   1   9
BRANCH   4  14
ATOM     14  C   LIG    1        6.711   4.150   1.907  0.00  0.00    +0.086 C 
BRANCH  14  15
ATOM     15  C   LIG    1        8.132   3.645   1.650  0.00  0.00    +0.035 C 
BRANCH  15  16
ATOM     16  C   LIG    1        9.094   4.302   2.643  0.00  0.00    +0.119 C 
BRANCH  16  17
ATOM     17  N   LIG    1       10.455   3.819   2.397  0.00  0.00    -0.224 N 
ATOM     18  C   LIG    1       10.991   2.726   2.984  0.00  0.00    +0.244 C 
ATOM     19  C   LIG    1       12.345   2.554   2.342  0.00  0.00    +0.164 C 
ATOM     20  C   LIG    1       13.484   2.559   3.381  0.00  0.00    +0.033 C 
ATOM     21  C   LIG    1       14.661   3.165   2.573  0.00  0.00    +0.021 C 
ATOM     22  C   LIG    1       13.991   3.949   1.422  0.00  0.00    +0.110 C 
ATOM     23  N   LIG    1       12.536   3.845   1.628  0.00  0.00    -0.274 N 
ATOM     24  O   LIG    1       10.491   2.032   3.842  0.00  0.00    -0.273 OA
ATOM     25  C   LIG    1       11.323   4.402   1.557  0.00  0.00    +0.312 C 
ATOM     26  O   LIG    1       11.042   5.328   0.821  0.00  0.00    -0.252 OA
ENDBRANCH  16  17
ENDBRANCH  15  16
ENDBRANCH  14  15
ENDBRANCH   4  14
TORSDOF 5
