REMARK  Name = ZINC00596596
REMARK                            x       y       z     vdW  Elec       q    Type
REMARK                         _______ _______ _______ _____ _____    ______ ____
ROOT
ATOM      1  C   LIG    1        0.317  -2.393  -0.415  0.00  0.00    +0.066 C 
ATOM      2  C   LIG    1        1.371  -1.318  -0.471  0.00  0.00    +0.045 A 
ATOM      3  N   LIG    1        2.686  -1.492  -0.318  0.00  0.00    -0.345 N 
ATOM      4  H   LIG    1        3.146  -2.392  -0.140  0.00  0.00    +0.167 HD
ATOM      5  C   LIG    1        3.300  -0.336  -0.429  0.00  0.00    +0.115 A 
ATOM      6  N   LIG    1        2.399   0.629  -0.659  0.00  0.00    -0.212 N 
ATOM      7  N   LIG    1        2.480   2.010  -0.856  0.00  0.00    -0.151 NA
ATOM      8  C   LIG    1        1.422   2.721  -1.064  0.00  0.00    +0.135 A 
ATOM      9  N   LIG    1        0.161   2.180  -1.106  0.00  0.00    -0.307 N 
ATOM     10  H   LIG    1       -0.627   2.772  -1.270  0.00  0.00    +0.170 HD
ATOM     11  C   LIG    1       -0.023   0.852  -0.927  0.00  0.00    +0.277 A 
ATOM     12  O   LIG    1       -1.138   0.364  -0.963  0.00  0.00    -0.265 OA
ATOM     13  C   LIG    1        1.156   0.020  -0.690  0.00  0.00    +0.150 A 
ENDROOT
BRANCH   5  14
ATOM     14  C   LIG    1        4.788  -0.129  -0.316  0.00  0.00    +0.083 C 
BRANCH  14  15
ATOM     15  C   LIG    1        5.501  -0.947  -1.394  0.00  0.00    +0.122 C 
ATOM     16  C   LIG    1        4.974  -0.543  -2.773  0.00  0.00    +0.038 C 
BRANCH  15  17
ATOM     17  O   LIG    1        6.907  -0.699  -1.330  0.00  0.00    -0.391 OA
ATOM     18  H   LIG    1        7.323  -1.006  -0.512  0.00  0.00    +0.210 HD
ENDBRANCH  15  17
ENDBRANCH  14  15
BRANCH  14  19
ATOM     19  C   LIG    1        5.263  -0.583   1.066  0.00  0.00    +0.014 C 
BRANCH  19  20
ATOM     20  C   LIG    1        4.645   0.317   2.138  0.00  0.00    +0.005 C 
BRANCH  20  21
ATOM     21  C   LIG    1        5.212  -0.060   3.508  0.00  0.00    +0.035 C 
BRANCH  21  22
ATOM     22  C   LIG    1        4.604   0.826   4.565  0.00  0.00    -0.047 A 
ATOM     23  C   LIG    1        5.215   2.019   4.903  0.00  0.00    +0.003 A 
ATOM     24  C   LIG    1        4.654   2.834   5.868  0.00  0.00    +0.000 A 
ATOM     25  C   LIG    1        3.487   2.452   6.503  0.00  0.00    +0.000 A 
ATOM     26  C   LIG    1        2.879   1.256   6.169  0.00  0.00    +0.000 A 
ATOM     27  C   LIG    1        3.437   0.444   5.200  0.00  0.00    +0.003 A 
ENDBRANCH  21  22
ENDBRANCH  20  21
ENDBRANCH  19  20
ENDBRANCH  14  19
ENDBRANCH   5  14
BRANCH   8  28
ATOM     28  C   LIG    1        1.577   4.206  -1.269  0.00  0.00    +0.111 C 
BRANCH  28  29
ATOM     29  C   LIG    1        3.036   4.575  -1.182  0.00  0.00    -0.036 A 
ATOM     30  C   LIG    1        3.587   4.924   0.036  0.00  0.00    +0.008 A 
ATOM     31  C   LIG    1        4.926   5.258   0.122  0.00  0.00    +0.049 A 
ATOM     32  C   LIG    1        5.716   5.253  -1.016  0.00  0.00    +0.161 A 
ATOM     33  C   LIG    1        5.159   4.907  -2.244  0.00  0.00    +0.162 A 
ATOM     34  C   LIG    1        3.818   4.568  -2.322  0.00  0.00    +0.053 A 
BRANCH  32  35
ATOM     35  O   LIG    1        7.032   5.587  -0.934  0.00  0.00    -0.491 OA
ATOM     36  C   LIG    1        7.534   5.931   0.358  0.00  0.00    +0.277 C 
ENDBRANCH  32  35
BRANCH  33  37
ATOM     37  O   LIG    1        5.930   4.901  -3.364  0.00  0.00    -0.491 OA
ATOM     38  C   LIG    1        5.292   4.535  -4.589  0.00  0.00    +0.277 C 
ENDBRANCH  33  37
ENDBRANCH  28  29
ENDBRANCH   8  28
TORSDOF 11
