REMARK  Name = ZINC00639306
REMARK                            x       y       z     vdW  Elec       q    Type
REMARK                         _______ _______ _______ _____ _____    ______ ____
ROOT
ATOM      1  C   LIG    1        1.154   3.432  -0.082  0.00  0.00    +0.094 C 
ATOM      2  C   LIG    1        2.498   3.956  -0.510  0.00  0.00    +0.007 A 
ATOM      3  C   LIG    1        2.598   5.245  -1.003  0.00  0.00    +0.012 A 
ATOM      4  C   LIG    1        3.821   5.743  -1.406  0.00  0.00    +0.046 A 
ATOM      5  C   LIG    1        4.956   4.949  -1.317  0.00  0.00    +0.120 A 
ATOM      6  C   LIG    1        4.859   3.658  -0.825  0.00  0.00    +0.092 A 
ATOM      7  C   LIG    1        3.627   3.158  -0.420  0.00  0.00    +0.138 A 
ATOM      8  O   LIG    1        3.549   1.892   0.059  0.00  0.00    -0.441 OA
ATOM      9  C   LIG    1        2.366   1.259   0.089  0.00  0.00    +0.195 C 
ATOM     10  C   LIG    1        1.190   1.934   0.029  0.00  0.00    +0.105 C 
ENDROOT
BRANCH   1  14
ATOM     11  C   LIG    1        0.143   5.108   3.717  0.00  0.00    +0.121 A 
ATOM     12  C   LIG    1       -0.667   5.345   2.615  0.00  0.00    +0.046 A 
ATOM     13  C   LIG    1       -0.337   4.802   1.389  0.00  0.00    +0.008 A 
ATOM     14  C   LIG    1        0.797   4.023   1.258  0.00  0.00    -0.035 A 
ATOM     15  C   LIG    1        1.603   3.781   2.356  0.00  0.00    +0.008 A 
ATOM     16  C   LIG    1        1.281   4.326   3.583  0.00  0.00    +0.046 A 
BRANCH  11  17
ATOM     17  O   LIG    1       -0.179   5.640   4.925  0.00  0.00    -0.487 OA
BRANCH  17  18
ATOM     18  C   LIG    1        0.700   5.355   6.015  0.00  0.00    +0.264 C 
BRANCH  18  23
ATOM     19  C   LIG    1       -1.271   7.919  10.804  0.00  0.00    +0.044 C 
ATOM     20  C   LIG    1       -0.757   7.251   9.555  0.00  0.00    -0.050 A 
ATOM     21  C   LIG    1       -1.162   5.966   9.242  0.00  0.00    +0.004 A 
ATOM     22  C   LIG    1       -0.690   5.353   8.097  0.00  0.00    +0.007 A 
ATOM     23  C   LIG    1        0.186   6.024   7.264  0.00  0.00    -0.010 A 
ATOM     24  C   LIG    1        0.594   7.306   7.579  0.00  0.00    +0.007 A 
ATOM     25  C   LIG    1        0.119   7.921   8.723  0.00  0.00    +0.004 A 
ENDBRANCH  18  23
ENDBRANCH  17  18
ENDBRANCH  11  17
ENDBRANCH   1  14
BRANCH   9  26
ATOM     26  N   LIG    1        2.345  -0.107   0.184  0.00  0.00    -0.329 N 
ATOM     27  H   LIG    1        3.172  -0.596   0.321  0.00  0.00    +0.145 HD
ATOM     28  H   LIG    1        1.504  -0.585   0.115  0.00  0.00    +0.145 HD
ENDBRANCH   9  26
BRANCH   5  29
ATOM     29  O   LIG    1        6.161   5.437  -1.712  0.00  0.00    -0.507 OA
ATOM     30  H   LIG    1        6.364   5.278  -2.644  0.00  0.00    +0.292 HD
ENDBRANCH   5  29
BRANCH  10  31
ATOM     31  C   LIG    1       -0.016   1.218   0.065  0.00  0.00    +0.341 C 
ATOM     32  O   LIG    1       -0.637   1.020  -0.964  0.00  0.00    -0.245 OA
BRANCH  31  33
ATOM     33  O   LIG    1       -0.490   0.753   1.241  0.00  0.00    -0.465 OA
ATOM     34  C   LIG    1       -1.727   0.037   1.204  0.00  0.00    +0.280 C 
ENDBRANCH  31  33
ENDBRANCH  10  31
TORSDOF 8
