REMARK  Name = ZINC00597720
REMARK                            x       y       z     vdW  Elec       q    Type
REMARK                         _______ _______ _______ _____ _____    ______ ____
ROOT
ATOM      1  C   LIG    1       -1.903  -1.722   0.238  0.00  0.00    +0.047 A 
ATOM      2  C   LIG    1       -3.240  -2.104   0.426  0.00  0.00    +0.258 A 
ATOM      3  N   LIG    1       -4.205  -1.164   0.445  0.00  0.00    -0.275 N 
ATOM      4  C   LIG    1       -3.897   0.137   0.285  0.00  0.00    +0.332 A 
ATOM      5  N   LIG    1       -2.623   0.531   0.109  0.00  0.00    -0.264 N 
ATOM      6  O   LIG    1       -4.784   0.968   0.306  0.00  0.00    -0.246 OA
ATOM      7  H   LIG    1       -5.158  -1.435   0.579  0.00  0.00    +0.173 HD
ATOM      8  O   LIG    1       -3.526  -3.280   0.572  0.00  0.00    -0.267 OA
ATOM      9  C   LIG    1       -1.607  -0.395   0.077  0.00  0.00    +0.095 A 
ENDROOT
BRANCH   1  11
ATOM     10  C   LIG    1       -0.361  -3.062   1.644  0.00  0.00    +0.009 C 
ATOM     11  C   LIG    1       -0.808  -2.757   0.213  0.00  0.00    +0.040 C 
ENDBRANCH   1  11
BRANCH   5  12
ATOM     12  C   LIG    1       -2.317   1.954  -0.057  0.00  0.00    +0.290 C 
BRANCH  12  13
ATOM     13  O   LIG    1       -2.005   2.218  -1.426  0.00  0.00    -0.355 OA
BRANCH  13  14
ATOM     14  C   LIG    1       -3.150   2.321  -2.274  0.00  0.00    +0.197 C 
BRANCH  14  15
ATOM     15  C   LIG    1       -2.704   2.529  -3.698  0.00  0.00    -0.022 A 
ATOM     16  C   LIG    1       -2.521   3.809  -4.186  0.00  0.00    +0.006 A 
ATOM     17  C   LIG    1       -2.107   3.999  -5.491  0.00  0.00    +0.000 A 
ATOM     18  C   LIG    1       -1.885   2.909  -6.311  0.00  0.00    +0.000 A 
ATOM     19  C   LIG    1       -2.073   1.629  -5.825  0.00  0.00    +0.000 A 
ATOM     20  C   LIG    1       -2.482   1.439  -4.519  0.00  0.00    +0.006 A 
ENDBRANCH  14  15
ENDBRANCH  13  14
ENDBRANCH  12  13
ENDBRANCH   5  12
BRANCH   9  21
ATOM     21  S   LIG    1        0.061   0.122  -0.161  0.00  0.00    -0.071 S 
BRANCH  21  22
ATOM     22  C   LIG    1        0.370   0.884   1.398  0.00  0.00    +0.014 A 
ATOM     23  C   LIG    1       -0.576   0.803   2.412  0.00  0.00    +0.015 A 
ATOM     24  C   LIG    1       -0.328   1.397   3.634  0.00  0.00    +0.001 A 
ATOM     25  C   LIG    1        0.855   2.081   3.845  0.00  0.00    +0.000 A 
ATOM     26  C   LIG    1        1.796   2.169   2.835  0.00  0.00    +0.001 A 
ATOM     27  C   LIG    1        1.557   1.572   1.613  0.00  0.00    +0.015 A 
ENDBRANCH  21  22
ENDBRANCH   9  21
TORSDOF 7
