REMARK  Name = ZINC00591057
REMARK                            x       y       z     vdW  Elec       q    Type
REMARK                         _______ _______ _______ _____ _____    ______ ____
ROOT
ATOM      1  C   LIG    1       -0.273   3.845   1.946  0.00  0.00    +0.109 C 
ATOM      2  C   LIG    1       -1.193   2.717   2.335  0.00  0.00    +0.217 C 
ATOM      3  N   LIG    1       -1.561   1.801   1.417  0.00  0.00    -0.264 N 
ATOM      4  O   LIG    1       -1.602   2.633   3.474  0.00  0.00    -0.276 OA
ENDROOT
BRANCH   3   5
ATOM      5  C   LIG    1       -2.502   0.817   1.748  0.00  0.00    +0.082 A 
ATOM      6  C   LIG    1       -2.083  -0.394   2.279  0.00  0.00    +0.065 A 
ATOM      7  C   LIG    1       -3.015  -1.365   2.605  0.00  0.00    +0.125 A 
ATOM      8  F   LIG    1       -2.607  -2.544   3.122  0.00  0.00    -0.205 F 
ATOM      9  C   LIG    1       -4.364  -1.129   2.402  0.00  0.00    +0.042 A 
ATOM     10  C   LIG    1       -4.787   0.077   1.873  0.00  0.00    +0.051 A 
ATOM     11  C   LIG    1       -3.860   1.055   1.550  0.00  0.00    +0.150 A 
BRANCH  11  12
ATOM     12  O   LIG    1       -4.276   2.244   1.036  0.00  0.00    -0.454 OA
BRANCH  12  13
ATOM     13  C   LIG    1       -4.334   2.368  -0.316  0.00  0.00    +0.129 A 
ATOM     14  C   LIG    1       -4.082   1.271  -1.126  0.00  0.00    +0.046 A 
ATOM     15  C   LIG    1       -4.146   1.399  -2.500  0.00  0.00    +0.004 A 
ATOM     16  C   LIG    1       -4.453   2.622  -3.068  0.00  0.00    +0.000 A 
ATOM     17  C   LIG    1       -4.700   3.719  -2.262  0.00  0.00    +0.004 A 
ATOM     18  C   LIG    1       -4.641   3.595  -0.888  0.00  0.00    +0.046 A 
ENDBRANCH  12  13
ENDBRANCH  11  12
ENDBRANCH   3   5
BRANCH   3  19
ATOM     19  C   LIG    1       -0.978   1.835   0.074  0.00  0.00    +0.152 C 
BRANCH  19  20
ATOM     20  C   LIG    1        0.200   0.896   0.014  0.00  0.00    +0.015 A 
ATOM     21  C   LIG    1        1.482   1.387   0.160  0.00  0.00    +0.054 A 
ATOM     22  C   LIG    1        2.566   0.524   0.099  0.00  0.00    +0.121 A 
ATOM     23  C   LIG    1        2.362  -0.832  -0.109  0.00  0.00    +0.049 A 
ATOM     24  C   LIG    1        1.080  -1.323  -0.256  0.00  0.00    +0.049 A 
ATOM     25  C   LIG    1       -0.004  -0.460  -0.194  0.00  0.00    +0.125 A 
BRANCH  22  26
ATOM     26  O   LIG    1        3.829   1.008   0.244  0.00  0.00    -0.495 OA
ATOM     27  C   LIG    1        4.898   0.062   0.169  0.00  0.00    +0.277 C 
ENDBRANCH  22  26
BRANCH  25  28
ATOM     28  O   LIG    1       -1.267  -0.943  -0.339  0.00  0.00    -0.495 OA
ATOM     29  C   LIG    1       -1.403  -2.350  -0.550  0.00  0.00    +0.277 C 
ENDBRANCH  25  28
ENDBRANCH  19  20
ENDBRANCH   3  19
TORSDOF 7
