REMARK  Name = ZINC00598509
REMARK                            x       y       z     vdW  Elec       q    Type
REMARK                         _______ _______ _______ _____ _____    ______ ____
ROOT
ATOM      1  C   LIG    1        0.011   0.040   2.486  0.00  0.00    -0.018 A 
ATOM      2  C   LIG    1        0.927   1.070   2.700  0.00  0.00    +0.009 A 
ATOM      3  C   LIG    1        0.935   1.747   3.898  0.00  0.00    +0.013 A 
ATOM      4  C   LIG    1        0.025   1.403   4.900  0.00  0.00    +0.037 A 
ATOM      5  C   LIG    1       -0.893   0.372   4.685  0.00  0.00    +0.013 A 
ATOM      6  C   LIG    1       -0.903  -0.301   3.484  0.00  0.00    +0.009 A 
ENDROOT
BRANCH   1  13
ATOM      7  C   LIG    1       -0.026   1.527   0.009  0.00  0.00    +0.044 C 
ATOM      8  C   LIG    1       -0.015   0.020  -0.006  0.00  0.00    -0.042 A 
ATOM      9  C   LIG    1       -0.016  -0.657  -1.206  0.00  0.00    +0.015 A 
ATOM     10  C   LIG    1       -0.007  -2.051  -1.219  0.00  0.00    +0.023 A 
ATOM     11  C   LIG    1        0.005  -2.761  -0.018  0.00  0.00    +0.012 A 
ATOM     12  C   LIG    1        0.007  -2.084   1.181  0.00  0.00    +0.009 A 
ATOM     13  C   LIG    1        0.003  -0.689   1.195  0.00  0.00    -0.015 A 
BRANCH  10  14
ATOM     14  C   LIG    1       -0.009  -2.781  -2.511  0.00  0.00    +0.202 A 
ATOM     15  N   LIG    1       -0.006  -4.118  -2.657  0.00  0.00    -0.192 NA
ATOM     16  C   LIG    1       -0.010  -4.428  -3.922  0.00  0.00    +0.225 A 
ATOM     17  C   LIG    1       -0.007  -5.826  -4.486  0.00  0.00    +0.112 C 
ATOM     18  O   LIG    1       -0.015  -3.296  -4.637  0.00  0.00    -0.338 OA
ATOM     19  N   LIG    1       -0.021  -2.229  -3.700  0.00  0.00    -0.056 NA
ENDBRANCH  10  14
ENDBRANCH   1  13
BRANCH   4  20
ATOM     20  C   LIG    1        0.033   2.128   6.187  0.00  0.00    +0.248 C 
ATOM     21  N   LIG    1       -0.846   1.796   7.153  0.00  0.00    -0.281 N 
ATOM     22  H   LIG    1       -1.526   1.127   6.981  0.00  0.00    +0.155 HD
ATOM     23  O   LIG    1        0.832   3.026   6.374  0.00  0.00    -0.270 OA
BRANCH  21  24
ATOM     24  C   LIG    1       -0.775   2.417   8.406  0.00  0.00    +0.036 A 
ATOM     25  C   LIG    1       -1.074   1.696   9.556  0.00  0.00    +0.027 A 
ATOM     26  C   LIG    1       -1.005   2.307  10.794  0.00  0.00    +0.049 A 
ATOM     27  C   LIG    1       -0.638   3.638  10.892  0.00  0.00    +0.141 A 
ATOM     28  C   LIG    1       -0.337   4.364   9.742  0.00  0.00    +0.074 A 
ATOM     29  C   LIG    1       -0.401   3.750   8.501  0.00  0.00    +0.050 A 
BRANCH  28  30
ATOM     30  N   LIG    1        0.034   5.710   9.840  0.00  0.00    -0.325 N 
ATOM     31  C   LIG    1        1.446   6.095   9.988  0.00  0.00    +0.120 C 
ATOM     32  C   LIG    1        1.776   7.154   8.930  0.00  0.00    +0.103 C 
ATOM     33  N   LIG    1        0.816   8.261   9.034  0.00  0.00    -0.302 NA
ATOM     34  C   LIG    1        1.199   9.374   8.155  0.00  0.00    +0.105 C 
ATOM     35  C   LIG    1       -0.552   7.809   8.747  0.00  0.00    +0.103 C 
ATOM     36  C   LIG    1       -0.976   6.778   9.791  0.00  0.00    +0.120 C 
ENDBRANCH  28  30
BRANCH  27  37
ATOM     37  O   LIG    1       -0.571   4.237  12.112  0.00  0.00    -0.493 OA
ATOM     38  C   LIG    1       -0.894   3.433  13.249  0.00  0.00    +0.277 C 
ENDBRANCH  27  37
ENDBRANCH  21  24
ENDBRANCH   4  20
TORSDOF 6
