REMARK  Name = ZINC00461742
REMARK                            x       y       z     vdW  Elec       q    Type
REMARK                         _______ _______ _______ _____ _____    ______ ____
ROOT
ATOM      1  N   LIG    1        2.402   1.106  -0.015  0.00  0.00    -0.285 N 
ATOM      2  H   LIG    1        2.419   0.138   0.047  0.00  0.00    +0.155 HD
ATOM      3  C   LIG    1        3.556   1.794  -0.124  0.00  0.00    +0.221 C 
ATOM      4  O   LIG    1        3.542   3.007  -0.118  0.00  0.00    -0.275 OA
ENDROOT
BRANCH   1   6
ATOM      5  C   LIG    1        0.059   1.225  -0.586  0.00  0.00    +0.043 A 
ATOM      6  C   LIG    1        1.181   1.788   0.008  0.00  0.00    +0.036 A 
ATOM      7  C   LIG    1        1.088   3.028   0.626  0.00  0.00    +0.043 A 
ATOM      8  C   LIG    1       -0.120   3.700   0.647  0.00  0.00    +0.044 A 
ATOM      9 CL   LIG    1       -0.236   5.250   1.419  0.00  0.00    -0.083 Cl
ATOM     10  C   LIG    1       -1.237   3.137   0.054  0.00  0.00    +0.040 A 
ATOM     11  C   LIG    1       -1.146   1.903  -0.567  0.00  0.00    +0.044 A 
ATOM     12 CL   LIG    1       -2.547   1.205  -1.317  0.00  0.00    -0.083 Cl
ENDBRANCH   1   6
BRANCH   3  13
ATOM     13  C   LIG    1        4.864   1.056  -0.255  0.00  0.00    +0.089 C 
ATOM     14  C   LIG    1        4.834   0.184  -1.511  0.00  0.00    +0.013 C 
ATOM     15  C   LIG    1        4.622   1.068  -2.742  0.00  0.00    +0.001 C 
ATOM     16  C   LIG    1        5.768   2.076  -2.849  0.00  0.00    +0.001 C 
ATOM     17  C   LIG    1        5.797   2.949  -1.592  0.00  0.00    +0.015 C 
ATOM     18  C   LIG    1        6.009   2.065  -0.362  0.00  0.00    +0.109 C 
BRANCH  18  19
ATOM     19  C   LIG    1        6.039   2.925   0.875  0.00  0.00    +0.309 C 
ATOM     20  O   LIG    1        5.227   2.749   1.753  0.00  0.00    -0.251 OA
BRANCH  19  21
ATOM     21  O   LIG    1        6.967   3.886   1.003  0.00  0.00    -0.480 OA
ATOM     22  H   LIG    1        7.597   4.022   0.323  0.00  0.00    +0.295 HD
ENDBRANCH  19  21
ENDBRANCH  18  19
ENDBRANCH   3  13
TORSDOF 4
