REMARK  Name = ZINC00639309
REMARK                            x       y       z     vdW  Elec       q    Type
REMARK                         _______ _______ _______ _____ _____    ______ ____
ROOT
ATOM      1  C   LIG    1        2.513   1.018  -0.024  0.00  0.00    +0.094 C 
ATOM      2  C   LIG    1        3.290   1.380   1.213  0.00  0.00    +0.007 A 
ATOM      3  C   LIG    1        2.956   0.796   2.422  0.00  0.00    +0.012 A 
ATOM      4  C   LIG    1        3.658   1.116   3.567  0.00  0.00    +0.046 A 
ATOM      5  C   LIG    1        4.703   2.027   3.509  0.00  0.00    +0.120 A 
ATOM      6  C   LIG    1        5.040   2.614   2.300  0.00  0.00    +0.092 A 
ATOM      7  C   LIG    1        4.333   2.291   1.149  0.00  0.00    +0.138 A 
ATOM      8  O   LIG    1        4.677   2.874  -0.026  0.00  0.00    -0.441 OA
ATOM      9  C   LIG    1        4.295   2.319  -1.187  0.00  0.00    +0.195 C 
ATOM     10  C   LIG    1        3.272   1.429  -1.254  0.00  0.00    +0.105 C 
ENDROOT
BRANCH   1  14
ATOM     11  C   LIG    1       -1.263   3.018   0.041  0.00  0.00    +0.121 A 
ATOM     12  C   LIG    1       -1.212   1.632   0.015  0.00  0.00    +0.046 A 
ATOM     13  C   LIG    1        0.010   0.988   0.000  0.00  0.00    +0.008 A 
ATOM     14  C   LIG    1        1.181   1.723  -0.001  0.00  0.00    -0.035 A 
ATOM     15  C   LIG    1        1.132   3.105   0.019  0.00  0.00    +0.008 A 
ATOM     16  C   LIG    1       -0.087   3.754   0.040  0.00  0.00    +0.046 A 
BRANCH  11  17
ATOM     17  O   LIG    1       -2.464   3.654   0.061  0.00  0.00    -0.487 OA
BRANCH  17  18
ATOM     18  C   LIG    1       -3.634   2.832   0.061  0.00  0.00    +0.264 C 
BRANCH  18  23
ATOM     19  C   LIG    1       -8.341   6.183   0.152  0.00  0.00    +0.044 C 
ATOM     20  C   LIG    1       -7.114   5.309   0.128  0.00  0.00    -0.050 A 
ATOM     21  C   LIG    1       -6.562   4.925  -1.080  0.00  0.00    +0.004 A 
ATOM     22  C   LIG    1       -5.436   4.123  -1.101  0.00  0.00    +0.007 A 
ATOM     23  C   LIG    1       -4.861   3.706   0.085  0.00  0.00    -0.010 A 
ATOM     24  C   LIG    1       -5.416   4.085   1.292  0.00  0.00    +0.007 A 
ATOM     25  C   LIG    1       -6.540   4.890   1.314  0.00  0.00    +0.004 A 
ENDBRANCH  18  23
ENDBRANCH  17  18
ENDBRANCH  11  17
ENDBRANCH   1  14
BRANCH   9  26
ATOM     26  N   LIG    1        4.955   2.661  -2.337  0.00  0.00    -0.329 N 
ATOM     27  H   LIG    1        5.735   3.236  -2.295  0.00  0.00    +0.145 HD
ATOM     28  H   LIG    1        4.643   2.328  -3.192  0.00  0.00    +0.145 HD
ENDBRANCH   9  26
BRANCH   5  29
ATOM     29  O   LIG    1        5.394   2.343   4.635  0.00  0.00    -0.507 OA
ATOM     30  H   LIG    1        6.160   1.775   4.799  0.00  0.00    +0.292 HD
ENDBRANCH   5  29
BRANCH  10  31
ATOM     31  C   LIG    1        2.918   0.881  -2.496  0.00  0.00    +0.341 C 
ATOM     32  O   LIG    1        3.282  -0.243  -2.793  0.00  0.00    -0.245 OA
BRANCH  31  33
ATOM     33  O   LIG    1        2.172   1.601  -3.363  0.00  0.00    -0.465 OA
ATOM     34  C   LIG    1        1.848   0.981  -4.609  0.00  0.00    +0.280 C 
ENDBRANCH  31  33
ENDBRANCH  10  31
TORSDOF 8
