REMARK  Name = ZINC00695824
REMARK                            x       y       z     vdW  Elec       q    Type
REMARK                         _______ _______ _______ _____ _____    ______ ____
ROOT
ATOM      1  C   LIG    1        2.373  -4.172  -0.052  0.00  0.00    +0.164 A 
ATOM      2  C   LIG    1        2.352  -2.789  -0.049  0.00  0.00    +0.060 A 
ATOM      3  C   LIG    1        1.131  -2.112  -0.021  0.00  0.00    +0.013 A 
ATOM      4  C   LIG    1       -0.066  -2.835  -0.006  0.00  0.00    +0.044 A 
ATOM      5 BR   LIG    1       -1.722  -1.923   0.023  0.00  0.00    -0.048 Br
ATOM      6  C   LIG    1       -0.037  -4.215  -0.015  0.00  0.00    +0.078 A 
ATOM      7 BR   LIG    1       -1.655  -5.193   0.005  0.00  0.00    -0.045 Br
ATOM      8  C   LIG    1        1.177  -4.887  -0.037  0.00  0.00    +0.178 A 
ENDROOT
BRANCH   3   9
ATOM      9  C   LIG    1        1.103  -0.638  -0.013  0.00  0.00    +0.139 C 
ATOM     10  N   LIG    1       -0.032  -0.010   0.008  0.00  0.00    -0.186 NA
BRANCH  10  11
ATOM     11  N   LIG    1       -0.058   1.391   0.015  0.00  0.00    -0.191 N 
ATOM     12  H   LIG    1        0.772   1.891   0.005  0.00  0.00    +0.179 HD
ATOM     13  C   LIG    1       -1.238   2.043   0.031  0.00  0.00    +0.317 C 
ATOM     14  N   LIG    1       -2.392   1.347   0.039  0.00  0.00    -0.312 N 
ATOM     15  H   LIG    1       -3.241   1.817   0.050  0.00  0.00    +0.147 HD
ATOM     16  H   LIG    1       -2.374   0.377   0.034  0.00  0.00    +0.147 HD
ATOM     17  O   LIG    1       -1.260   3.259   0.037  0.00  0.00    -0.251 OA
ENDBRANCH  10  11
ENDBRANCH   3   9
BRANCH   1  18
ATOM     18  O   LIG    1        3.561  -4.834  -0.074  0.00  0.00    -0.489 OA
BRANCH  18  20
ATOM     19  C   LIG    1        5.974  -4.951  -0.113  0.00  0.00    +0.048 C 
ATOM     20  C   LIG    1        4.747  -4.037  -0.088  0.00  0.00    +0.226 C 
ENDBRANCH  18  20
ENDBRANCH   1  18
BRANCH   8  21
ATOM     21  O   LIG    1        1.200  -6.246  -0.046  0.00  0.00    -0.478 OA
BRANCH  21  22
ATOM     22  C   LIG    1        1.192  -6.887  -1.323  0.00  0.00    +0.325 C 
BRANCH  22  23
ATOM     23  C   LIG    1        1.220  -8.382  -1.135  0.00  0.00    +0.255 C 
ATOM     24  N   LIG    1        1.218  -9.196  -2.209  0.00  0.00    -0.283 N 
ATOM     25  H   LIG    1        1.131  -8.823  -3.101  0.00  0.00    +0.155 HD
ATOM     26  O   LIG    1        1.245  -8.852  -0.018  0.00  0.00    -0.272 OA
BRANCH  24  27
ATOM     27  C   LIG    1        1.342 -10.579  -2.039  0.00  0.00    +0.034 A 
ATOM     28  C   LIG    1        2.034 -11.337  -2.975  0.00  0.00    +0.023 A 
ATOM     29  C   LIG    1        2.159 -12.701  -2.801  0.00  0.00    +0.005 A 
ATOM     30  C   LIG    1        1.587 -13.315  -1.702  0.00  0.00    -0.050 A 
ATOM     31  C   LIG    1        1.720 -14.805  -1.519  0.00  0.00    +0.044 C 
ATOM     32  C   LIG    1        0.893 -12.564  -0.771  0.00  0.00    +0.005 A 
ATOM     33  C   LIG    1        0.769 -11.199  -0.936  0.00  0.00    +0.023 A 
ENDBRANCH  24  27
ENDBRANCH  22  23
ENDBRANCH  21  22
ENDBRANCH   8  21
TORSDOF 8
