REMARK  Name = ZINC00409156
REMARK                            x       y       z     vdW  Elec       q    Type
REMARK                         _______ _______ _______ _____ _____    ______ ____
ROOT
ATOM      1  C   LIG    1        1.165   2.434   0.004  0.00  0.00    +0.038 A 
ATOM      2  C   LIG    1       -0.021   1.732   0.012  0.00  0.00    +0.043 A 
ATOM      3 CL   LIG    1        0.002  -0.004   0.002  0.00  0.00    -0.083 Cl
ATOM      4  C   LIG    1       -1.233   2.405   0.021  0.00  0.00    +0.043 A 
ATOM      5  C   LIG    1       -1.264   3.787   0.035  0.00  0.00    +0.084 A 
ATOM      6 CL   LIG    1       -2.788   4.619   0.053  0.00  0.00    -0.080 Cl
ATOM      7  C   LIG    1       -0.080   4.509   0.027  0.00  0.00    +0.149 A 
ATOM      8  C   LIG    1        1.147   3.832   0.012  0.00  0.00    +0.103 A 
ENDROOT
BRANCH   7   9
ATOM      9  O   LIG    1       -0.109   5.866   0.035  0.00  0.00    -0.504 OA
ATOM     10  H   LIG    1       -0.126   6.264  -0.846  0.00  0.00    +0.292 HD
ENDBRANCH   7   9
BRANCH   8  11
ATOM     11  C   LIG    1        2.412   4.589   0.004  0.00  0.00    +0.340 C 
ATOM     12  O   LIG    1        2.393   5.804   0.011  0.00  0.00    -0.245 OA
BRANCH  11  13
ATOM     13  O   LIG    1        3.590   3.934  -0.010  0.00  0.00    -0.477 OA
ATOM     14  H   LIG    1        3.604   2.997  -0.015  0.00  0.00    +0.295 HD
ENDBRANCH  11  13
ENDBRANCH   8  11
TORSDOF 3
