REMARK  Name = ZINC00391894
REMARK                            x       y       z     vdW  Elec       q    Type
REMARK                         _______ _______ _______ _____ _____    ______ ____
ROOT
ATOM      1  C   LIG    1        0.625  -0.617   1.040  0.00  0.00    +0.127 A 
ATOM      2  C   LIG    1        1.199   0.149   2.047  0.00  0.00    +0.092 A 
ATOM      3  C   LIG    1        1.839  -0.468   3.107  0.00  0.00    +0.134 A 
ATOM      4  C   LIG    1        1.903  -1.869   3.156  0.00  0.00    +0.101 A 
ATOM      5  C   LIG    1        1.313  -2.642   2.138  0.00  0.00    +0.139 A 
ATOM      6  O   LIG    1        1.355  -3.994   2.183  0.00  0.00    -0.483 OA
ATOM      7  C   LIG    1        2.374  -4.623   2.959  0.00  0.00    +0.211 C 
ATOM      8  C   LIG    1        2.359  -4.046   4.382  0.00  0.00    +0.129 C 
ATOM      9  C   LIG    1        2.584  -2.550   4.262  0.00  0.00    +0.174 C 
ATOM     10  O   LIG    1        3.293  -1.947   5.042  0.00  0.00    -0.292 OA
ATOM     11  C   LIG    1        0.676  -2.005   1.088  0.00  0.00    +0.092 A 
ENDROOT
BRANCH   7  12
ATOM     12  C   LIG    1        2.121  -6.107   3.014  0.00  0.00    -0.007 A 
ATOM     13  C   LIG    1        0.825  -6.586   3.048  0.00  0.00    +0.007 A 
ATOM     14  C   LIG    1        0.592  -7.948   3.099  0.00  0.00    +0.000 A 
ATOM     15  C   LIG    1        1.655  -8.831   3.116  0.00  0.00    +0.000 A 
ATOM     16  C   LIG    1        2.952  -8.352   3.081  0.00  0.00    +0.000 A 
ATOM     17  C   LIG    1        3.184  -6.990   3.026  0.00  0.00    +0.007 A 
ENDBRANCH   7  12
BRANCH   1  19
ATOM     18  C   LIG    1       -0.017   1.425   0.010  0.00  0.00    +0.277 C 
ATOM     19  O   LIG    1        0.002  -0.004   0.002  0.00  0.00    -0.495 OA
ENDBRANCH   1  19
BRANCH   3  20
ATOM     20  O   LIG    1        2.401   0.276   4.092  0.00  0.00    -0.506 OA
ATOM     21  H   LIG    1        1.802   0.473   4.826  0.00  0.00    +0.292 HD
ENDBRANCH   3  20
TORSDOF 3
