REMARK  Name = ZINC00364197
REMARK                            x       y       z     vdW  Elec       q    Type
REMARK                         _______ _______ _______ _____ _____    ______ ____
ROOT
ATOM      1  N   LIG    1       -0.011   0.966   0.007  0.00  0.00    -0.280 N 
ATOM      2  H   LIG    1       -0.139   0.088  -0.386  0.00  0.00    +0.155 HD
ATOM      3  C   LIG    1       -1.036   1.580   0.631  0.00  0.00    +0.250 C 
ATOM      4  O   LIG    1       -0.900   2.712   1.053  0.00  0.00    -0.270 OA
ENDROOT
BRANCH   1  13
ATOM      5  C   LIG    1        2.542   3.603  -0.303  0.00  0.00    +0.003 A 
ATOM      6  C   LIG    1        3.705   2.895  -0.251  0.00  0.00    +0.010 A 
ATOM      7  C   LIG    1        3.668   1.499  -0.109  0.00  0.00    +0.002 A 
ATOM      8  C   LIG    1        4.851   0.738  -0.052  0.00  0.00    +0.011 A 
ATOM      9  C   LIG    1        4.741  -0.615   0.102  0.00  0.00    +0.020 A 
ATOM     10  C   LIG    1        3.481  -1.205   0.183  0.00  0.00    +0.111 A 
ATOM     11  N   LIG    1        2.382  -0.493   0.124  0.00  0.00    -0.253 NA
ATOM     12  C   LIG    1        2.420   0.835  -0.016  0.00  0.00    +0.092 A 
ATOM     13  C   LIG    1        1.232   1.595  -0.078  0.00  0.00    +0.060 A 
ATOM     14  C   LIG    1        1.310   2.964  -0.217  0.00  0.00    +0.025 A 
ENDBRANCH   1  13
BRANCH   3  15
ATOM     15  C   LIG    1       -2.324   0.876   0.804  0.00  0.00    +0.056 A 
ATOM     16  C   LIG    1       -3.395   1.501   1.456  0.00  0.00    +0.031 A 
ATOM     17  C   LIG    1       -4.582   0.801   1.586  0.00  0.00    +0.037 A 
ATOM     18 BR   LIG    1       -6.067   1.591   2.449  0.00  0.00    -0.049 Br
ATOM     19  C   LIG    1       -4.668  -0.486   1.083  0.00  0.00    +0.126 A 
ATOM     20  N   LIG    1       -3.640  -1.051   0.478  0.00  0.00    -0.261 NA
ATOM     21  C   LIG    1       -2.493  -0.423   0.325  0.00  0.00    +0.123 A 
ENDBRANCH   3  15
TORSDOF 2
