REMARK  Name = ZINC00538550
REMARK                            x       y       z     vdW  Elec       q    Type
REMARK                         _______ _______ _______ _____ _____    ______ ____
ROOT
ATOM      1  N   LIG    1        0.472  -3.051  -0.018  0.00  0.00    -0.318 N 
ATOM      2  C   LIG    1       -0.927  -2.613   0.102  0.00  0.00    +0.088 C 
ATOM      3  C   LIG    1       -1.741  -3.275  -1.015  0.00  0.00    -0.060 C 
ATOM      4  N   LIG    1       -1.555  -4.731  -0.959  0.00  0.00    +0.382 N 
ATOM      5  H   LIG    1       -1.802  -5.065  -0.039  0.00  0.00    -0.082 HD
ATOM      6  C   LIG    1       -0.153  -5.067  -1.239  0.00  0.00    -0.060 C 
ATOM      7  C   LIG    1        0.739  -4.493  -0.138  0.00  0.00    +0.088 C 
ENDROOT
BRANCH   1  13
ATOM      8  C   LIG    1        2.626  -1.601   3.577  0.00  0.00    +0.001 A 
ATOM      9  C   LIG    1        3.638  -0.676   3.348  0.00  0.00    +0.001 A 
ATOM     10  C   LIG    1        3.914  -0.268   2.070  0.00  0.00    +0.017 A 
ATOM     11  C   LIG    1        3.181  -0.783   1.021  0.00  0.00    +0.041 A 
ATOM     12  C   LIG    1        2.147  -1.725   1.225  0.00  0.00    +0.031 A 
ATOM     13  C   LIG    1        1.516  -2.125  -0.024  0.00  0.00    +0.138 A 
ATOM     14  N   LIG    1        1.932  -1.613  -1.145  0.00  0.00    -0.194 NA
ATOM     15  S   LIG    1        3.173  -0.566  -0.737  0.00  0.00    +0.014 S 
ATOM     16  C   LIG    1        1.893  -2.120   2.555  0.00  0.00    +0.012 A 
ENDBRANCH   1  13
BRANCH   4  17
ATOM     17  C   LIG    1       -2.419  -5.373  -1.958  0.00  0.00    -0.074 C 
BRANCH  17  18
ATOM     18  C   LIG    1       -2.320  -6.893  -1.817  0.00  0.00    +0.018 C 
BRANCH  18  19
ATOM     19  C   LIG    1       -3.207  -7.551  -2.842  0.00  0.00    -0.030 A 
ATOM     20  C   LIG    1       -2.662  -8.060  -4.008  0.00  0.00    +0.011 A 
ATOM     21  C   LIG    1       -3.475  -8.660  -4.942  0.00  0.00    -0.017 A 
ATOM     22  C   LIG    1       -4.844  -8.765  -4.731  0.00  0.00    +0.038 A 
ATOM     23  N   LIG    1       -5.450  -9.408  -5.811  0.00  0.00    -0.285 N 
ATOM     24  H   LIG    1       -6.402  -9.586  -5.870  0.00  0.00    +0.155 HD
ATOM     25  C   LIG    1       -4.564  -9.754  -6.760  0.00  0.00    +0.222 C 
ATOM     26  O   LIG    1       -4.810 -10.323  -7.803  0.00  0.00    -0.275 OA
ATOM     27  C   LIG    1       -5.387  -8.251  -3.556  0.00  0.00    +0.043 A 
ATOM     28  C   LIG    1       -3.201  -9.300  -6.283  0.00  0.00    +0.133 C 
ATOM     29  C   LIG    1       -4.569  -7.654  -2.617  0.00  0.00    +0.046 A 
ATOM     30 CL   LIG    1       -5.253  -7.024  -1.152  0.00  0.00    -0.083 Cl
ENDBRANCH  18  19
ENDBRANCH  17  18
ENDBRANCH   4  17
TORSDOF 4
