REMARK  Name = ZINC00461872
REMARK                            x       y       z     vdW  Elec       q    Type
REMARK                         _______ _______ _______ _____ _____    ______ ____
ROOT
ATOM      1  C   LIG    1        0.054  -2.846   2.464  0.00  0.00    +0.202 A 
ATOM      2  N   LIG    1        0.078  -4.182   2.583  0.00  0.00    -0.187 NA
ATOM      3  C   LIG    1        0.087  -4.519   3.852  0.00  0.00    +0.259 A 
ATOM      4  O   LIG    1        0.070  -3.392   4.586  0.00  0.00    -0.332 OA
ATOM      5  N   LIG    1        0.053  -2.314   3.662  0.00  0.00    -0.056 NA
ENDROOT
BRANCH   1  11
ATOM      6  C   LIG    1       -0.018   1.503   0.010  0.00  0.00    +0.044 C 
ATOM      7  C   LIG    1        0.002  -0.004   0.002  0.00  0.00    -0.050 A 
ATOM      8  C   LIG    1        0.006  -0.688  -1.200  0.00  0.00    +0.003 A 
ATOM      9  C   LIG    1        0.025  -2.071  -1.215  0.00  0.00    +0.001 A 
ATOM     10  C   LIG    1        0.040  -2.776  -0.029  0.00  0.00    +0.012 A 
ATOM     11  C   LIG    1        0.037  -2.092   1.185  0.00  0.00    +0.023 A 
ATOM     12  C   LIG    1        0.023  -0.699   1.194  0.00  0.00    +0.015 A 
ENDBRANCH   1  11
BRANCH   3  13
ATOM     13  C   LIG    1        0.113  -5.897   4.382  0.00  0.00    +0.040 A 
ATOM     14  C   LIG    1        0.135  -6.985   3.507  0.00  0.00    +0.016 A 
ATOM     15  C   LIG    1        0.159  -8.269   4.007  0.00  0.00    +0.039 A 
ATOM     16  C   LIG    1        0.162  -8.482   5.377  0.00  0.00    +0.123 A 
ATOM     17  F   LIG    1        0.185  -9.743   5.862  0.00  0.00    -0.205 F 
ATOM     18  C   LIG    1        0.139  -7.406   6.251  0.00  0.00    +0.039 A 
ATOM     19  C   LIG    1        0.121  -6.118   5.761  0.00  0.00    +0.016 A 
ENDBRANCH   3  13
TORSDOF 2
