REMARK  Name = ZINC00527234
REMARK                            x       y       z     vdW  Elec       q    Type
REMARK                         _______ _______ _______ _____ _____    ______ ____
ROOT
ATOM      1  C   LIG    1       -0.013   1.086   0.008  0.00  0.00    +0.155 C 
ATOM      2  N   LIG    1       -0.721   1.571  -1.179  0.00  0.00    -0.280 N 
ATOM      3  C   LIG    1       -0.041   1.816  -2.314  0.00  0.00    +0.333 A 
ATOM      4  O   LIG    1        1.161   1.629  -2.337  0.00  0.00    -0.246 OA
ATOM      5  N   LIG    1       -0.656   2.256  -3.425  0.00  0.00    -0.262 N 
ATOM      6  C   LIG    1        0.131   2.501  -4.636  0.00  0.00    +0.157 C 
ATOM      7  C   LIG    1       -1.986   2.482  -3.441  0.00  0.00    +0.282 A 
ATOM      8  O   LIG    1       -2.530   2.887  -4.452  0.00  0.00    -0.265 OA
ATOM      9  C   LIG    1       -2.739   2.245  -2.270  0.00  0.00    +0.149 A 
ATOM     10  N   LIG    1       -4.074   2.364  -1.940  0.00  0.00    -0.332 N 
ATOM     11  C   LIG    1       -4.194   1.980  -0.640  0.00  0.00    +0.141 A 
ATOM     12  N   LIG    1       -3.009   1.639  -0.175  0.00  0.00    -0.210 NA
ATOM     13  H   LIG    1       -4.789   2.664  -2.523  0.00  0.00    +0.168 HD
ATOM     14  C   LIG    1       -2.091   1.783  -1.129  0.00  0.00    +0.168 A 
ENDROOT
BRANCH  11  15
ATOM     15  C   LIG    1       -5.457   1.952   0.131  0.00  0.00    +0.020 A 
ATOM     16  C   LIG    1       -6.668   2.330  -0.459  0.00  0.00    +0.031 A 
ATOM     17  C   LIG    1       -7.822   2.288   0.296  0.00  0.00    +0.111 A 
ATOM     18  N   LIG    1       -7.793   1.899   1.556  0.00  0.00    -0.263 NA
ATOM     19  C   LIG    1       -6.673   1.534   2.150  0.00  0.00    +0.111 A 
ATOM     20  C   LIG    1       -5.474   1.540   1.468  0.00  0.00    +0.031 A 
ENDBRANCH  11  15
TORSDOF 1
