REMARK  Name = ZINC00400269
REMARK                            x       y       z     vdW  Elec       q    Type
REMARK                         _______ _______ _______ _____ _____    ______ ____
ROOT
ATOM      1  C   LIG    1        2.373   1.283  -0.014  0.00  0.00    +0.076 A 
ATOM      2  C   LIG    1        1.181   2.013   0.002  0.00  0.00    +0.048 A 
ATOM      3  C   LIG    1       -0.016   1.320   0.009  0.00  0.00    +0.116 A 
ATOM      4  N   LIG    1        0.002  -0.004   0.002  0.00  0.00    -0.223 NA
ATOM      5  C   LIG    1        1.147  -0.671  -0.013  0.00  0.00    +0.213 A 
ATOM      6  N   LIG    1        2.315  -0.047  -0.021  0.00  0.00    -0.215 NA
ENDROOT
BRANCH   1  10
ATOM      7  C   LIG    1        6.127   3.279  -0.041  0.00  0.00    +0.000 A 
ATOM      8  C   LIG    1        6.082   1.897  -0.047  0.00  0.00    +0.001 A 
ATOM      9  C   LIG    1        4.866   1.243  -0.038  0.00  0.00    +0.010 A 
ATOM     10  C   LIG    1        3.682   1.979  -0.023  0.00  0.00    +0.001 A 
ATOM     11  C   LIG    1        3.734   3.372  -0.022  0.00  0.00    +0.010 A 
ATOM     12  C   LIG    1        4.955   4.015  -0.026  0.00  0.00    +0.001 A 
ENDBRANCH   1  10
BRANCH   5  13
ATOM     13  N   LIG    1        1.122  -2.054  -0.020  0.00  0.00    -0.327 N 
ATOM     14  H   LIG    1        1.953  -2.555  -0.030  0.00  0.00    +0.145 HD
ATOM     15  H   LIG    1        0.273  -2.524  -0.014  0.00  0.00    +0.145 HD
ENDBRANCH   5  13
TORSDOF 2
