REMARK  Name = ZINC00538337
REMARK                            x       y       z     vdW  Elec       q    Type
REMARK                         _______ _______ _______ _____ _____    ______ ____
ROOT
ATOM      1  N   LIG    1       -1.202  -0.722   0.010  0.00  0.00    -0.316 N 
ATOM      2  C   LIG    1       -2.241  -0.508   0.876  0.00  0.00    +0.096 A 
ATOM      3  C   LIG    1       -3.240  -1.365   0.614  0.00  0.00    -0.019 A 
ATOM      4  C   LIG    1       -2.807  -2.197  -0.512  0.00  0.00    +0.005 A 
ATOM      5  C   LIG    1       -3.393  -3.244  -1.225  0.00  0.00    +0.030 A 
ATOM      6  C   LIG    1       -2.709  -3.824  -2.271  0.00  0.00    +0.042 A 
ATOM      7 CL   LIG    1       -3.437  -5.122  -3.165  0.00  0.00    -0.084 Cl
ATOM      8  C   LIG    1       -1.437  -3.381  -2.608  0.00  0.00    +0.022 A 
ATOM      9  C   LIG    1       -0.843  -2.352  -1.910  0.00  0.00    +0.028 A 
ATOM     10  C   LIG    1       -1.519  -1.747  -0.857  0.00  0.00    +0.054 A 
ENDROOT
BRANCH   1  17
ATOM     11  C   LIG    1       -0.017   1.384   0.010  0.00  0.00    +0.029 A 
ATOM     12  C   LIG    1        1.170   2.090   0.002  0.00  0.00    +0.040 A 
ATOM     13  C   LIG    1        2.379   1.414  -0.013  0.00  0.00    +0.124 A 
ATOM     14  F   LIG    1        3.539   2.106  -0.021  0.00  0.00    -0.205 F 
ATOM     15  C   LIG    1        2.400   0.029  -0.022  0.00  0.00    +0.040 A 
ATOM     16  C   LIG    1        1.215  -0.680  -0.014  0.00  0.00    +0.029 A 
ATOM     17  C   LIG    1        0.002  -0.004   0.002  0.00  0.00    +0.047 A 
ENDBRANCH   1  17
BRANCH   3  18
ATOM     18  C   LIG    1       -4.557  -1.455   1.340  0.00  0.00    +0.018 C 
ATOM     19  C   LIG    1       -4.306  -1.757   2.820  0.00  0.00    -0.011 C 
ATOM     20  C   LIG    1       -5.642  -1.769   3.567  0.00  0.00    -0.078 C 
ATOM     21  N   LIG    1       -6.291  -0.459   3.436  0.00  0.00    +0.381 N 
ATOM     22  H   LIG    1       -5.672   0.258   3.784  0.00  0.00    -0.082 HD
ATOM     23  C   LIG    1       -6.599  -0.194   2.026  0.00  0.00    -0.078 C 
ATOM     24  C   LIG    1       -5.300  -0.122   1.220  0.00  0.00    -0.011 C 
BRANCH  21  25
ATOM     25  C   LIG    1       -7.535  -0.449   4.218  0.00  0.00    -0.060 C 
BRANCH  25  26
ATOM     26  C   LIG    1       -8.148   0.952   4.184  0.00  0.00    +0.091 C 
BRANCH  26  27
ATOM     27  N   LIG    1       -9.388   0.961   4.964  0.00  0.00    -0.286 N 
ATOM     28  C   LIG    1      -10.728   0.666   4.436  0.00  0.00    +0.128 C 
ATOM     29  C   LIG    1      -11.649   0.817   5.662  0.00  0.00    +0.124 C 
ATOM     30  N   LIG    1      -10.730   1.181   6.751  0.00  0.00    -0.298 N 
ATOM     31  H   LIG    1      -10.988   1.351   7.671  0.00  0.00    +0.150 HD
ATOM     32  C   LIG    1       -9.480   1.234   6.272  0.00  0.00    +0.302 C 
ATOM     33  O   LIG    1       -8.517   1.508   6.962  0.00  0.00    -0.253 OA
ENDBRANCH  26  27
ENDBRANCH  25  26
ENDBRANCH  21  25
ENDBRANCH   3  18
TORSDOF 5
