REMARK  Name = ZINC00538650
REMARK                            x       y       z     vdW  Elec       q    Type
REMARK                         _______ _______ _______ _____ _____    ______ ____
ROOT
ATOM      1  C   LIG    1        1.890   3.076  -0.076  0.00  0.00    +0.076 A 
ATOM      2  C   LIG    1        3.258   3.264  -0.130  0.00  0.00    +0.048 A 
ATOM      3  C   LIG    1        4.094   2.148  -0.183  0.00  0.00    +0.115 A 
ATOM      4  N   LIG    1        3.582   0.935  -0.181  0.00  0.00    -0.235 NA
ATOM      5  C   LIG    1        2.265   0.740  -0.130  0.00  0.00    +0.167 A 
ATOM      6  C   LIG    1        1.478  -0.429  -0.116  0.00  0.00    +0.087 A 
ATOM      7  C   LIG    1        0.134  -0.017  -0.054  0.00  0.00    +0.148 A 
ATOM      8  N   LIG    1        0.096   1.289  -0.031  0.00  0.00    -0.172 NA
ATOM      9  N   LIG    1        1.399   1.796  -0.076  0.00  0.00    -0.213 N 
ENDROOT
BRANCH   1  14
ATOM     10  C   LIG    1        0.611   6.612  -0.070  0.00  0.00    +0.037 A 
ATOM     11  C   LIG    1       -0.754   6.402   0.088  0.00  0.00    +0.023 A 
ATOM     12  C   LIG    1       -1.253   5.117   0.192  0.00  0.00    +0.002 A 
ATOM     13  C   LIG    1       -0.400   4.033   0.134  0.00  0.00    +0.010 A 
ATOM     14  C   LIG    1        0.974   4.234  -0.019  0.00  0.00    +0.002 A 
ATOM     15  C   LIG    1        1.477   5.531  -0.124  0.00  0.00    +0.033 A 
BRANCH  10  18
ATOM     16  C   LIG    1        0.796  10.346  -0.503  0.00  0.00    +0.109 C 
ATOM     17  C   LIG    1        0.261   8.957  -0.271  0.00  0.00    +0.216 C 
ATOM     18  N   LIG    1        1.111   7.915  -0.175  0.00  0.00    -0.275 N 
ATOM     19  C   LIG    1        2.557   8.146  -0.180  0.00  0.00    +0.138 C 
ATOM     20  O   LIG    1       -0.934   8.776  -0.171  0.00  0.00    -0.276 OA
ENDBRANCH  10  18
ENDBRANCH   1  14
BRANCH   6  21
ATOM     21  C   LIG    1        1.966  -1.812  -0.159  0.00  0.00    +0.205 C 
ATOM     22  O   LIG    1        3.164  -2.033  -0.212  0.00  0.00    -0.286 OA
BRANCH  21  23
ATOM     23  C   LIG    1        1.014  -2.927  -0.138  0.00  0.00    +0.060 A 
ATOM     24  C   LIG    1        1.264  -4.290  -0.176  0.00  0.00    +0.019 A 
ATOM     25  C   LIG    1        0.176  -5.127  -0.138  0.00  0.00    +0.008 A 
ATOM     26  C   LIG    1       -1.071  -4.590  -0.079  0.00  0.00    +0.046 A 
ATOM     27  S   LIG    1       -0.768  -2.883  -0.064  0.00  0.00    -0.093 S 
ENDBRANCH  21  23
ENDBRANCH   6  21
TORSDOF 4
