REMARK  Name = ZINC00633296
REMARK                            x       y       z     vdW  Elec       q    Type
REMARK                         _______ _______ _______ _____ _____    ______ ____
ROOT
ATOM      1  N   LIG    1        3.582   2.123  -0.021  0.00  0.00    -0.333 N 
ATOM      2  C   LIG    1        3.588   3.591  -0.118  0.00  0.00    +0.086 C 
ATOM      3  C   LIG    1        4.553   4.000  -1.236  0.00  0.00    -0.060 C 
ATOM      4  N   LIG    1        5.871   3.404  -0.987  0.00  0.00    +0.382 N 
ATOM      5  H   LIG    1        6.193   3.674  -0.070  0.00  0.00    -0.082 HD
ATOM      6  C   LIG    1        5.779   1.940  -1.060  0.00  0.00    -0.060 C 
ATOM      7  C   LIG    1        4.875   1.429   0.073  0.00  0.00    +0.086 C 
ENDROOT
BRANCH   1  10
ATOM      8  C   LIG    1        1.209  -0.683  -0.026  0.00  0.00    +0.003 A 
ATOM      9  C   LIG    1        2.397   0.021  -0.035  0.00  0.00    +0.023 A 
ATOM     10  C   LIG    1        2.381   1.409  -0.013  0.00  0.00    +0.031 A 
ATOM     11  C   LIG    1        1.169   2.087   0.017  0.00  0.00    +0.038 A 
ATOM     12  C   LIG    1       -0.017   1.377   0.025  0.00  0.00    +0.020 A 
ATOM     13 BR   LIG    1       -1.668   2.298   0.066  0.00  0.00    -0.050 Br
ATOM     14  C   LIG    1        0.003  -0.006   0.004  0.00  0.00    +0.015 A 
ENDBRANCH   1  10
BRANCH   4  15
ATOM     15  C   LIG    1        6.823   3.884  -1.997  0.00  0.00    -0.077 C 
BRANCH  15  16
ATOM     16  C   LIG    1        8.223   3.363  -1.667  0.00  0.00    +0.001 C 
BRANCH  16  17
ATOM     17  C   LIG    1        9.215   3.863  -2.720  0.00  0.00    +0.116 C 
BRANCH  17  18
ATOM     18  N   LIG    1       10.555   3.364  -2.404  0.00  0.00    -0.224 N 
ATOM     19  C   LIG    1       11.444   4.014  -1.619  0.00  0.00    +0.244 C 
ATOM     20  C   LIG    1       12.705   3.190  -1.677  0.00  0.00    +0.164 C 
ATOM     21  C   LIG    1       13.195   2.771  -0.283  0.00  0.00    +0.033 C 
ATOM     22  C   LIG    1       13.610   1.289  -0.449  0.00  0.00    +0.021 C 
ATOM     23  C   LIG    1       13.281   0.948  -1.923  0.00  0.00    +0.110 C 
ATOM     24  N   LIG    1       12.240   1.927  -2.312  0.00  0.00    -0.274 N 
ATOM     25  O   LIG    1       11.265   5.042  -1.001  0.00  0.00    -0.273 OA
ATOM     26  C   LIG    1       11.054   2.201  -2.852  0.00  0.00    +0.312 C 
ATOM     27  O   LIG    1       10.492   1.485  -3.658  0.00  0.00    -0.252 OA
ENDBRANCH  17  18
ENDBRANCH  16  17
ENDBRANCH  15  16
ENDBRANCH   4  15
TORSDOF 5
