REMARK  Name = ZINC00607911
REMARK                            x       y       z     vdW  Elec       q    Type
REMARK                         _______ _______ _______ _____ _____    ______ ____
ROOT
ATOM      1  C   LIG    1        0.661   1.520  -0.041  0.00  0.00    -0.095 C 
ATOM      2  N   LIG    1        0.445   0.067  -0.011  0.00  0.00    +0.383 N 
ATOM      3  H   LIG    1       -0.540  -0.124   0.094  0.00  0.00    -0.081 HD
ATOM      4  C   LIG    1        0.926  -0.522  -1.260  0.00  0.00    -0.074 C 
ATOM      5  C   LIG    1        0.547  -1.992  -1.346  0.00  0.00    +0.017 C 
ATOM      6  C   LIG    1        0.679  -2.689  -0.022  0.00  0.00    -0.043 A 
ATOM      7  C   LIG    1        0.506  -4.067   0.014  0.00  0.00    +0.053 A 
ATOM      8  C   LIG    1        0.640  -4.769   1.198  0.00  0.00    +0.162 A 
ATOM      9  C   LIG    1        0.947  -4.088   2.371  0.00  0.00    +0.169 A 
ATOM     10  C   LIG    1        1.100  -2.704   2.342  0.00  0.00    +0.030 A 
ATOM     11  C   LIG    1        1.426  -1.960   3.582  0.00  0.00    -0.007 A 
ATOM     12  C   LIG    1        1.921  -2.626   4.700  0.00  0.00    +0.058 A 
ATOM     13  C   LIG    1        2.235  -1.910   5.842  0.00  0.00    +0.162 A 
ATOM     14  C   LIG    1        2.057  -0.529   5.868  0.00  0.00    +0.162 A 
ATOM     15  C   LIG    1        1.557   0.130   4.755  0.00  0.00    +0.053 A 
ATOM     16  C   LIG    1        1.233  -0.581   3.618  0.00  0.00    -0.037 A 
ATOM     17  C   LIG    1        0.669   0.123   2.414  0.00  0.00    +0.025 C 
ATOM     18  C   LIG    1        0.973  -2.005   1.139  0.00  0.00    -0.046 A 
ATOM     19  C   LIG    1        1.180  -0.513   1.123  0.00  0.00    -0.033 C 
ENDROOT
BRANCH   8  20
ATOM     20  O   LIG    1        0.471  -6.118   1.216  0.00  0.00    -0.491 OA
ATOM     21  C   LIG    1        0.156  -6.748  -0.027  0.00  0.00    +0.277 C 
ENDBRANCH   8  20
BRANCH   9  22
ATOM     22  O   LIG    1        1.097  -4.769   3.539  0.00  0.00    -0.491 OA
ATOM     23  C   LIG    1       -0.091  -5.061   4.277  0.00  0.00    +0.277 C 
ENDBRANCH   9  22
BRANCH  13  24
ATOM     24  O   LIG    1        2.717  -2.555   6.938  0.00  0.00    -0.491 OA
ATOM     25  C   LIG    1        2.874  -3.972   6.840  0.00  0.00    +0.277 C 
ENDBRANCH  13  24
BRANCH  14  26
ATOM     26  O   LIG    1        2.375   0.174   6.987  0.00  0.00    -0.491 OA
ATOM     27  C   LIG    1        2.168   1.587   6.946  0.00  0.00    +0.277 C 
ENDBRANCH  14  26
TORSDOF 4
