REMARK  Name = ZINC00643114
REMARK                            x       y       z     vdW  Elec       q    Type
REMARK                         _______ _______ _______ _____ _____    ______ ____
ROOT
ATOM      1  N   LIG    1        1.976  -0.252   1.585  0.00  0.00    -0.230 N 
ATOM      2  H   LIG    1        2.703  -0.703   1.129  0.00  0.00    +0.173 HD
ATOM      3  C   LIG    1        2.241   0.624   2.574  0.00  0.00    +0.260 C 
ATOM      4  O   LIG    1        1.329   1.190   3.146  0.00  0.00    -0.269 OA
ENDROOT
BRANCH   1  14
ATOM      5  C   LIG    1       -0.019   1.526   0.010  0.00  0.00    +0.030 C 
ATOM      6  C   LIG    1        0.002  -0.004   0.002  0.00  0.00    +0.096 C 
ATOM      7  C   LIG    1       -1.432  -0.557   0.047  0.00  0.00    +0.061 C 
ATOM      8  C   LIG    1       -1.488  -1.361   1.327  0.00  0.00    -0.023 A 
ATOM      9  C   LIG    1       -2.517  -2.086   1.897  0.00  0.00    +0.005 A 
ATOM     10  C   LIG    1       -2.320  -2.747   3.095  0.00  0.00    +0.000 A 
ATOM     11  C   LIG    1       -1.090  -2.681   3.723  0.00  0.00    +0.002 A 
ATOM     12  C   LIG    1       -0.061  -1.958   3.159  0.00  0.00    +0.025 A 
ATOM     13  C   LIG    1       -0.252  -1.288   1.948  0.00  0.00    +0.051 A 
ATOM     14  N   LIG    1        0.649  -0.510   1.215  0.00  0.00    -0.247 N 
ENDBRANCH   1  14
BRANCH   3  15
ATOM     15  C   LIG    1        3.640   0.897   2.964  0.00  0.00    +0.040 A 
ATOM     16  C   LIG    1        4.690   0.253   2.306  0.00  0.00    +0.014 A 
ATOM     17  C   LIG    1        5.993   0.511   2.674  0.00  0.00    +0.023 A 
ATOM     18  C   LIG    1        6.262   1.408   3.695  0.00  0.00    +0.067 A 
ATOM     19 CL   LIG    1        7.906   1.728   4.154  0.00  0.00    -0.082 Cl
ATOM     20  C   LIG    1        5.225   2.049   4.353  0.00  0.00    +0.124 A 
ATOM     21  C   LIG    1        3.918   1.804   3.989  0.00  0.00    +0.043 A 
BRANCH  20  22
ATOM     22  S   LIG    1        5.578   3.187   5.651  0.00  0.00    +0.057 S 
ATOM     23  O   LIG    1        4.325   3.651   6.136  0.00  0.00    -0.153 OA
ATOM     24  O   LIG    1        6.577   4.069   5.157  0.00  0.00    -0.153 OA
BRANCH  22  25
ATOM     25  N   LIG    1        6.273   2.326   6.882  0.00  0.00    -0.203 NA
ATOM     26  H   LIG    1        6.039   1.394   7.014  0.00  0.00    +0.144 HD
ATOM     27  H   LIG    1        6.914   2.753   7.471  0.00  0.00    +0.144 HD
ENDBRANCH  22  25
ENDBRANCH  20  22
ENDBRANCH   3  15
TORSDOF 4
