REMARK  Name = ZINC00600399
REMARK                            x       y       z     vdW  Elec       q    Type
REMARK                         _______ _______ _______ _____ _____    ______ ____
ROOT
ATOM      1  C   LIG    1       -2.103   0.914  -0.938  0.00  0.00    +0.035 A 
ATOM      2  C   LIG    1       -2.085  -0.460  -0.714  0.00  0.00    +0.024 A 
ATOM      3  C   LIG    1       -3.229  -1.203  -0.893  0.00  0.00    +0.016 A 
ATOM      4  C   LIG    1       -4.408  -0.579  -1.312  0.00  0.00    +0.056 A 
ATOM      5  C   LIG    1       -4.422   0.801  -1.541  0.00  0.00    +0.055 A 
ATOM      6 CL   LIG    1       -5.882   1.581  -2.062  0.00  0.00    -0.083 Cl
ATOM      7  C   LIG    1       -3.273   1.539  -1.355  0.00  0.00    +0.044 A 
ENDROOT
BRANCH   4   8
ATOM      8  C   LIG    1       -5.635  -1.373  -1.510  0.00  0.00    +0.253 C 
ATOM      9  N   LIG    1       -6.039  -2.238  -0.558  0.00  0.00    -0.261 N 
ATOM     10  C   LIG    1       -7.189  -3.090  -0.809  0.00  0.00    +0.167 C 
ATOM     11  C   LIG    1       -6.797  -4.551  -0.826  0.00  0.00    +0.037 A 
ATOM     12  C   LIG    1       -7.648  -5.533  -1.218  0.00  0.00    +0.024 A 
ATOM     13  C   LIG    1       -6.982  -6.759  -1.054  0.00  0.00    +0.019 A 
ATOM     14  C   LIG    1       -5.755  -6.486  -0.580  0.00  0.00    +0.086 A 
ATOM     15  N   LIG    1       -5.627  -5.121  -0.454  0.00  0.00    -0.345 N 
ATOM     16  C   LIG    1       -4.385  -4.499  -0.001  0.00  0.00    +0.158 C 
ATOM     17  C   LIG    1       -4.619  -3.410   1.009  0.00  0.00    -0.006 A 
ATOM     18  C   LIG    1       -4.031  -3.489   2.256  0.00  0.00    +0.007 A 
ATOM     19  C   LIG    1       -4.121  -2.420   3.130  0.00  0.00    +0.000 A 
ATOM     20  C   LIG    1       -4.801  -1.276   2.753  0.00  0.00    +0.002 A 
ATOM     21  C   LIG    1       -5.418  -1.210   1.521  0.00  0.00    +0.024 A 
ATOM     22  C   LIG    1       -5.353  -2.295   0.648  0.00  0.00    +0.042 A 
ATOM     23  O   LIG    1       -6.282  -1.249  -2.532  0.00  0.00    -0.270 OA
ENDBRANCH   4   8
BRANCH   1  25
ATOM     24  C   LIG    1       -0.093   1.351   0.248  0.00  0.00    +0.249 C 
ATOM     25  N   LIG    1       -0.943   1.663  -0.750  0.00  0.00    -0.281 N 
ATOM     26  H   LIG    1       -0.748   2.410  -1.338  0.00  0.00    +0.155 HD
ATOM     27  O   LIG    1       -0.294   0.366   0.931  0.00  0.00    -0.270 OA
BRANCH  24  35
ATOM     28  C   LIG    1        1.556   0.840   2.569  0.00  0.00    +0.044 C 
ATOM     29  C   LIG    1        1.890   1.965   1.624  0.00  0.00    -0.038 A 
ATOM     30  C   LIG    1        2.991   2.763   1.861  0.00  0.00    +0.007 A 
ATOM     31  C   LIG    1        3.301   3.795   0.995  0.00  0.00    +0.038 A 
ATOM     32  C   LIG    1        2.509   4.036  -0.117  0.00  0.00    +0.124 A 
ATOM     33  F   LIG    1        2.818   5.047  -0.958  0.00  0.00    -0.205 F 
ATOM     34  C   LIG    1        1.408   3.241  -0.368  0.00  0.00    +0.051 A 
ATOM     35  C   LIG    1        1.088   2.202   0.507  0.00  0.00    +0.043 A 
ENDBRANCH  24  35
ENDBRANCH   1  25
TORSDOF 3
