REMARK  Name = ZINC00405078
REMARK                            x       y       z     vdW  Elec       q    Type
REMARK                         _______ _______ _______ _____ _____    ______ ____
ROOT
ATOM      1  C   LIG    1       -2.502   1.006   0.019  0.00  0.00    +0.020 A 
ATOM      2  C   LIG    1       -3.787   1.483   0.028  0.00  0.00    +0.017 A 
ATOM      3  C   LIG    1       -4.828   0.587   0.028  0.00  0.00    +0.017 A 
ATOM      4  C   LIG    1       -4.546  -0.755   0.019  0.00  0.00    +0.020 A 
ATOM      5  S   LIG    1       -2.761  -0.761   0.003  0.00  0.00    -0.088 S 
ENDROOT
BRANCH   1   9
ATOM      6  C   LIG    1        1.153   3.171   0.007  0.00  0.00    +0.120 A 
ATOM      7  C   LIG    1        1.171   1.782   0.000  0.00  0.00    +0.046 A 
ATOM      8  C   LIG    1       -0.013   1.076   0.008  0.00  0.00    +0.012 A 
ATOM      9  C   LIG    1       -1.231   1.758   0.017  0.00  0.00    -0.011 A 
ATOM     10  C   LIG    1       -1.244   3.155   0.029  0.00  0.00    +0.012 A 
ATOM     11  C   LIG    1       -0.056   3.853   0.021  0.00  0.00    +0.046 A 
BRANCH   6  13
ATOM     12  C   LIG    1        2.232   5.289   0.007  0.00  0.00    +0.277 C 
ATOM     13  O   LIG    1        2.323   3.863  -0.001  0.00  0.00    -0.495 OA
ENDBRANCH   6  13
ENDBRANCH   1   9
BRANCH   4  14
ATOM     14  C   LIG    1       -5.479  -1.900   0.018  0.00  0.00    -0.011 A 
ATOM     15  C   LIG    1       -6.858  -1.680   0.031  0.00  0.00    +0.012 A 
ATOM     16  C   LIG    1       -7.725  -2.752   0.024  0.00  0.00    +0.046 A 
ATOM     17  C   LIG    1       -7.229  -4.049   0.014  0.00  0.00    +0.120 A 
ATOM     18  C   LIG    1       -5.859  -4.272   0.007  0.00  0.00    +0.046 A 
ATOM     19  C   LIG    1       -4.985  -3.206   0.008  0.00  0.00    +0.012 A 
BRANCH  17  20
ATOM     20  O   LIG    1       -8.088  -5.103   0.013  0.00  0.00    -0.495 OA
ATOM     21  C   LIG    1       -9.485  -4.801   0.021  0.00  0.00    +0.277 C 
ENDBRANCH  17  20
ENDBRANCH   4  14
TORSDOF 4
