REMARK  Name = ZINC00538045
REMARK                            x       y       z     vdW  Elec       q    Type
REMARK                         _______ _______ _______ _____ _____    ______ ____
ROOT
ATOM      1  C   LIG    1        3.668  -1.355   3.259  0.00  0.00    +0.120 A 
ATOM      2  C   LIG    1        2.340  -0.965   3.139  0.00  0.00    +0.046 A 
ATOM      3  C   LIG    1        1.945  -0.173   2.082  0.00  0.00    +0.012 A 
ATOM      4  C   LIG    1        2.883   0.236   1.135  0.00  0.00    -0.014 A 
ATOM      5  C   LIG    1        4.216  -0.152   1.264  0.00  0.00    -0.036 A 
ATOM      6  C   LIG    1        5.230   0.318   0.254  0.00  0.00    +0.040 C 
ATOM      7  C   LIG    1        4.596   0.402  -1.132  0.00  0.00    +0.041 C 
ATOM      8  C   LIG    1        3.307   1.177  -1.083  0.00  0.00    -0.032 C 
ATOM      9  C   LIG    1        2.479   1.072  -0.016  0.00  0.00    -0.007 C 
ATOM     10  C   LIG    1        4.600  -0.954   2.317  0.00  0.00    +0.050 A 
ENDROOT
BRANCH   8  11
ATOM     11  C   LIG    1        2.943   2.055  -2.205  0.00  0.00    -0.021 A 
ATOM     12  C   LIG    1        1.821   1.767  -2.988  0.00  0.00    +0.008 A 
ATOM     13  C   LIG    1        1.483   2.599  -4.035  0.00  0.00    +0.001 A 
ATOM     14  C   LIG    1        2.257   3.711  -4.317  0.00  0.00    +0.000 A 
ATOM     15  C   LIG    1        3.372   4.000  -3.550  0.00  0.00    +0.001 A 
ATOM     16  C   LIG    1        3.720   3.181  -2.497  0.00  0.00    +0.008 A 
ENDBRANCH   8  11
BRANCH   9  17
ATOM     17  C   LIG    1        1.186   1.791   0.000  0.00  0.00    -0.017 A 
ATOM     18  C   LIG    1       -0.013   1.076   0.008  0.00  0.00    +0.012 A 
ATOM     19  C   LIG    1       -1.215   1.750   0.017  0.00  0.00    +0.046 A 
ATOM     20  C   LIG    1       -1.235   3.138   0.030  0.00  0.00    +0.120 A 
ATOM     21  C   LIG    1       -0.044   3.853   0.022  0.00  0.00    +0.046 A 
ATOM     22  C   LIG    1        1.162   3.187   0.008  0.00  0.00    +0.012 A 
BRANCH  20  23
ATOM     23  O   LIG    1       -2.422   3.799   0.044  0.00  0.00    -0.494 OA
BRANCH  23  24
ATOM     24  C   LIG    1       -3.608   3.002   0.051  0.00  0.00    +0.210 C 
BRANCH  24  25
ATOM     25  C   LIG    1       -4.836   3.914   0.067  0.00  0.00    -0.037 C 
BRANCH  25  26
ATOM     26  N   LIG    1       -4.903   4.690  -1.208  0.00  0.00    +0.382 N 
ATOM     27  H   LIG    1       -4.131   5.366  -1.231  0.00  0.00    -0.082 HD
ATOM     28  C   LIG    1       -6.181   5.395  -1.311  0.00  0.00    -0.079 C 
ATOM     29  C   LIG    1       -6.540   5.415  -2.809  0.00  0.00    -0.020 C 
ATOM     30  C   LIG    1       -5.395   4.647  -3.509  0.00  0.00    -0.020 C 
ATOM     31  C   LIG    1       -4.806   3.785  -2.364  0.00  0.00    -0.079 C 
ENDBRANCH  25  26
ENDBRANCH  24  25
ENDBRANCH  23  24
ENDBRANCH  20  23
ENDBRANCH   9  17
BRANCH   1  33
ATOM     32  C   LIG    1        3.037  -2.529   5.227  0.00  0.00    +0.277 C 
ATOM     33  O   LIG    1        4.051  -2.142   4.298  0.00  0.00    -0.495 OA
ENDBRANCH   1  33
TORSDOF 7
