REMARK  Name = ZINC00635352
REMARK                            x       y       z     vdW  Elec       q    Type
REMARK                         _______ _______ _______ _____ _____    ______ ____
ROOT
ATOM      1  N   LIG    1        2.393  -0.046  -0.250  0.00  0.00    -0.244 N 
ATOM      2  C   LIG    1        1.107  -0.707  -0.473  0.00  0.00    +0.198 C 
ATOM      3  N   LIG    1        0.025   0.058   0.157  0.00  0.00    -0.321 N 
ATOM      4  H   LIG    1       -0.672  -0.393   0.657  0.00  0.00    +0.148 HD
ATOM      5  C   LIG    1        0.019   1.442   0.024  0.00  0.00    +0.041 A 
ATOM      6  C   LIG    1       -1.157   2.172   0.052  0.00  0.00    +0.024 A 
ATOM      7  C   LIG    1       -1.113   3.547  -0.079  0.00  0.00    +0.002 A 
ATOM      8  C   LIG    1        0.099   4.201  -0.230  0.00  0.00    +0.001 A 
ATOM      9  C   LIG    1        1.280   3.490  -0.260  0.00  0.00    +0.015 A 
ATOM     10  C   LIG    1        1.250   2.102  -0.136  0.00  0.00    +0.058 A 
ATOM     11  C   LIG    1        2.483   1.297  -0.176  0.00  0.00    +0.254 C 
ATOM     12  O   LIG    1        3.571   1.838  -0.142  0.00  0.00    -0.270 OA
ENDROOT
BRANCH   2  13
ATOM     13  C   LIG    1        0.849  -0.810  -1.954  0.00  0.00    -0.005 A 
ATOM     14  C   LIG    1        1.911  -0.899  -2.835  0.00  0.00    +0.011 A 
ATOM     15  C   LIG    1        1.679  -0.994  -4.194  0.00  0.00    +0.050 A 
ATOM     16  C   LIG    1        0.380  -0.999  -4.678  0.00  0.00    +0.166 A 
ATOM     17  C   LIG    1       -0.689  -0.909  -3.790  0.00  0.00    +0.167 A 
ATOM     18  O   LIG    1       -1.852  -0.934  -4.505  0.00  0.00    -0.453 OA
ATOM     19  C   LIG    1       -1.477  -0.629  -5.861  0.00  0.00    +0.466 C 
ATOM     20  O   LIG    1       -0.112  -1.081  -5.948  0.00  0.00    -0.453 OA
ATOM     21  C   LIG    1       -0.450  -0.820  -2.429  0.00  0.00    +0.056 A 
ENDBRANCH   2  13
BRANCH   1  25
ATOM     22  C   LIG    1        5.837  -2.353   0.160  0.00  0.00    -0.042 A 
ATOM     23  C   LIG    1        5.762  -1.397  -0.835  0.00  0.00    +0.006 A 
ATOM     24  C   LIG    1        4.622  -0.630  -0.974  0.00  0.00    +0.024 A 
ATOM     25  C   LIG    1        3.550  -0.821  -0.113  0.00  0.00    +0.039 A 
ATOM     26  C   LIG    1        3.630  -1.779   0.890  0.00  0.00    +0.024 A 
ATOM     27  C   LIG    1        4.771  -2.546   1.020  0.00  0.00    +0.006 A 
BRANCH  22  29
ATOM     28  C   LIG    1        8.280  -2.275   0.581  0.00  0.00    +0.015 C 
ATOM     29  C   LIG    1        7.083  -3.188   0.308  0.00  0.00    -0.013 C 
ATOM     30  C   LIG    1        7.325  -3.976  -0.981  0.00  0.00    +0.015 C 
ATOM     31  C   LIG    1        6.908  -4.162   1.475  0.00  0.00    +0.015 C 
ENDBRANCH  22  29
ENDBRANCH   1  25
TORSDOF 3
