REMARK  Name = ZINC00493069
REMARK                            x       y       z     vdW  Elec       q    Type
REMARK                         _______ _______ _______ _____ _____    ______ ____
ROOT
ATOM      1  C   LIG    1        5.317  -1.604   1.466  0.00  0.00    +0.125 A 
ATOM      2  C   LIG    1        6.045  -2.006   0.347  0.00  0.00    +0.046 A 
ATOM      3  C   LIG    1        7.229  -2.668   0.494  0.00  0.00    +0.015 A 
ATOM      4  C   LIG    1        7.716  -2.946   1.776  0.00  0.00    +0.018 A 
ATOM      5  C   LIG    1        8.984  -3.655   1.964  0.00  0.00    +0.018 A 
ATOM      6  C   LIG    1        9.403  -3.894   3.233  0.00  0.00    +0.092 A 
ATOM      7  C   LIG    1        8.621  -3.462   4.324  0.00  0.00    +0.337 A 
ATOM      8  O   LIG    1        7.460  -2.812   4.145  0.00  0.00    -0.422 OA
ATOM      9  O   LIG    1        9.009  -3.683   5.457  0.00  0.00    -0.245 OA
ATOM     10  C   LIG    1        6.986  -2.543   2.910  0.00  0.00    +0.143 A 
ATOM     11  C   LIG    1        5.787  -1.866   2.743  0.00  0.00    +0.092 A 
ENDROOT
BRANCH   1  12
ATOM     12  O   LIG    1        4.141  -0.946   1.304  0.00  0.00    -0.487 OA
BRANCH  12  13
ATOM     13  C   LIG    1        3.711  -0.707  -0.038  0.00  0.00    +0.264 C 
BRANCH  13  17
ATOM     14  C   LIG    1       -0.017   1.378   0.010  0.00  0.00    +0.000 A 
ATOM     15  C   LIG    1        1.171   2.086   0.002  0.00  0.00    +0.000 A 
ATOM     16  C   LIG    1        2.377   1.411  -0.013  0.00  0.00    +0.007 A 
ATOM     17  C   LIG    1        2.396   0.029  -0.020  0.00  0.00    -0.010 A 
ATOM     18  C   LIG    1        1.208  -0.679  -0.012  0.00  0.00    +0.007 A 
ATOM     19  C   LIG    1        0.002  -0.004   0.002  0.00  0.00    +0.000 A 
ENDBRANCH  13  17
ENDBRANCH  12  13
ENDBRANCH   1  12
TORSDOF 3
