REMARK  Name = ZINC00538415
REMARK                            x       y       z     vdW  Elec       q    Type
REMARK                         _______ _______ _______ _____ _____    ______ ____
ROOT
ATOM      1  C   LIG    1        0.164   1.489  -0.129  0.00  0.00    +0.016 C 
ATOM      2  C   LIG    1        0.013  -0.029  -0.015  0.00  0.00    -0.010 C 
ATOM      3  C   LIG    1        0.623  -0.691  -1.252  0.00  0.00    +0.016 C 
ATOM      4  C   LIG    1       -1.471  -0.382   0.065  0.00  0.00    +0.012 C 
ATOM      5  C   LIG    1       -2.012   0.104   1.415  0.00  0.00    +0.012 C 
ATOM      6  C   LIG    1       -1.415  -0.770   2.516  0.00  0.00    -0.009 C 
ATOM      7  C   LIG    1       -1.768  -0.174   3.880  0.00  0.00    +0.016 C 
ATOM      8  C   LIG    1       -2.003  -2.180   2.415  0.00  0.00    +0.016 C 
ATOM      9  C   LIG    1        0.083  -0.846   2.378  0.00  0.00    -0.036 A 
ATOM     10  C   LIG    1        0.810  -1.275   3.479  0.00  0.00    +0.027 A 
ATOM     11  C   LIG    1        2.192  -1.371   3.416  0.00  0.00    +0.034 A 
ATOM     12  C   LIG    1        2.850  -1.034   2.240  0.00  0.00    +0.023 A 
ATOM     13  C   LIG    1        2.124  -0.607   1.150  0.00  0.00    +0.006 A 
ATOM     14  C   LIG    1        0.739  -0.509   1.215  0.00  0.00    -0.038 A 
ENDROOT
BRANCH  11  15
ATOM     15  N   LIG    1        2.918  -1.804   4.529  0.00  0.00    -0.281 N 
ATOM     16  H   LIG    1        2.535  -2.460   5.133  0.00  0.00    +0.155 HD
ATOM     17  C   LIG    1        4.151  -1.312   4.763  0.00  0.00    +0.248 C 
ATOM     18  O   LIG    1        4.593  -0.422   4.063  0.00  0.00    -0.270 OA
BRANCH  17  19
ATOM     19  C   LIG    1        4.967  -1.855   5.873  0.00  0.00    +0.037 A 
ATOM     20  C   LIG    1        4.462  -2.880   6.673  0.00  0.00    +0.014 A 
ATOM     21  C   LIG    1        5.221  -3.386   7.706  0.00  0.00    +0.016 A 
ATOM     22  C   LIG    1        6.496  -2.872   7.952  0.00  0.00    +0.059 A 
ATOM     23  C   LIG    1        7.001  -1.846   7.151  0.00  0.00    +0.016 A 
ATOM     24  C   LIG    1        6.243  -1.344   6.115  0.00  0.00    +0.014 A 
BRANCH  22  25
ATOM     25  C   LIG    1        7.311  -3.413   9.060  0.00  0.00    +0.337 C 
ATOM     26  O   LIG    1        6.868  -4.312   9.762  0.00  0.00    -0.245 OA
BRANCH  25  27
ATOM     27  O   LIG    1        8.427  -2.963   9.275  0.00  0.00    -0.477 OA
ATOM     28  H   LIG    1        8.766  -2.275   8.737  0.00  0.00    +0.295 HD
ENDBRANCH  25  27
ENDBRANCH  22  25
ENDBRANCH  17  19
ENDBRANCH  11  15
TORSDOF 4
