REMARK  Name = ZINC00601283
REMARK                            x       y       z     vdW  Elec       q    Type
REMARK                         _______ _______ _______ _____ _____    ______ ____
ROOT
ATOM      1  C   LIG    1       -0.018   1.503   0.010  0.00  0.00    +0.064 C 
ATOM      2  C   LIG    1        0.002  -0.004   0.002  0.00  0.00    +0.028 A 
ATOM      3  C   LIG    1        0.007  -0.768  -1.099  0.00  0.00    -0.008 A 
ATOM      4  C   LIG    1        0.029  -2.166  -0.657  0.00  0.00    +0.008 A 
ATOM      5  C   LIG    1        0.043  -3.392  -1.324  0.00  0.00    +0.056 A 
ATOM      6  C   LIG    1        0.062  -4.566  -0.596  0.00  0.00    +0.121 A 
ATOM      7  C   LIG    1        0.069  -4.527   0.795  0.00  0.00    +0.048 A 
ATOM      8  C   LIG    1        0.055  -3.323   1.464  0.00  0.00    +0.030 A 
ATOM      9  C   LIG    1        0.036  -2.132   0.748  0.00  0.00    +0.057 A 
ATOM     10  N   LIG    1        0.024  -0.799   1.122  0.00  0.00    -0.280 N 
ATOM     11  C   LIG    1        0.030  -0.349   2.393  0.00  0.00    +0.263 C 
ATOM     12  O   LIG    1       -1.017  -0.075   2.945  0.00  0.00    -0.267 OA
ENDROOT
BRANCH  11  13
ATOM     13  C   LIG    1        1.308  -0.190   3.114  0.00  0.00    +0.040 A 
ATOM     14  C   LIG    1        2.519  -0.399   2.449  0.00  0.00    +0.015 A 
ATOM     15  C   LIG    1        3.710  -0.248   3.128  0.00  0.00    +0.021 A 
ATOM     16  C   LIG    1        3.707   0.108   4.466  0.00  0.00    +0.041 A 
ATOM     17 CL   LIG    1        5.210   0.295   5.314  0.00  0.00    -0.084 Cl
ATOM     18  C   LIG    1        2.510   0.316   5.131  0.00  0.00    +0.021 A 
ATOM     19  C   LIG    1        1.312   0.175   4.462  0.00  0.00    +0.015 A 
ENDBRANCH  11  13
BRANCH   6  20
ATOM     20  O   LIG    1        0.075  -5.763  -1.241  0.00  0.00    -0.495 OA
ATOM     21  C   LIG    1        0.095  -6.938  -0.428  0.00  0.00    +0.277 C 
ENDBRANCH   6  20
BRANCH   3  22
ATOM     22  C   LIG    1       -0.007  -0.281  -2.526  0.00  0.00    +0.158 C 
BRANCH  22  23
ATOM     23  C   LIG    1        1.409  -0.099  -3.009  0.00  0.00    +0.309 C 
ATOM     24  O   LIG    1        2.343  -0.342  -2.264  0.00  0.00    -0.251 OA
BRANCH  23  25
ATOM     25  O   LIG    1        1.620   0.291  -4.144  0.00  0.00    -0.480 OA
ATOM     26  H   LIG    1        0.903   0.478  -4.717  0.00  0.00    +0.295 HD
ENDBRANCH  23  25
ENDBRANCH  22  23
ENDBRANCH   3  22
TORSDOF 5
