REMARK  Name = ZINC00443776
REMARK                            x       y       z     vdW  Elec       q    Type
REMARK                         _______ _______ _______ _____ _____    ______ ____
ROOT
ATOM      1  C   LIG    1        4.790   7.205  -0.049  0.00  0.00    +0.101 C 
ATOM      2  C   LIG    1        4.731   7.929  -1.365  0.00  0.00    +0.098 C 
ATOM      3  C   LIG    1        4.221   7.317  -2.462  0.00  0.00    +0.198 C 
ATOM      4  O   LIG    1        3.763   6.057  -2.409  0.00  0.00    -0.445 OA
ATOM      5  C   LIG    1        3.394   5.526  -1.229  0.00  0.00    +0.115 C 
ATOM      6  C   LIG    1        2.454   4.343  -1.246  0.00  0.00    +0.086 C 
ATOM      7  C   LIG    1        1.581   4.361   0.010  0.00  0.00    +0.070 C 
ATOM      8  C   LIG    1        2.496   4.316   1.238  0.00  0.00    +0.091 C 
ATOM      9  C   LIG    1        3.457   5.472   1.171  0.00  0.00    +0.164 C 
ATOM     10  O   LIG    1        3.905   5.936   2.200  0.00  0.00    -0.292 OA
ATOM     11  C   LIG    1        3.847   6.025  -0.064  0.00  0.00    +0.046 C 
ENDROOT
BRANCH   1  15
ATOM     12  C   LIG    1        8.775   5.825   0.632  0.00  0.00    +0.000 A 
ATOM     13  C   LIG    1        8.185   6.701   1.523  0.00  0.00    +0.000 A 
ATOM     14  C   LIG    1        6.896   7.147   1.303  0.00  0.00    +0.004 A 
ATOM     15  C   LIG    1        6.196   6.718   0.191  0.00  0.00    -0.035 A 
ATOM     16  C   LIG    1        6.784   5.837  -0.698  0.00  0.00    +0.004 A 
ATOM     17  C   LIG    1        8.075   5.394  -0.480  0.00  0.00    +0.000 A 
ENDBRANCH   1  15
BRANCH   7  18
ATOM     18  C   LIG    1        0.671   3.160   0.012  0.00  0.00    +0.109 A 
ATOM     19  C   LIG    1       -0.673   3.191   0.025  0.00  0.00    +0.045 A 
ATOM     20  C   LIG    1       -1.114   1.848   0.017  0.00  0.00    +0.041 A 
ATOM     21  C   LIG    1       -0.013   1.076   0.008  0.00  0.00    +0.195 A 
ATOM     22  O   LIG    1        1.066   1.876   0.002  0.00  0.00    -0.468 OA
ENDBRANCH   7  18
BRANCH   3  23
ATOM     23  N   LIG    1        4.173   8.001  -3.651  0.00  0.00    -0.328 N 
ATOM     24  H   LIG    1        4.502   8.912  -3.700  0.00  0.00    +0.145 HD
ATOM     25  H   LIG    1        3.811   7.573  -4.442  0.00  0.00    +0.145 HD
ENDBRANCH   3  23
BRANCH   2  26
ATOM     26  C   LIG    1        5.216   9.273  -1.460  0.00  0.00    +0.101 C 
ATOM     27  N   LIG    1        5.602  10.339  -1.536  0.00  0.00    -0.191 NA
ENDBRANCH   2  26
TORSDOF 4
