REMARK  Name = ZINC00536057
REMARK                            x       y       z     vdW  Elec       q    Type
REMARK                         _______ _______ _______ _____ _____    ______ ____
ROOT
ATOM      1  C   LIG    1        1.209   1.764   0.000  0.00  0.00    +0.095 A 
ATOM      2  C   LIG    1        2.097   0.673  -0.014  0.00  0.00    +0.062 A 
ATOM      3  C   LIG    1        1.293  -0.451  -0.013  0.00  0.00    +0.122 A 
ATOM      4  N   LIG    1        0.002  -0.004   0.002  0.00  0.00    -0.272 N 
ATOM      5  H   LIG    1       -0.808  -0.590   0.007  0.00  0.00    +0.189 HD
ATOM      6  N   LIG    1       -0.015   1.280   0.009  0.00  0.00    -0.173 NA
ENDROOT
BRANCH   1   9
ATOM      7  C   LIG    1        3.270   4.909  -0.005  0.00  0.00    +0.021 A 
ATOM      8  C   LIG    1        2.926   3.572  -0.002  0.00  0.00    +0.013 A 
ATOM      9  C   LIG    1        1.584   3.200   0.004  0.00  0.00    +0.020 A 
ATOM     10  C   LIG    1        0.594   4.182   0.018  0.00  0.00    +0.052 A 
ATOM     11 CL   LIG    1       -1.082   3.727   0.033  0.00  0.00    -0.083 Cl
ATOM     12  C   LIG    1        0.949   5.517   0.022  0.00  0.00    +0.040 A 
ATOM     13  C   LIG    1        2.284   5.880   0.011  0.00  0.00    +0.042 A 
ATOM     14 CL   LIG    1        2.724   7.559   0.015  0.00  0.00    -0.083 Cl
ENDBRANCH   1   9
BRANCH   3  15
ATOM     15  C   LIG    1        1.740  -1.854  -0.025  0.00  0.00    +0.275 C 
ATOM     16  N   LIG    1        0.833  -2.850  -0.022  0.00  0.00    -0.248 N 
ATOM     17  H   LIG    1       -0.115  -2.643  -0.011  0.00  0.00    +0.169 HD
ATOM     18  O   LIG    1        2.928  -2.113  -0.038  0.00  0.00    -0.267 OA
BRANCH  16  19
ATOM     19  N   LIG    1        1.247  -4.152  -0.033  0.00  0.00    -0.254 NA
ATOM     20  H   LIG    1        0.460  -4.782  -0.029  0.00  0.00    +0.140 HD
ATOM     21  H   LIG    1        1.866  -4.341   0.741  0.00  0.00    +0.140 HD
ENDBRANCH  16  19
ENDBRANCH   3  15
TORSDOF 3
