REMARK  Name = ZINC00624282
REMARK                            x       y       z     vdW  Elec       q    Type
REMARK                         _______ _______ _______ _____ _____    ______ ____
ROOT
ATOM      1  C   LIG    1        0.803  -2.834   4.615  0.00  0.00    +0.070 A 
ATOM      2  C   LIG    1        1.767  -3.044   5.601  0.00  0.00    +0.056 A 
ATOM      3  C   LIG    1        1.498  -3.904   6.656  0.00  0.00    +0.025 A 
ATOM      4  C   LIG    1        0.278  -4.550   6.728  0.00  0.00    +0.003 A 
ATOM      5  C   LIG    1       -0.678  -4.342   5.751  0.00  0.00    +0.022 A 
ATOM      6  C   LIG    1       -0.421  -3.482   4.699  0.00  0.00    +0.064 A 
ATOM      7 CL   LIG    1       -1.627  -3.218   3.478  0.00  0.00    -0.082 Cl
ENDROOT
BRANCH   1  12
ATOM      8  N   LIG    1        0.697  -0.513   1.191  0.00  0.00    +0.382 N 
ATOM      9  H   LIG    1        1.614  -0.092   1.224  0.00  0.00    -0.082 HD
ATOM     10  C   LIG    1       -0.054  -0.136   2.395  0.00  0.00    -0.060 C 
ATOM     11  C   LIG    1        0.746  -0.534   3.640  0.00  0.00    +0.086 C 
ATOM     12  N   LIG    1        1.068  -1.967   3.548  0.00  0.00    -0.331 N 
ATOM     13  C   LIG    1        1.676  -2.463   2.304  0.00  0.00    +0.086 C 
ATOM     14  C   LIG    1        0.833  -1.973   1.122  0.00  0.00    -0.060 C 
BRANCH   8  16
ATOM     15  C   LIG    1       -0.050   1.497   0.007  0.00  0.00    -0.017 C 
ATOM     16  C   LIG    1       -0.017  -0.033   0.000  0.00  0.00    -0.082 C 
ENDBRANCH   8  16
ENDBRANCH   1  12
BRANCH   2  17
ATOM     17  N   LIG    1        3.003  -2.390   5.526  0.00  0.00    -0.277 N 
ATOM     18  H   LIG    1        3.410  -2.220   4.662  0.00  0.00    +0.155 HD
ATOM     19  C   LIG    1        3.627  -1.995   6.654  0.00  0.00    +0.284 C 
ATOM     20  O   LIG    1        3.157  -2.279   7.740  0.00  0.00    -0.266 OA
BRANCH  19  21
ATOM     21  C   LIG    1        4.870  -1.225   6.573  0.00  0.00    +0.191 A 
ATOM     22  C   LIG    1        5.603  -0.770   7.632  0.00  0.00    +0.056 A 
ATOM     23  C   LIG    1        6.706  -0.087   7.096  0.00  0.00    +0.058 A 
ATOM     24  C   LIG    1        6.600  -0.154   5.749  0.00  0.00    +0.171 A 
ATOM     25 BR   LIG    1        7.814   0.598   4.510  0.00  0.00    -0.008 Br
ATOM     26  O   LIG    1        5.495  -0.846   5.438  0.00  0.00    -0.444 OA
ENDBRANCH  19  21
ENDBRANCH   2  17
TORSDOF 4
