REMARK  Name = ZINC00538194
REMARK                            x       y       z     vdW  Elec       q    Type
REMARK                         _______ _______ _______ _____ _____    ______ ____
ROOT
ATOM      1  N   LIG    1       -4.310   0.862  -1.409  0.00  0.00    +0.380 N 
ATOM      2  H   LIG    1       -4.952   0.379  -0.798  0.00  0.00    -0.082 HD
ATOM      3  C   LIG    1       -4.112   2.232  -0.920  0.00  0.00    -0.078 C 
ATOM      4  C   LIG    1       -5.462   2.946  -0.830  0.00  0.00    -0.007 C 
ATOM      5  C   LIG    1       -6.106   2.986  -2.219  0.00  0.00    +0.057 C 
ATOM      6  C   LIG    1       -6.239   1.556  -2.750  0.00  0.00    -0.007 C 
ATOM      7  C   LIG    1       -4.860   0.894  -2.769  0.00  0.00    -0.078 C 
ENDROOT
BRANCH   5   8
ATOM      8  C   LIG    1       -7.470   3.618  -2.124  0.00  0.00    +0.166 C 
ATOM      9  O   LIG    1       -8.081   3.588  -1.077  0.00  0.00    -0.292 OA
BRANCH   8  10
ATOM     10  C   LIG    1       -8.062   4.271  -3.301  0.00  0.00    +0.018 A 
ATOM     11  C   LIG    1       -7.362   4.302  -4.513  0.00  0.00    +0.014 A 
ATOM     12  C   LIG    1       -7.922   4.915  -5.612  0.00  0.00    +0.039 A 
ATOM     13  C   LIG    1       -9.175   5.502  -5.520  0.00  0.00    +0.123 A 
ATOM     14  F   LIG    1       -9.718   6.102  -6.601  0.00  0.00    -0.205 F 
ATOM     15  C   LIG    1       -9.874   5.474  -4.322  0.00  0.00    +0.039 A 
ATOM     16  C   LIG    1       -9.329   4.859  -3.217  0.00  0.00    +0.014 A 
ENDBRANCH   8  10
ENDBRANCH   5   8
BRANCH   1  17
ATOM     17  C   LIG    1       -3.022   0.157  -1.419  0.00  0.00    -0.074 C 
BRANCH  17  18
ATOM     18  C   LIG    1       -2.507   0.014   0.015  0.00  0.00    +0.024 C 
BRANCH  18  21
ATOM     19  C   LIG    1       -0.018   1.503   0.010  0.00  0.00    +0.066 C 
ATOM     20  C   LIG    1        0.002  -0.004   0.002  0.00  0.00    +0.049 A 
ATOM     21  C   LIG    1       -1.185  -0.710   0.004  0.00  0.00    +0.037 A 
ATOM     22  C   LIG    1       -1.140  -2.109  -0.004  0.00  0.00    +0.262 A 
ATOM     23  N   LIG    1        0.061  -2.725  -0.013  0.00  0.00    -0.268 N 
ATOM     24  C   LIG    1        0.121  -4.085  -0.021  0.00  0.00    +0.096 A 
ATOM     25  C   LIG    1        1.312  -4.725  -0.030  0.00  0.00    +0.018 A 
ATOM     26  C   LIG    1        2.506  -3.990  -0.031  0.00  0.00    +0.005 A 
ATOM     27  C   LIG    1        2.457  -2.628  -0.024  0.00  0.00    +0.047 A 
ATOM     28  C   LIG    1        1.208  -1.981  -0.015  0.00  0.00    +0.140 A 
ATOM     29  O   LIG    1       -2.172  -2.762  -0.003  0.00  0.00    -0.267 OA
ATOM     30  N   LIG    1        1.158  -0.650  -0.013  0.00  0.00    -0.234 NA
ENDBRANCH  18  21
ENDBRANCH  17  18
ENDBRANCH   1  17
TORSDOF 5
