REMARK  Name = ZINC00477315
REMARK                            x       y       z     vdW  Elec       q    Type
REMARK                         _______ _______ _______ _____ _____    ______ ____
ROOT
ATOM      1  C   LIG    1        0.168  -3.043   2.883  0.00  0.00    +0.048 A 
ATOM      2  C   LIG    1        0.147  -1.768   3.457  0.00  0.00    +0.063 A 
ATOM      3  C   LIG    1        0.256  -1.627   4.827  0.00  0.00    +0.166 A 
ATOM      4  C   LIG    1        0.385  -2.753   5.637  0.00  0.00    +0.204 A 
ATOM      5  C   LIG    1        0.405  -4.024   5.068  0.00  0.00    +0.166 A 
ATOM      6  C   LIG    1        0.292  -4.172   3.699  0.00  0.00    +0.063 A 
ENDROOT
BRANCH   1  12
ATOM      7  C   LIG    1        0.120   1.500  -0.000  0.00  0.00    +0.067 C 
ATOM      8  C   LIG    1        0.097  -0.007  -0.005  0.00  0.00    +0.060 A 
ATOM      9  C   LIG    1        0.082  -0.823  -1.145  0.00  0.00    +0.044 A 
ATOM     10  C   LIG    1        0.064  -2.111  -0.736  0.00  0.00    +0.118 A 
ATOM     11  N   LIG    1        0.067  -2.109   0.626  0.00  0.00    -0.203 N 
ATOM     12  C   LIG    1        0.052  -3.197   1.422  0.00  0.00    +0.279 C 
ATOM     13  O   LIG    1       -0.057  -4.305   0.934  0.00  0.00    -0.265 OA
ATOM     14  N   LIG    1        0.094  -0.775   1.052  0.00  0.00    -0.169 NA
ENDBRANCH   1  12
BRANCH   3  15
ATOM     15  O   LIG    1        0.237  -0.388   5.386  0.00  0.00    -0.491 OA
ATOM     16  C   LIG    1        0.102   0.723   4.497  0.00  0.00    +0.277 C 
ENDBRANCH   3  15
BRANCH   4  17
ATOM     17  O   LIG    1        0.492  -2.611   6.984  0.00  0.00    -0.488 OA
ATOM     18  C   LIG    1       -0.724  -2.612   7.734  0.00  0.00    +0.277 C 
ENDBRANCH   4  17
BRANCH   5  19
ATOM     19  O   LIG    1        0.532  -5.122   5.861  0.00  0.00    -0.491 OA
ATOM     20  C   LIG    1        0.545  -6.394   5.211  0.00  0.00    +0.277 C 
ENDBRANCH   5  19
TORSDOF 4
