REMARK  Name = ZINC00359012
REMARK                            x       y       z     vdW  Elec       q    Type
REMARK                         _______ _______ _______ _____ _____    ______ ____
ROOT
ATOM      1  C   LIG    1        3.459   2.489  -0.094  0.00  0.00    +0.041 A 
ATOM      2  C   LIG    1        3.138   3.850  -0.108  0.00  0.00    +0.015 A 
ATOM      3  C   LIG    1        4.136   4.790  -0.221  0.00  0.00    +0.024 A 
ATOM      4  C   LIG    1        5.464   4.387  -0.335  0.00  0.00    +0.033 A 
ATOM      5  C   LIG    1        5.787   3.034  -0.328  0.00  0.00    +0.024 A 
ATOM      6  C   LIG    1        4.794   2.088  -0.208  0.00  0.00    +0.015 A 
ENDROOT
BRANCH   1  12
ATOM      7  C   LIG    1       -1.591   4.346  -0.011  0.00  0.00    +0.067 C 
ATOM      8  C   LIG    1       -0.679   3.147   0.007  0.00  0.00    +0.060 A 
ATOM      9  C   LIG    1       -1.088   1.806   0.020  0.00  0.00    +0.044 A 
ATOM     10  C   LIG    1        0.019   1.032   0.038  0.00  0.00    +0.118 A 
ATOM     11  N   LIG    1        1.100   1.861   0.028  0.00  0.00    -0.203 N 
ATOM     12  C   LIG    1        2.393   1.480   0.034  0.00  0.00    +0.278 C 
ATOM     13  O   LIG    1        2.679   0.304   0.146  0.00  0.00    -0.265 OA
ATOM     14  N   LIG    1        0.627   3.179   0.009  0.00  0.00    -0.169 NA
ENDBRANCH   1  12
BRANCH   4  15
ATOM     15  N   LIG    1        6.472   5.342  -0.455  0.00  0.00    -0.286 N 
ATOM     16  H   LIG    1        6.399   6.187   0.016  0.00  0.00    +0.155 HD
ATOM     17  C   LIG    1        7.549   5.091  -1.226  0.00  0.00    +0.214 C 
ATOM     18  C   LIG    1        8.592   6.159  -1.434  0.00  0.00    +0.109 C 
ATOM     19  O   LIG    1        7.679   4.006  -1.752  0.00  0.00    -0.276 OA
ENDBRANCH   4  15
TORSDOF 2
