REMARK  Name = ZINC00407042
REMARK                            x       y       z     vdW  Elec       q    Type
REMARK                         _______ _______ _______ _____ _____    ______ ____
ROOT
ATOM      1  C   LIG    1       -1.218   1.751   0.017  0.00  0.00    +0.008 A 
ATOM      2  C   LIG    1       -0.013   1.076   0.008  0.00  0.00    +0.047 A 
ATOM      3  C   LIG    1        1.179   1.786   0.000  0.00  0.00    +0.135 A 
ATOM      4  C   LIG    1        1.156   3.174   0.008  0.00  0.00    +0.083 A 
ATOM      5 CL   LIG    1        2.645   4.067  -0.002  0.00  0.00    -0.080 Cl
ATOM      6  C   LIG    1       -0.052   3.844   0.023  0.00  0.00    +0.027 A 
ATOM      7  C   LIG    1       -1.238   3.133   0.030  0.00  0.00    -0.035 A 
ENDROOT
BRANCH   3   8
ATOM      8  O   LIG    1        2.366   1.124  -0.015  0.00  0.00    -0.505 OA
ATOM      9  H   LIG    1        2.700   0.938  -0.903  0.00  0.00    +0.292 HD
ENDBRANCH   3   8
BRANCH   7  10
ATOM     10  C   LIG    1       -2.555   3.866   0.047  0.00  0.00    +0.155 C 
BRANCH  10  11
ATOM     11  C   LIG    1       -3.007   4.119  -1.368  0.00  0.00    +0.309 C 
ATOM     12  O   LIG    1       -2.330   3.742  -2.295  0.00  0.00    -0.251 OA
BRANCH  11  13
ATOM     13  O   LIG    1       -4.162   4.762  -1.599  0.00  0.00    -0.480 OA
ATOM     14  H   LIG    1       -4.688   5.054  -0.880  0.00  0.00    +0.295 HD
ENDBRANCH  11  13
ENDBRANCH  10  11
ENDBRANCH   7  10
TORSDOF 4
