REMARK  Name = ZINC00641741
REMARK                            x       y       z     vdW  Elec       q    Type
REMARK                         _______ _______ _______ _____ _____    ______ ____
ROOT
ATOM      1  N   LIG    1       -4.550   9.087  -2.018  0.00  0.00    -0.331 N 
ATOM      2  C   LIG    1       -4.613   8.377  -3.303  0.00  0.00    +0.086 C 
ATOM      3  C   LIG    1       -4.925   6.900  -3.051  0.00  0.00    -0.060 C 
ATOM      4  N   LIG    1       -3.864   6.327  -2.197  0.00  0.00    +0.382 N 
ATOM      5  H   LIG    1       -2.958   6.443  -2.667  0.00  0.00    -0.082 HD
ATOM      6  C   LIG    1       -3.825   7.034  -0.899  0.00  0.00    -0.060 C 
ATOM      7  C   LIG    1       -3.512   8.511  -1.151  0.00  0.00    +0.086 C 
ENDROOT
BRANCH   1  13
ATOM      8  C   LIG    1       -5.269  11.382  -1.748  0.00  0.00    +0.141 A 
ATOM      9  C   LIG    1       -5.053  12.736  -1.943  0.00  0.00    +0.047 A 
ATOM     10  C   LIG    1       -3.914  13.167  -2.597  0.00  0.00    +0.004 A 
ATOM     11  C   LIG    1       -2.987  12.250  -3.058  0.00  0.00    +0.002 A 
ATOM     12  C   LIG    1       -3.193  10.898  -2.863  0.00  0.00    +0.027 A 
ATOM     13  C   LIG    1       -4.337  10.457  -2.213  0.00  0.00    +0.072 A 
BRANCH   8  15
ATOM     14  C   LIG    1       -7.301  11.960  -0.656  0.00  0.00    +0.277 C 
ATOM     15  O   LIG    1       -6.389  10.956  -1.104  0.00  0.00    -0.493 OA
ENDBRANCH   8  15
ENDBRANCH   1  13
BRANCH   4  16
ATOM     16  C   LIG    1       -4.112   4.886  -1.980  0.00  0.00    -0.077 C 
BRANCH  16  17
ATOM     17  C   LIG    1       -2.892   4.273  -1.289  0.00  0.00    +0.001 C 
BRANCH  17  18
ATOM     18  C   LIG    1       -3.125   2.776  -1.076  0.00  0.00    +0.116 C 
BRANCH  18  19
ATOM     19  N   LIG    1       -1.957   2.189  -0.414  0.00  0.00    -0.224 N 
ATOM     20  C   LIG    1       -0.887   1.659  -1.078  0.00  0.00    +0.244 C 
ATOM     21  C   LIG    1       -0.013   1.086   0.008  0.00  0.00    +0.164 C 
ATOM     22  C   LIG    1        1.402   1.698  -0.002  0.00  0.00    +0.033 C 
ATOM     23  C   LIG    1        1.804   1.621   1.494  0.00  0.00    +0.021 C 
ATOM     24  C   LIG    1        0.465   1.536   2.260  0.00  0.00    +0.110 C 
ATOM     25  N   LIG    1       -0.597   1.651   1.254  0.00  0.00    -0.274 N 
ATOM     26  O   LIG    1       -0.672   1.661  -2.271  0.00  0.00    -0.273 OA
ATOM     27  C   LIG    1       -1.809   2.098   0.917  0.00  0.00    +0.312 C 
ATOM     28  O   LIG    1       -2.675   2.388   1.719  0.00  0.00    -0.252 OA
ENDBRANCH  18  19
ENDBRANCH  17  18
ENDBRANCH  16  17
ENDBRANCH   4  16
TORSDOF 6
