REMARK  Name = ZINC00404005
REMARK                            x       y       z     vdW  Elec       q    Type
REMARK                         _______ _______ _______ _____ _____    ______ ____
ROOT
ATOM      1  C   LIG    1       -0.013   5.130  -1.932  0.00  0.00    +0.002 A 
ATOM      2  C   LIG    1       -0.015   3.748  -1.969  0.00  0.00    +0.003 A 
ATOM      3  C   LIG    1       -0.793   3.033  -1.078  0.00  0.00    -0.045 A 
ATOM      4  C   LIG    1       -1.574   3.701  -0.152  0.00  0.00    +0.061 A 
ATOM      5 CL   LIG    1       -2.558   2.804   0.962  0.00  0.00    -0.082 Cl
ATOM      6  C   LIG    1       -1.568   5.085  -0.112  0.00  0.00    +0.059 A 
ATOM      7 CL   LIG    1       -2.543   5.924   1.054  0.00  0.00    -0.082 Cl
ATOM      8  C   LIG    1       -0.788   5.799  -1.004  0.00  0.00    +0.021 A 
ENDROOT
BRANCH   3   9
ATOM      9  C   LIG    1       -0.795   1.527  -1.120  0.00  0.00    -0.049 C 
BRANCH   9  10
ATOM     10  N   LIG    1       -0.025   1.014   0.027  0.00  0.00    +0.381 N 
ATOM     11  H   LIG    1       -0.476   1.316   0.899  0.00  0.00    -0.090 HD
ATOM     12  H   LIG    1        0.925   1.379   0.001  0.00  0.00    -0.090 HD
ATOM     13  H   LIG    1        0.002  -0.004   0.002  0.00  0.00    -0.090 HD
ENDBRANCH   9  10
ENDBRANCH   3   9
TORSDOF 2
