REMARK  Name = ZINC00602902
REMARK                            x       y       z     vdW  Elec       q    Type
REMARK                         _______ _______ _______ _____ _____    ______ ____
ROOT
ATOM      1  C   LIG    1        6.866  -2.588  -4.886  0.00  0.00    +0.245 C 
ATOM      2  N   LIG    1        8.179  -2.852  -5.038  0.00  0.00    -0.308 N 
ATOM      3  H   LIG    1        8.504  -3.234  -5.868  0.00  0.00    +0.149 HD
ATOM      4  O   LIG    1        6.446  -2.189  -3.817  0.00  0.00    -0.270 OA
ENDROOT
BRANCH   2   5
ATOM      5  C   LIG    1        9.073  -2.576  -3.998  0.00  0.00    +0.074 C 
ATOM      6  C   LIG    1        8.669  -2.749  -2.670  0.00  0.00    +0.024 C 
ATOM      7  C   LIG    1        9.517  -2.488  -1.640  0.00  0.00    +0.021 C 
ATOM      8  C   LIG    1       10.823  -2.037  -1.902  0.00  0.00    +0.059 C 
ATOM      9  C   LIG    1       11.238  -1.860  -3.244  0.00  0.00    +0.024 C 
ATOM     10  C   LIG    1       12.553  -1.406  -3.500  0.00  0.00    +0.057 C 
ATOM     11  C   LIG    1       13.376  -1.155  -2.413  0.00  0.00    +0.037 C 
ATOM     12  C   LIG    1       12.894  -1.353  -1.127  0.00  0.00    +0.052 C 
ATOM     13  C   LIG    1       13.800  -1.075   0.045  0.00  0.00    +0.024 C 
ATOM     14  N   LIG    1       11.672  -1.775  -0.902  0.00  0.00    -0.310 NA
ATOM     15  H   LIG    1       11.376  -1.899   0.014  0.00  0.00    +0.122 HD
ATOM     16  C   LIG    1       10.348  -2.140  -4.290  0.00  0.00    +0.029 C 
BRANCH  10  17
ATOM     17  N   LIG    1       13.006  -1.218  -4.798  0.00  0.00    -0.327 NA
ATOM     18  H   LIG    1       13.910  -0.906  -4.956  0.00  0.00    +0.118 HD
ATOM     19  H   LIG    1       12.417  -1.399  -5.548  0.00  0.00    +0.118 HD
ENDBRANCH  10  17
ENDBRANCH   2   5
BRANCH   1  25
ATOM     20  C   LIG    1        4.577  -2.512  -5.864  0.00  0.00    +0.002 A 
ATOM     21  C   LIG    1        3.715  -2.692  -6.926  0.00  0.00    +0.008 A 
ATOM     22  C   LIG    1        4.196  -3.147  -8.141  0.00  0.00    +0.000 A 
ATOM     23  C   LIG    1        5.543  -3.425  -8.299  0.00  0.00    +0.001 A 
ATOM     24  C   LIG    1        6.414  -3.249  -7.245  0.00  0.00    +0.013 A 
ATOM     25  C   LIG    1        5.937  -2.784  -6.018  0.00  0.00    +0.043 A 
BRANCH  20  26
ATOM     26  C   LIG    1        4.051  -2.016  -4.541  0.00  0.00    +0.265 C 
BRANCH  26  27
ATOM     27  O   LIG    1        2.640  -1.812  -4.636  0.00  0.00    -0.487 OA
BRANCH  27  31
ATOM     28  C   LIG    1        0.713  -0.450  -1.252  0.00  0.00    -0.047 A 
ATOM     29  C   LIG    1       -0.007  -0.687  -2.408  0.00  0.00    +0.007 A 
ATOM     30  C   LIG    1        0.635  -1.143  -3.542  0.00  0.00    +0.046 A 
ATOM     31  C   LIG    1        2.005  -1.363  -3.521  0.00  0.00    +0.121 A 
ATOM     32  C   LIG    1        2.726  -1.124  -2.360  0.00  0.00    +0.046 A 
ATOM     33  C   LIG    1        2.079  -0.663  -1.230  0.00  0.00    +0.007 A 
BRANCH  28  35
ATOM     34  C   LIG    1       -0.009   1.577  -0.020  0.00  0.00    +0.009 C 
ATOM     35  C   LIG    1        0.009   0.047  -0.015  0.00  0.00    +0.032 C 
ENDBRANCH  28  35
ENDBRANCH  27  31
ENDBRANCH  26  27
ENDBRANCH  20  26
ENDBRANCH   1  25
TORSDOF 7
