REMARK  Name = ZINC00586596
REMARK                            x       y       z     vdW  Elec       q    Type
REMARK                         _______ _______ _______ _____ _____    ______ ____
ROOT
ATOM      1  C   LIG    1       -1.944  -1.698   0.295  0.00  0.00    +0.047 A 
ATOM      2  C   LIG    1       -3.285  -2.063   0.488  0.00  0.00    +0.256 A 
ATOM      3  N   LIG    1       -4.240  -1.112   0.494  0.00  0.00    -0.302 N 
ATOM      4  C   LIG    1       -3.918   0.182   0.315  0.00  0.00    +0.163 A 
ATOM      5  N   LIG    1       -2.639   0.560   0.133  0.00  0.00    -0.291 N 
ATOM      6  S   LIG    1       -5.154   1.367   0.327  0.00  0.00    -0.013 S 
ATOM      7  H   LIG    1       -5.196  -1.371   0.631  0.00  0.00    +0.171 HD
ATOM      8  O   LIG    1       -3.585  -3.234   0.651  0.00  0.00    -0.267 OA
ATOM      9  C   LIG    1       -1.634  -0.378   0.115  0.00  0.00    +0.093 A 
ENDROOT
BRANCH   1  11
ATOM     10  C   LIG    1       -0.417  -3.035   1.720  0.00  0.00    +0.009 C 
ATOM     11  C   LIG    1       -0.861  -2.746   0.285  0.00  0.00    +0.040 C 
ENDBRANCH   1  11
BRANCH   5  12
ATOM     12  C   LIG    1       -2.317   1.977  -0.052  0.00  0.00    +0.287 C 
BRANCH  12  13
ATOM     13  O   LIG    1       -2.004   2.218  -1.425  0.00  0.00    -0.355 OA
BRANCH  13  14
ATOM     14  C   LIG    1       -3.149   2.322  -2.274  0.00  0.00    +0.197 C 
BRANCH  14  15
ATOM     15  C   LIG    1       -2.702   2.530  -3.698  0.00  0.00    -0.022 A 
ATOM     16  C   LIG    1       -2.519   3.810  -4.185  0.00  0.00    +0.006 A 
ATOM     17  C   LIG    1       -2.104   4.001  -5.490  0.00  0.00    +0.000 A 
ATOM     18  C   LIG    1       -1.882   2.911  -6.311  0.00  0.00    +0.000 A 
ATOM     19  C   LIG    1       -2.070   1.630  -5.825  0.00  0.00    +0.000 A 
ATOM     20  C   LIG    1       -2.480   1.440  -4.519  0.00  0.00    +0.006 A 
ENDBRANCH  14  15
ENDBRANCH  13  14
ENDBRANCH  12  13
ENDBRANCH   5  12
BRANCH   9  21
ATOM     21  S   LIG    1        0.039   0.117  -0.131  0.00  0.00    -0.071 S 
BRANCH  21  22
ATOM     22  C   LIG    1        0.357   0.900   1.415  0.00  0.00    +0.014 A 
ATOM     23  C   LIG    1       -0.589   0.844   2.432  0.00  0.00    +0.015 A 
ATOM     24  C   LIG    1       -0.334   1.454   3.644  0.00  0.00    +0.001 A 
ATOM     25  C   LIG    1        0.856   2.128   3.844  0.00  0.00    +0.000 A 
ATOM     26  C   LIG    1        1.798   2.191   2.833  0.00  0.00    +0.001 A 
ATOM     27  C   LIG    1        1.552   1.579   1.620  0.00  0.00    +0.015 A 
ENDBRANCH  21  22
ENDBRANCH   9  21
TORSDOF 7
