REMARK  Name = ZINC00367972
REMARK                            x       y       z     vdW  Elec       q    Type
REMARK                         _______ _______ _______ _____ _____    ______ ____
ROOT
ATOM      1  C   LIG    1        3.594  -0.821  -0.037  0.00  0.00    +0.155 C 
ATOM      2  N   LIG    1        2.351  -0.046  -0.021  0.00  0.00    -0.281 N 
ATOM      3  C   LIG    1        2.399   1.339  -0.014  0.00  0.00    +0.145 A 
ATOM      4  N   LIG    1        3.395   2.231  -0.018  0.00  0.00    -0.332 N 
ATOM      5  H   LIG    1        4.395   2.000  -0.029  0.00  0.00    +0.168 HD
ATOM      6  C   LIG    1        2.900   3.444  -0.007  0.00  0.00    +0.176 A 
ATOM      7  N   LIG    1        1.554   3.387   0.005  0.00  0.00    -0.322 N 
ATOM      8  C   LIG    1        1.206   2.051   0.002  0.00  0.00    +0.150 A 
ATOM      9  C   LIG    1       -0.016   1.345   0.009  0.00  0.00    +0.282 A 
ATOM     10  N   LIG    1        0.002  -0.004   0.002  0.00  0.00    -0.262 N 
ATOM     11  C   LIG    1       -1.263  -0.743   0.010  0.00  0.00    +0.157 C 
ATOM     12  O   LIG    1       -1.075   1.947   0.018  0.00  0.00    -0.265 OA
ATOM     13  C   LIG    1        1.164  -0.680  -0.013  0.00  0.00    +0.333 A 
ATOM     14  O   LIG    1        1.141  -1.896  -0.019  0.00  0.00    -0.246 OA
ENDROOT
BRANCH   7  15
ATOM     15  C   LIG    1        0.634   4.527   0.020  0.00  0.00    +0.150 C 
BRANCH  15  16
ATOM     16  C   LIG    1        0.235   4.832   1.441  0.00  0.00    -0.013 C 
ATOM     17  C   LIG    1        0.410   6.037   1.925  0.00  0.00    +0.005 C 
ENDBRANCH  15  16
ENDBRANCH   7  15
TORSDOF 2
