REMARK  Name = ZINC00591998
REMARK                            x       y       z     vdW  Elec       q    Type
REMARK                         _______ _______ _______ _____ _____    ______ ____
ROOT
ATOM      1  C   LIG    1        0.245   1.136  -0.137  0.00  0.00    +0.132 C 
ATOM      2  N   LIG    1        0.062  -0.310   0.015  0.00  0.00    -0.303 N 
ATOM      3  C   LIG    1       -0.060  -1.091  -1.077  0.00  0.00    +0.220 C 
ATOM      4  O   LIG    1       -0.212  -2.288  -0.952  0.00  0.00    -0.275 OA
ENDROOT
BRANCH   2   5
ATOM      5  C   LIG    1        0.012  -0.906   1.352  0.00  0.00    +0.062 C 
ATOM      6  C   LIG    1        1.322  -0.619   2.087  0.00  0.00    +0.021 C 
ATOM      7  C   LIG    1        1.270  -1.242   3.484  0.00  0.00    +0.002 C 
ATOM      8  C   LIG    1        0.103  -0.638   4.268  0.00  0.00    -0.001 C 
ATOM      9  C   LIG    1       -1.208  -0.925   3.532  0.00  0.00    -0.013 C 
ATOM     10  C   LIG    1       -1.155  -0.302   2.136  0.00  0.00    -0.048 C 
BRANCH  10  11
ATOM     11  N   LIG    1       -2.414  -0.578   1.429  0.00  0.00    +0.383 N 
ATOM     12  H   LIG    1       -2.363  -0.235   0.482  0.00  0.00    -0.081 HD
ATOM     13  C   LIG    1       -2.696  -2.036   1.435  0.00  0.00    -0.078 C 
ATOM     14  C   LIG    1       -4.225  -2.103   1.195  0.00  0.00    -0.020 C 
ATOM     15  C   LIG    1       -4.753  -0.892   1.998  0.00  0.00    -0.020 C 
ATOM     16  C   LIG    1       -3.546   0.054   2.140  0.00  0.00    -0.078 C 
ENDBRANCH  10  11
ENDBRANCH   2   5
BRANCH   3  17
ATOM     17  C   LIG    1       -0.009  -0.478  -2.452  0.00  0.00    +0.131 C 
BRANCH  17  18
ATOM     18  C   LIG    1       -0.169  -1.559  -3.490  0.00  0.00    -0.037 A 
ATOM     19  C   LIG    1        0.945  -2.211  -3.986  0.00  0.00    +0.005 A 
ATOM     20  C   LIG    1        0.800  -3.202  -4.938  0.00  0.00    +0.022 A 
ATOM     21  C   LIG    1       -0.460  -3.542  -5.396  0.00  0.00    +0.059 A 
ATOM     22 CL   LIG    1       -0.643  -4.787  -6.592  0.00  0.00    -0.082 Cl
ATOM     23  C   LIG    1       -1.576  -2.890  -4.899  0.00  0.00    +0.060 A 
ATOM     24 CL   LIG    1       -3.158  -3.315  -5.473  0.00  0.00    -0.082 Cl
ATOM     25  C   LIG    1       -1.429  -1.901  -3.942  0.00  0.00    +0.025 A 
ENDBRANCH  17  18
ENDBRANCH   3  17
TORSDOF 4
