REMARK  Name = ZINC00537805
REMARK                            x       y       z     vdW  Elec       q    Type
REMARK                         _______ _______ _______ _____ _____    ______ ____
ROOT
ATOM      1  C   LIG    1       -0.910  -7.297  -1.748  0.00  0.00    -0.046 A 
ATOM      2  C   LIG    1       -2.231  -7.690  -1.641  0.00  0.00    +0.005 A 
ATOM      3  C   LIG    1       -2.808  -8.452  -2.640  0.00  0.00    +0.029 A 
ATOM      4  C   LIG    1       -2.064  -8.820  -3.745  0.00  0.00    +0.113 A 
ATOM      5  C   LIG    1       -0.744  -8.426  -3.853  0.00  0.00    +0.029 A 
ATOM      6  C   LIG    1       -0.168  -7.660  -2.856  0.00  0.00    +0.005 A 
ENDROOT
BRANCH   4   7
ATOM      7  S   LIG    1       -2.800  -9.792  -5.018  0.00  0.00    +0.103 S 
ATOM      8  O   LIG    1       -3.885 -10.489  -4.421  0.00  0.00    -0.146 OA
ATOM      9  O   LIG    1       -1.737 -10.462  -5.683  0.00  0.00    -0.146 OA
BRANCH   7  10
ATOM     10  N   LIG    1       -3.459  -8.743  -6.116  0.00  0.00    -0.076 NA
ATOM     11  C   LIG    1       -4.071  -9.202  -7.168  0.00  0.00    +0.299 C 
BRANCH  11  12
ATOM     12  N   LIG    1       -4.618  -8.332  -8.079  0.00  0.00    -0.295 N 
ATOM     13  H   LIG    1       -4.548  -7.375  -7.939  0.00  0.00    +0.151 HD
BRANCH  12  14
ATOM     14  C   LIG    1       -5.308  -8.849  -9.264  0.00  0.00    +0.075 C 
ATOM     15  C   LIG    1       -4.285  -9.131 -10.367  0.00  0.00    +0.022 C 
ATOM     16  C   LIG    1       -5.005  -9.671 -11.604  0.00  0.00    +0.002 C 
ATOM     17  C   LIG    1       -6.017  -8.635 -12.098  0.00  0.00    +0.000 C 
ATOM     18  C   LIG    1       -7.039  -8.354 -10.996  0.00  0.00    +0.002 C 
ATOM     19  C   LIG    1       -6.319  -7.813  -9.758  0.00  0.00    +0.022 C 
ENDBRANCH  12  14
ENDBRANCH  11  12
BRANCH  11  20
ATOM     20  O   LIG    1       -4.170 -10.535  -7.364  0.00  0.00    -0.481 OA
ATOM     21  H   LIG    1       -3.797 -11.129  -6.743  0.00  0.00    +0.295 HD
ENDBRANCH  11  20
ENDBRANCH   7  10
ENDBRANCH   4   7
BRANCH   1  22
ATOM     22  C   LIG    1       -0.281  -6.466  -0.659  0.00  0.00    +0.054 C 
BRANCH  22  23
ATOM     23  C   LIG    1       -0.487  -4.982  -0.966  0.00  0.00    +0.109 C 
BRANCH  23  25
ATOM     24  C   LIG    1        0.067  -2.829   0.032  0.00  0.00    +0.248 C 
ATOM     25  N   LIG    1        0.125  -4.174   0.092  0.00  0.00    -0.311 N 
ATOM     26  H   LIG    1        0.571  -4.608   0.836  0.00  0.00    +0.149 HD
ATOM     27  O   LIG    1       -0.493  -2.286  -0.900  0.00  0.00    -0.270 OA
BRANCH  24  34
ATOM     28  C   LIG    1        0.625  -0.617   1.040  0.00  0.00    +0.132 A 
ATOM     29  C   LIG    1        1.202   0.138   2.050  0.00  0.00    +0.048 A 
ATOM     30  C   LIG    1        1.835  -0.487   3.106  0.00  0.00    +0.023 A 
ATOM     31  C   LIG    1        1.900  -1.871   3.164  0.00  0.00    +0.042 A 
ATOM     32 CL   LIG    1        2.701  -2.643   4.497  0.00  0.00    -0.084 Cl
ATOM     33  C   LIG    1        1.332  -2.636   2.168  0.00  0.00    +0.036 A 
ATOM     34  C   LIG    1        0.683  -2.016   1.098  0.00  0.00    +0.080 A 
BRANCH  28  36
ATOM     35  C   LIG    1       -0.017   1.425   0.010  0.00  0.00    +0.277 C 
ATOM     36  O   LIG    1        0.002  -0.004   0.002  0.00  0.00    -0.494 OA
ENDBRANCH  28  36
ENDBRANCH  24  34
ENDBRANCH  23  25
ENDBRANCH  22  23
ENDBRANCH   1  22
TORSDOF 10
