REMARK  Name = ZINC00443777
REMARK                            x       y       z     vdW  Elec       q    Type
REMARK                         _______ _______ _______ _____ _____    ______ ____
ROOT
ATOM      1  C   LIG    1       -1.256   3.518   0.028  0.00  0.00    +0.101 C 
ATOM      2  C   LIG    1       -1.207   2.016   0.019  0.00  0.00    +0.098 C 
ATOM      3  C   LIG    1       -0.017   1.369   0.010  0.00  0.00    +0.198 C 
ATOM      4  O   LIG    1        1.145   2.042   0.002  0.00  0.00    -0.445 OA
ATOM      5  C   LIG    1        1.176   3.318  -0.425  0.00  0.00    +0.115 C 
ATOM      6  C   LIG    1        2.496   3.873  -0.905  0.00  0.00    +0.086 C 
ATOM      7  C   LIG    1        2.561   5.373  -0.612  0.00  0.00    +0.070 C 
ATOM      8  C   LIG    1        1.388   6.058  -1.322  0.00  0.00    +0.091 C 
ATOM      9  C   LIG    1        0.104   5.420  -0.866  0.00  0.00    +0.164 C 
ATOM     10  O   LIG    1       -0.921   6.073  -0.873  0.00  0.00    -0.292 OA
ATOM     11  C   LIG    1        0.068   4.081  -0.432  0.00  0.00    +0.046 C 
ENDROOT
BRANCH   1  15
ATOM     12  C   LIG    1       -2.081   4.891   3.988  0.00  0.00    +0.000 A 
ATOM     13  C   LIG    1       -2.950   5.194   2.956  0.00  0.00    +0.000 A 
ATOM     14  C   LIG    1       -2.683   4.749   1.675  0.00  0.00    +0.004 A 
ATOM     15  C   LIG    1       -1.547   4.003   1.425  0.00  0.00    -0.035 A 
ATOM     16  C   LIG    1       -0.680   3.696   2.457  0.00  0.00    +0.004 A 
ATOM     17  C   LIG    1       -0.945   4.144   3.738  0.00  0.00    +0.000 A 
ENDBRANCH   1  15
BRANCH   7  18
ATOM     18  C   LIG    1        3.863   5.934  -1.121  0.00  0.00    +0.109 A 
ATOM     19  C   LIG    1        4.804   6.541  -0.376  0.00  0.00    +0.045 A 
ATOM     20  C   LIG    1        5.850   6.906  -1.254  0.00  0.00    +0.041 A 
ATOM     21  C   LIG    1        5.487   6.499  -2.483  0.00  0.00    +0.195 A 
ATOM     22  O   LIG    1        4.285   5.906  -2.396  0.00  0.00    -0.468 OA
ENDBRANCH   7  18
BRANCH   3  23
ATOM     23  N   LIG    1        0.002  -0.004   0.002  0.00  0.00    -0.328 N 
ATOM     24  H   LIG    1       -0.831  -0.500   0.007  0.00  0.00    +0.145 HD
ATOM     25  H   LIG    1        0.849  -0.478  -0.009  0.00  0.00    +0.145 HD
ENDBRANCH   3  23
BRANCH   2  26
ATOM     26  C   LIG    1       -2.426   1.264   0.025  0.00  0.00    +0.101 C 
ATOM     27  N   LIG    1       -3.393   0.668   0.030  0.00  0.00    -0.191 NA
ENDBRANCH   2  26
TORSDOF 4
