REMARK  Name = ZINC00580356
REMARK                            x       y       z     vdW  Elec       q    Type
REMARK                         _______ _______ _______ _____ _____    ______ ____
ROOT
ATOM      1  C   LIG    1        0.015   1.699  -0.133  0.00  0.00    +0.047 C 
ATOM      2  C   LIG    1       -0.705   1.866   1.180  0.00  0.00    -0.008 A 
ATOM      3  C   LIG    1        0.013   2.100   2.334  0.00  0.00    +0.017 A 
ATOM      4  C   LIG    1       -0.654   2.255   3.549  0.00  0.00    +0.003 A 
ATOM      5  C   LIG    1       -2.046   2.172   3.592  0.00  0.00    +0.017 A 
ATOM      6  C   LIG    1       -2.757   1.938   2.435  0.00  0.00    -0.008 A 
ATOM      7  C   LIG    1       -4.261   1.849   2.481  0.00  0.00    +0.047 C 
ATOM      8  C   LIG    1       -2.090   1.790   1.226  0.00  0.00    +0.127 A 
ENDROOT
BRANCH   4   9
ATOM      9  C   LIG    1        0.114   2.506   4.791  0.00  0.00    +0.099 A 
ATOM     10  C   LIG    1        1.264   3.421   4.774  0.00  0.00    +0.015 A 
ATOM     11  C   LIG    1        1.665   4.074   3.609  0.00  0.00    +0.011 A 
ATOM     12  C   LIG    1        2.750   4.923   3.645  0.00  0.00    +0.001 A 
ATOM     13  C   LIG    1        3.446   5.134   4.828  0.00  0.00    +0.001 A 
ATOM     14  C   LIG    1        3.067   4.500   5.990  0.00  0.00    +0.014 A 
ATOM     15  C   LIG    1        1.972   3.636   5.976  0.00  0.00    +0.050 A 
ATOM     16  C   LIG    1        1.523   2.933   7.184  0.00  0.00    +0.275 A 
ATOM     17  N   LIG    1        0.456   2.112   7.104  0.00  0.00    -0.232 N 
ATOM     18  C   LIG    1        0.006   1.410   8.308  0.00  0.00    +0.176 C 
ATOM     19  O   LIG    1        2.105   3.089   8.243  0.00  0.00    -0.266 OA
ATOM     20  N   LIG    1       -0.234   1.917   5.907  0.00  0.00    -0.168 NA
ENDBRANCH   4   9
BRANCH   8  21
ATOM     21  O   LIG    1       -2.795   1.565   0.086  0.00  0.00    -0.480 OA
BRANCH  21  22
ATOM     22  C   LIG    1       -3.056   0.203  -0.257  0.00  0.00    +0.349 C 
BRANCH  22  23
ATOM     23  C   LIG    1       -3.842   0.150  -1.541  0.00  0.00    +0.345 C 
ATOM     24  O   LIG    1       -4.148   1.174  -2.105  0.00  0.00    -0.247 OA
BRANCH  23  25
ATOM     25  O   LIG    1       -4.203  -1.035  -2.059  0.00  0.00    -0.466 OA
ATOM     26  C   LIG    1       -4.959  -1.010  -3.299  0.00  0.00    +0.280 C 
ENDBRANCH  23  25
ENDBRANCH  22  23
ENDBRANCH  21  22
ENDBRANCH   8  21
TORSDOF 5
