REMARK  Name = ZINC00538658
REMARK                            x       y       z     vdW  Elec       q    Type
REMARK                         _______ _______ _______ _____ _____    ______ ____
ROOT
ATOM      1  C   LIG    1       -0.497   1.330  -1.204  0.00  0.00    +0.034 A 
ATOM      2  C   LIG    1        0.613   1.993  -1.719  0.00  0.00    +0.024 A 
ATOM      3  C   LIG    1        1.759   1.292  -2.015  0.00  0.00    +0.015 A 
ATOM      4  C   LIG    1        1.809  -0.088  -1.797  0.00  0.00    +0.040 A 
ATOM      5  C   LIG    1        0.692  -0.751  -1.280  0.00  0.00    -0.037 A 
ATOM      6  C   LIG    1        0.741  -2.238  -1.043  0.00  0.00    +0.044 C 
ATOM      7  C   LIG    1       -0.452  -0.043  -0.986  0.00  0.00    +0.027 A 
ENDROOT
BRANCH   4   8
ATOM      8  C   LIG    1        3.036  -0.843  -2.113  0.00  0.00    +0.251 C 
ATOM      9  N   LIG    1        4.227  -0.419  -1.647  0.00  0.00    -0.267 N 
ATOM     10  C   LIG    1        5.451  -1.210  -1.859  0.00  0.00    +0.114 C 
ATOM     11  C   LIG    1        6.202  -0.699  -3.066  0.00  0.00    +0.022 C 
ATOM     12  C   LIG    1        6.717   0.724  -2.908  0.00  0.00    +0.038 C 
ATOM     13  C   LIG    1        5.570   1.730  -2.913  0.00  0.00    +0.146 C 
ATOM     14  C   LIG    1        5.012   1.858  -1.506  0.00  0.00    +0.004 A 
ATOM     15  C   LIG    1        5.170   3.033  -0.803  0.00  0.00    +0.028 A 
ATOM     16  C   LIG    1        4.631   3.158   0.452  0.00  0.00    +0.041 A 
ATOM     17 CL   LIG    1        4.830   4.635   1.341  0.00  0.00    -0.084 Cl
ATOM     18  C   LIG    1        3.929   2.104   1.010  0.00  0.00    +0.022 A 
ATOM     19  C   LIG    1        3.782   0.919   0.315  0.00  0.00    +0.025 A 
ATOM     20  C   LIG    1        4.340   0.789  -0.951  0.00  0.00    +0.042 A 
ATOM     21  O   LIG    1        2.973  -1.848  -2.795  0.00  0.00    -0.270 OA
BRANCH  13  22
ATOM     22  O   LIG    1        4.542   1.277  -3.796  0.00  0.00    -0.387 OA
ATOM     23  H   LIG    1        3.780   1.869  -3.849  0.00  0.00    +0.210 HD
ENDBRANCH  13  22
ENDBRANCH   4   8
BRANCH   1  25
ATOM     24  C   LIG    1       -1.575   3.293  -0.417  0.00  0.00    +0.249 C 
ATOM     25  N   LIG    1       -1.659   2.042  -0.911  0.00  0.00    -0.281 N 
ATOM     26  H   LIG    1       -2.527   1.638  -1.063  0.00  0.00    +0.155 HD
ATOM     27  O   LIG    1       -0.490   3.827  -0.292  0.00  0.00    -0.270 OA
BRANCH  24  34
ATOM     28  C   LIG    1       -1.376   5.965   0.677  0.00  0.00    +0.044 C 
ATOM     29  C   LIG    1       -2.720   5.306   0.503  0.00  0.00    -0.038 A 
ATOM     30  C   LIG    1       -3.870   5.976   0.865  0.00  0.00    +0.004 A 
ATOM     31  C   LIG    1       -5.105   5.373   0.705  0.00  0.00    +0.000 A 
ATOM     32  C   LIG    1       -5.195   4.095   0.181  0.00  0.00    +0.001 A 
ATOM     33  C   LIG    1       -4.053   3.416  -0.189  0.00  0.00    +0.013 A 
ATOM     34  C   LIG    1       -2.804   4.017  -0.026  0.00  0.00    +0.040 A 
ENDBRANCH  24  34
ENDBRANCH   1  25
TORSDOF 4
