REMARK  Name = ZINC00603064
REMARK                            x       y       z     vdW  Elec       q    Type
REMARK                         _______ _______ _______ _____ _____    ______ ____
ROOT
ATOM      1  N   LIG    1        1.236  -2.081  -0.036  0.00  0.00    -0.268 N 
ATOM      2  H   LIG    1        2.078  -2.553  -0.138  0.00  0.00    +0.156 HD
ATOM      3  C   LIG    1        0.086  -2.773   0.087  0.00  0.00    +0.308 C 
ATOM      4  N   LIG    1        0.115  -4.117   0.182  0.00  0.00    -0.267 N 
ATOM      5  H   LIG    1        0.965  -4.581   0.244  0.00  0.00    +0.156 HD
ATOM      6  O   LIG    1       -0.978  -2.185   0.113  0.00  0.00    -0.252 OA
ENDROOT
BRANCH   4   7
ATOM      7  C   LIG    1       -1.073  -4.840   0.190  0.00  0.00    +0.064 A 
ATOM      8  C   LIG    1       -2.208  -4.312  -0.392  0.00  0.00    +0.027 A 
ATOM      9  C   LIG    1       -3.408  -5.005  -0.403  0.00  0.00    +0.023 A 
ATOM     10  C   LIG    1       -3.524  -6.262   0.173  0.00  0.00    +0.081 A 
ATOM     11  C   LIG    1       -2.355  -6.873   0.806  0.00  0.00    +0.132 A 
ATOM     12  N   LIG    1       -2.105  -8.009   1.428  0.00  0.00    -0.153 NA
ATOM     13  N   LIG    1       -0.865  -8.026   1.777  0.00  0.00    -0.196 N 
ATOM     14  H   LIG    1       -0.433  -8.774   2.250  0.00  0.00    +0.213 HD
ATOM     15  N   LIG    1       -0.260  -6.943   1.430  0.00  0.00    -0.153 NA
ATOM     16  C   LIG    1       -1.123  -6.158   0.807  0.00  0.00    +0.135 A 
BRANCH  10  17
ATOM     17  C   LIG    1       -4.777  -6.955   0.149  0.00  0.00    +0.101 C 
ATOM     18  N   LIG    1       -5.771  -7.505   0.130  0.00  0.00    -0.191 NA
ENDBRANCH  10  17
ENDBRANCH   4   7
BRANCH   1  24
ATOM     19  C   LIG    1        0.164   1.372   0.635  0.00  0.00    +0.002 A 
ATOM     20  C   LIG    1        1.177   2.085   0.021  0.00  0.00    +0.001 A 
ATOM     21  C   LIG    1        2.210   1.419  -0.612  0.00  0.00    +0.017 A 
ATOM     22  C   LIG    1        2.233   0.037  -0.633  0.00  0.00    +0.039 A 
ATOM     23 BR   LIG    1        3.646  -0.873  -1.499  0.00  0.00    -0.048 Br
ATOM     24  C   LIG    1        1.216  -0.682  -0.017  0.00  0.00    +0.049 A 
ATOM     25  C   LIG    1        0.180  -0.009   0.618  0.00  0.00    +0.024 A 
ENDBRANCH   1  24
TORSDOF 3
