REMARK  Name = ZINC00478097
REMARK                            x       y       z     vdW  Elec       q    Type
REMARK                         _______ _______ _______ _____ _____    ______ ____
ROOT
ATOM      1  N   LIG    1        3.620  -0.649  -0.036  0.00  0.00    -0.246 N 
ATOM      2  C   LIG    1        3.854  -1.886  -0.502  0.00  0.00    +0.270 A 
ATOM      3  C   LIG    1        5.211  -2.413  -0.424  0.00  0.00    +0.055 A 
ATOM      4  C   LIG    1        5.730  -3.659  -0.831  0.00  0.00    +0.014 A 
ATOM      5  C   LIG    1        7.050  -3.945  -0.660  0.00  0.00    +0.001 A 
ATOM      6  C   LIG    1        7.922  -3.030  -0.085  0.00  0.00    +0.001 A 
ATOM      7  C   LIG    1        7.449  -1.799   0.325  0.00  0.00    +0.017 A 
ATOM      8  C   LIG    1        6.114  -1.496   0.158  0.00  0.00    +0.042 A 
ATOM      9  O   LIG    1        2.952  -2.553  -0.979  0.00  0.00    -0.266 OA
ATOM     10  S   LIG    1        5.098  -0.090   0.515  0.00  0.00    -0.003 S 
ENDROOT
BRANCH   1  14
ATOM     11  C   LIG    1       -0.017   1.379   0.010  0.00  0.00    +0.000 A 
ATOM     12  C   LIG    1        1.169   2.090   0.002  0.00  0.00    +0.002 A 
ATOM     13  C   LIG    1        2.377   1.420  -0.013  0.00  0.00    +0.027 A 
ATOM     14  C   LIG    1        2.400   0.031  -0.021  0.00  0.00    +0.057 A 
ATOM     15  C   LIG    1        1.206  -0.680  -0.013  0.00  0.00    +0.027 A 
ATOM     16  C   LIG    1        0.002  -0.004   0.002  0.00  0.00    +0.002 A 
ENDBRANCH   1  14
TORSDOF 1
