REMARK  Name = ZINC00388159
REMARK                            x       y       z     vdW  Elec       q    Type
REMARK                         _______ _______ _______ _____ _____    ______ ____
ROOT
ATOM      1  C   LIG    1       -0.017   1.377   0.010  0.00  0.00    +0.016 A 
ATOM      2  C   LIG    1        0.002  -0.004   0.002  0.00  0.00    +0.021 A 
ATOM      3  C   LIG    1        1.209  -0.681  -0.013  0.00  0.00    +0.041 A 
ATOM      4 CL   LIG    1        1.228  -2.417  -0.022  0.00  0.00    -0.084 Cl
ATOM      5  C   LIG    1        2.401   0.023  -0.020  0.00  0.00    +0.021 A 
ATOM      6  C   LIG    1        2.388   1.404  -0.012  0.00  0.00    +0.016 A 
ATOM      7  C   LIG    1        1.178   2.086   0.002  0.00  0.00    +0.005 A 
ENDROOT
BRANCH   7   8
ATOM      8  S   LIG    1        1.158   3.848   0.011  0.00  0.00    -0.143 S 
ATOM      9  H   LIG    1       -0.129   4.287   0.025  0.00  0.00    +0.107 HD
ENDBRANCH   7   8
TORSDOF 1
