REMARK  Name = ZINC00671822
REMARK                            x       y       z     vdW  Elec       q    Type
REMARK                         _______ _______ _______ _____ _____    ______ ____
ROOT
ATOM      1  C   LIG    1       -7.864  -3.252   0.018  0.00  0.00    +0.109 A 
ATOM      2  C   LIG    1       -8.189  -4.577   0.245  0.00  0.00    +0.030 A 
ATOM      3  C   LIG    1       -9.270  -4.898   1.043  0.00  0.00    +0.025 A 
ATOM      4  C   LIG    1      -10.030  -3.888   1.619  0.00  0.00    +0.035 A 
ATOM      5  C   LIG    1       -9.700  -2.559   1.390  0.00  0.00    +0.025 A 
ATOM      6  C   LIG    1       -8.616  -2.245   0.594  0.00  0.00    +0.030 A 
ENDROOT
BRANCH   4   7
ATOM      7  N   LIG    1      -11.125  -4.210   2.428  0.00  0.00    -0.269 N 
ATOM      8  H   LIG    1      -11.905  -3.632   2.441  0.00  0.00    +0.156 HD
ATOM      9  C   LIG    1      -11.098  -5.322   3.189  0.00  0.00    +0.308 C 
ATOM     10  N   LIG    1      -12.191  -5.688   3.887  0.00  0.00    -0.269 N 
ATOM     11  H   LIG    1      -13.020  -5.195   3.784  0.00  0.00    +0.156 HD
ATOM     12  O   LIG    1      -10.087  -5.995   3.245  0.00  0.00    -0.252 OA
BRANCH  10  13
ATOM     13  C   LIG    1      -12.130  -6.780   4.761  0.00  0.00    +0.035 A 
ATOM     14  C   LIG    1      -10.954  -7.059   5.445  0.00  0.00    +0.025 A 
ATOM     15  C   LIG    1      -10.897  -8.137   6.306  0.00  0.00    +0.022 A 
ATOM     16  C   LIG    1      -12.010  -8.938   6.488  0.00  0.00    +0.041 A 
ATOM     17 CL   LIG    1      -11.935 -10.293   7.572  0.00  0.00    -0.084 Cl
ATOM     18  C   LIG    1      -13.183  -8.663   5.808  0.00  0.00    +0.022 A 
ATOM     19  C   LIG    1      -13.247  -7.583   4.949  0.00  0.00    +0.025 A 
ENDBRANCH  10  13
ENDBRANCH   4   7
BRANCH   1  20
ATOM     20  S   LIG    1       -6.485  -2.847  -1.001  0.00  0.00    +0.074 S 
ATOM     21  O   LIG    1       -6.276  -3.958  -1.862  0.00  0.00    -0.150 OA
ATOM     22  O   LIG    1       -6.716  -1.535  -1.494  0.00  0.00    -0.150 OA
BRANCH  20  23
ATOM     23  N   LIG    1       -5.158  -2.756  -0.015  0.00  0.00    -0.192 N 
ATOM     24  H   LIG    1       -5.250  -2.920   0.951  0.00  0.00    +0.176 HD
BRANCH  23  28
ATOM     25  C   LIG    1       -1.403  -1.890  -1.232  0.00  0.00    +0.103 A 
ATOM     26  N   LIG    1       -2.374  -1.931  -2.122  0.00  0.00    -0.145 NA
ATOM     27  N   LIG    1       -3.566  -2.196  -1.805  0.00  0.00    -0.125 NA
ATOM     28  C   LIG    1       -3.916  -2.450  -0.551  0.00  0.00    +0.201 A 
ATOM     29  S   LIG    1       -2.323  -2.290   0.251  0.00  0.00    -0.034 S 
BRANCH  25  31
ATOM     30  C   LIG    1        0.307  -0.095  -1.253  0.00  0.00    +0.011 C 
ATOM     31  C   LIG    1        0.064  -1.597  -1.413  0.00  0.00    +0.061 C 
ENDBRANCH  25  31
ENDBRANCH  23  28
ENDBRANCH  20  23
ENDBRANCH   1  20
TORSDOF 6
