REMARK  Name = ZINC00492792
REMARK                            x       y       z     vdW  Elec       q    Type
REMARK                         _______ _______ _______ _____ _____    ______ ____
ROOT
ATOM      1  C   LIG    1       -1.057  -2.117   0.001  0.00  0.00    +0.163 C 
ATOM      2  C   LIG    1       -1.044  -2.621  -1.444  0.00  0.00    -0.033 C 
ATOM      3  N   LIG    1       -2.185  -3.509  -1.676  0.00  0.00    +0.382 N 
ATOM      4  H   LIG    1       -2.151  -3.830  -2.632  0.00  0.00    -0.082 HD
ATOM      5  C   LIG    1       -2.112  -4.682  -0.801  0.00  0.00    -0.078 C 
ATOM      6  C   LIG    1       -2.161  -4.246   0.665  0.00  0.00    -0.012 C 
ATOM      7  C   LIG    1       -3.446  -2.792  -1.473  0.00  0.00    -0.078 C 
ATOM      8  C   LIG    1       -3.539  -2.294  -0.023  0.00  0.00    -0.012 C 
ATOM      9  C   LIG    1       -2.269  -2.716   0.726  0.00  0.00    +0.024 C 
ENDROOT
BRANCH   1  10
ATOM     10  O   LIG    1       -1.151  -0.691   0.009  0.00  0.00    -0.463 OA
BRANCH  10  12
ATOM     11  C   LIG    1       -0.018   1.503   0.010  0.00  0.00    +0.136 C 
ATOM     12  C   LIG    1        0.002  -0.004   0.002  0.00  0.00    +0.304 C 
ATOM     13  O   LIG    1        1.056  -0.594  -0.011  0.00  0.00    -0.251 OA
ENDBRANCH  10  12
ENDBRANCH   1  10
TORSDOF 2
