REMARK  Name = ZINC00538656
REMARK                            x       y       z     vdW  Elec       q    Type
REMARK                         _______ _______ _______ _____ _____    ______ ____
ROOT
ATOM      1  C   LIG    1       -0.718   1.572   1.248  0.00  0.00    +0.164 C 
ATOM      2  O   LIG    1       -1.714   2.256   1.150  0.00  0.00    -0.292 OA
ENDROOT
BRANCH   1   3
ATOM      3  C   LIG    1       -0.198   1.216   2.576  0.00  0.00    +0.017 A 
ATOM      4  C   LIG    1        0.949   0.422   2.691  0.00  0.00    +0.012 A 
ATOM      5  C   LIG    1        1.435   0.096   3.930  0.00  0.00    +0.009 A 
ATOM      6  C   LIG    1        0.781   0.547   5.078  0.00  0.00    -0.018 A 
ATOM      7  C   LIG    1       -0.366   1.335   4.966  0.00  0.00    +0.009 A 
ATOM      8  C   LIG    1       -0.853   1.667   3.729  0.00  0.00    +0.012 A 
BRANCH   6   9
ATOM      9  C   LIG    1        1.305   0.190   6.417  0.00  0.00    -0.018 A 
ATOM     10  C   LIG    1        0.658   0.643   7.566  0.00  0.00    +0.010 A 
ATOM     11  C   LIG    1        1.147   0.302   8.810  0.00  0.00    +0.020 A 
ATOM     12  C   LIG    1        2.285  -0.479   8.920  0.00  0.00    +0.041 A 
ATOM     13 CL   LIG    1        2.899  -0.898  10.488  0.00  0.00    -0.084 Cl
ATOM     14  C   LIG    1        2.935  -0.927   7.782  0.00  0.00    +0.020 A 
ATOM     15  C   LIG    1        2.451  -0.597   6.533  0.00  0.00    +0.010 A 
ENDBRANCH   6   9
ENDBRANCH   1   3
BRANCH   1  16
ATOM     16  C   LIG    1       -0.013   1.086   0.008  0.00  0.00    +0.095 C 
BRANCH  16  17
ATOM     17  C   LIG    1       -0.753   1.593  -1.232  0.00  0.00    +0.115 C 
BRANCH  17  18
ATOM     18  C   LIG    1       -0.667   3.096  -1.288  0.00  0.00    +0.309 C 
ATOM     19  O   LIG    1       -0.075   3.700  -0.425  0.00  0.00    -0.251 OA
BRANCH  18  20
ATOM     20  O   LIG    1       -1.249   3.764  -2.296  0.00  0.00    -0.480 OA
ATOM     21  H   LIG    1       -1.708   3.296  -2.965  0.00  0.00    +0.295 HD
ENDBRANCH  18  20
ENDBRANCH  17  18
BRANCH  17  22
ATOM     22  C   LIG    1       -0.111   0.998  -2.487  0.00  0.00    +0.089 C 
BRANCH  22  23
ATOM     23  S   LIG    1       -1.077   1.479  -3.945  0.00  0.00    -0.124 S 
BRANCH  23  27
ATOM     24  C   LIG    1        1.120  -0.454  -7.402  0.00  0.00    +0.000 A 
ATOM     25  C   LIG    1       -0.017   0.296  -7.640  0.00  0.00    +0.001 A 
ATOM     26  C   LIG    1       -0.690   0.887  -6.589  0.00  0.00    +0.015 A 
ATOM     27  C   LIG    1       -0.222   0.728  -5.290  0.00  0.00    +0.008 A 
ATOM     28  C   LIG    1        0.924  -0.022  -5.055  0.00  0.00    +0.015 A 
ATOM     29  C   LIG    1        1.588  -0.615  -6.110  0.00  0.00    +0.001 A 
ENDBRANCH  23  27
ENDBRANCH  22  23
ENDBRANCH  17  22
ENDBRANCH  16  17
ENDBRANCH   1  16
TORSDOF 9
