REMARK  Name = ZINC00659265
REMARK                            x       y       z     vdW  Elec       q    Type
REMARK                         _______ _______ _______ _____ _____    ______ ____
ROOT
ATOM      1  C   LIG    1        2.452   3.935  -0.000  0.00  0.00    +0.101 C 
ATOM      2  C   LIG    1        2.510   4.801  -1.228  0.00  0.00    +0.098 C 
ATOM      3  C   LIG    1        2.250   6.128  -1.143  0.00  0.00    +0.198 C 
ATOM      4  O   LIG    1        1.931   6.705   0.026  0.00  0.00    -0.445 OA
ATOM      5  C   LIG    1        2.278   6.110   1.182  0.00  0.00    +0.115 C 
ATOM      6  C   LIG    1        2.380   6.970   2.420  0.00  0.00    +0.083 C 
ATOM      7  C   LIG    1        2.014   6.142   3.654  0.00  0.00    +0.035 C 
ATOM      8  C   LIG    1        2.969   4.947   3.737  0.00  0.00    +0.088 C 
ATOM      9  C   LIG    1        2.883   4.165   2.454  0.00  0.00    +0.164 C 
ATOM     10  O   LIG    1        3.118   2.974   2.465  0.00  0.00    -0.292 OA
ATOM     11  C   LIG    1        2.533   4.792   1.240  0.00  0.00    +0.046 C 
ENDROOT
BRANCH   7  12
ATOM     12  C   LIG    1        2.154   6.990   4.892  0.00  0.00    -0.025 A 
ATOM     13  C   LIG    1        3.379   7.544   5.215  0.00  0.00    +0.005 A 
ATOM     14  C   LIG    1        3.508   8.320   6.351  0.00  0.00    +0.000 A 
ATOM     15  C   LIG    1        2.412   8.545   7.164  0.00  0.00    +0.001 A 
ATOM     16  C   LIG    1        1.187   7.992   6.841  0.00  0.00    +0.020 A 
ATOM     17  C   LIG    1        1.056   7.218   5.702  0.00  0.00    +0.044 A 
ATOM     18 CL   LIG    1       -0.483   6.530   5.292  0.00  0.00    -0.083 Cl
ENDBRANCH   7  12
BRANCH   1  22
ATOM     19  C   LIG    1       -1.223   1.754   0.017  0.00  0.00    +0.120 A 
ATOM     20  C   LIG    1       -0.013   1.076   0.008  0.00  0.00    +0.046 A 
ATOM     21  C   LIG    1        1.174   1.783   0.000  0.00  0.00    +0.008 A 
ATOM     22  C   LIG    1        1.156   3.166   0.007  0.00  0.00    -0.034 A 
ATOM     23  C   LIG    1       -0.049   3.844   0.022  0.00  0.00    +0.008 A 
ATOM     24  C   LIG    1       -1.238   3.141   0.029  0.00  0.00    +0.046 A 
BRANCH  19  26
ATOM     25  C   LIG    1       -3.599   1.824   0.029  0.00  0.00    +0.277 C 
ATOM     26  O   LIG    1       -2.392   1.060   0.020  0.00  0.00    -0.495 OA
ENDBRANCH  19  26
ENDBRANCH   1  22
BRANCH   3  27
ATOM     27  N   LIG    1        2.314   6.899  -2.277  0.00  0.00    -0.328 N 
ATOM     28  H   LIG    1        2.130   7.850  -2.228  0.00  0.00    +0.145 HD
ATOM     29  H   LIG    1        2.544   6.493  -3.128  0.00  0.00    +0.145 HD
ENDBRANCH   3  27
BRANCH   2  30
ATOM     30  C   LIG    1        2.842   4.220  -2.494  0.00  0.00    +0.101 C 
ATOM     31  N   LIG    1        3.106   3.759  -3.498  0.00  0.00    -0.191 NA
ENDBRANCH   2  30
TORSDOF 5
