REMARK  Name = ZINC00475636
REMARK                            x       y       z     vdW  Elec       q    Type
REMARK                         _______ _______ _______ _____ _____    ______ ____
ROOT
ATOM      1  C   LIG    1        0.060  -4.252  -0.021  0.00  0.00    +0.055 A 
ATOM      2  C   LIG    1        0.068  -4.923  -1.190  0.00  0.00    +0.075 A 
ATOM      3  S   LIG    1        0.091  -6.623  -0.648  0.00  0.00    -0.056 S 
ATOM      4  C   LIG    1        0.088  -6.324   1.113  0.00  0.00    +0.192 A 
ATOM      5  N   LIG    1        0.101  -7.185   2.099  0.00  0.00    -0.103 NA
ATOM      6  N   LIG    1        0.075  -4.947   1.160  0.00  0.00    -0.332 N 
ATOM      7  H   LIG    1        0.073  -4.480   2.010  0.00  0.00    +0.168 HD
ENDROOT
BRANCH   1  12
ATOM      8  C   LIG    1       -0.018   1.503   0.010  0.00  0.00    +0.044 C 
ATOM      9  C   LIG    1        0.002  -0.004   0.002  0.00  0.00    -0.050 A 
ATOM     10  C   LIG    1        0.006  -0.686  -1.202  0.00  0.00    +0.004 A 
ATOM     11  C   LIG    1        0.024  -2.066  -1.216  0.00  0.00    +0.010 A 
ATOM     12  C   LIG    1        0.040  -2.773  -0.013  0.00  0.00    -0.001 A 
ATOM     13  C   LIG    1        0.037  -2.079   1.198  0.00  0.00    +0.010 A 
ATOM     14  C   LIG    1        0.023  -0.699   1.198  0.00  0.00    +0.004 A 
ENDBRANCH   1  12
BRANCH   5  15
ATOM     15  S   LIG    1        0.123  -8.810   1.779  0.00  0.00    +0.101 S 
ATOM     16  O   LIG    1        1.373  -9.084   1.159  0.00  0.00    -0.146 OA
ATOM     17  O   LIG    1       -1.118  -9.119   1.160  0.00  0.00    -0.146 OA
BRANCH  15  18
ATOM     18  C   LIG    1        0.136  -9.646   3.329  0.00  0.00    +0.113 A 
ATOM     19  C   LIG    1        1.337  -9.953   3.940  0.00  0.00    +0.029 A 
ATOM     20  C   LIG    1        1.347 -10.609   5.157  0.00  0.00    +0.005 A 
ATOM     21  C   LIG    1        0.155 -10.958   5.763  0.00  0.00    -0.050 A 
ATOM     22  C   LIG    1        0.165 -11.674   7.089  0.00  0.00    +0.044 C 
ATOM     23  C   LIG    1       -1.047 -10.651   5.153  0.00  0.00    +0.005 A 
ATOM     24  C   LIG    1       -1.057  -9.991   3.938  0.00  0.00    +0.029 A 
ENDBRANCH  15  18
ENDBRANCH   5  15
TORSDOF 3
