REMARK  Name = ZINC00410207
REMARK                            x       y       z     vdW  Elec       q    Type
REMARK                         _______ _______ _______ _____ _____    ______ ____
ROOT
ATOM      1  C   LIG    1        0.028   4.130   0.025  0.00  0.00    +0.001 A 
ATOM      2  C   LIG    1       -1.181   3.447   0.032  0.00  0.00    +0.002 A 
ATOM      3  C   LIG    1       -1.213   2.070   0.030  0.00  0.00    +0.029 A 
ATOM      4  C   LIG    1       -0.016   1.351   0.009  0.00  0.00    +0.082 A 
ATOM      5  C   LIG    1        1.213   2.050   0.002  0.00  0.00    +0.085 A 
ATOM      6  C   LIG    1        2.453   1.261  -0.014  0.00  0.00    +0.348 A 
ATOM      7  O   LIG    1        2.335  -0.085  -0.020  0.00  0.00    -0.403 OA
ATOM      8  C   LIG    1        1.126  -0.671  -0.012  0.00  0.00    +0.233 A 
ATOM      9  O   LIG    1        3.544   1.799  -0.022  0.00  0.00    -0.244 OA
ATOM     10  N   LIG    1        0.002  -0.004   0.002  0.00  0.00    -0.212 NA
ATOM     11  C   LIG    1        1.223   3.442   0.009  0.00  0.00    +0.017 A 
ENDROOT
BRANCH   8  12
ATOM     12  C   LIG    1        1.063  -2.146  -0.020  0.00  0.00    +0.050 A 
ATOM     13  C   LIG    1        2.240  -2.898  -0.035  0.00  0.00    +0.014 A 
ATOM     14  C   LIG    1        2.174  -4.276  -0.042  0.00  0.00    +0.001 A 
ATOM     15  C   LIG    1        0.945  -4.913  -0.033  0.00  0.00    +0.001 A 
ATOM     16  C   LIG    1       -0.224  -4.175  -0.018  0.00  0.00    +0.015 A 
ATOM     17  C   LIG    1       -0.173  -2.796  -0.005  0.00  0.00    +0.026 A 
ATOM     18  I   LIG    1       -1.946  -1.680   0.026  0.00  0.00    -0.043 I 
ENDBRANCH   8  12
TORSDOF 1
