REMARK  Name = ZINC00601250
REMARK                            x       y       z     vdW  Elec       q    Type
REMARK                         _______ _______ _______ _____ _____    ______ ____
ROOT
ATOM      1  C   LIG    1       -3.184  -1.949  -1.391  0.00  0.00    +0.098 C 
ENDROOT
BRANCH   1   2
ATOM      2  C   LIG    1       -3.591  -2.037  -2.840  0.00  0.00    -0.014 A 
ATOM      3  C   LIG    1       -2.661  -1.803  -3.835  0.00  0.00    +0.007 A 
ATOM      4  C   LIG    1       -3.034  -1.883  -5.163  0.00  0.00    +0.020 A 
ATOM      5  C   LIG    1       -4.340  -2.198  -5.497  0.00  0.00    +0.042 A 
ATOM      6 CL   LIG    1       -4.808  -2.299  -7.166  0.00  0.00    -0.083 Cl
ATOM      7  C   LIG    1       -5.271  -2.432  -4.502  0.00  0.00    +0.040 A 
ATOM      8  C   LIG    1       -4.896  -2.357  -3.173  0.00  0.00    +0.047 A 
ATOM      9 CL   LIG    1       -6.062  -2.656  -1.923  0.00  0.00    -0.083 Cl
ENDBRANCH   1   2
BRANCH   1  10
ATOM     10  S   LIG    1       -1.748  -0.851  -1.233  0.00  0.00    -0.146 S 
BRANCH  10  11
ATOM     11  C   LIG    1       -1.525  -0.676   0.559  0.00  0.00    +0.104 C 
BRANCH  11  18
ATOM     12  C   LIG    1       -0.407   1.530   0.946  0.00  0.00    +0.006 A 
ATOM     13  C   LIG    1        0.717   2.293   1.198  0.00  0.00    +0.020 A 
ATOM     14  C   LIG    1        1.950   1.683   1.338  0.00  0.00    +0.041 A 
ATOM     15 CL   LIG    1        3.363   2.642   1.655  0.00  0.00    -0.084 Cl
ATOM     16  C   LIG    1        2.058   0.308   1.226  0.00  0.00    +0.020 A 
ATOM     17  C   LIG    1        0.933  -0.455   0.973  0.00  0.00    +0.006 A 
ATOM     18  C   LIG    1       -0.299   0.156   0.833  0.00  0.00    -0.037 A 
ENDBRANCH  11  18
ENDBRANCH  10  11
ENDBRANCH   1  10
BRANCH   1  19
ATOM     19  C   LIG    1       -2.819  -3.343  -0.879  0.00  0.00    +0.141 C 
BRANCH  19  20
ATOM     20  N   LIG    1       -1.755  -3.908  -1.714  0.00  0.00    -0.337 N 
ATOM     21  C   LIG    1       -1.922  -4.727  -2.797  0.00  0.00    +0.104 A 
ATOM     22  C   LIG    1       -0.691  -5.007  -3.266  0.00  0.00    +0.101 A 
ATOM     23  N   LIG    1        0.203  -4.377  -2.490  0.00  0.00    -0.352 N 
ATOM     24  H   LIG    1        1.165  -4.407  -2.603  0.00  0.00    +0.166 HD
ATOM     25  C   LIG    1       -0.428  -3.712  -1.561  0.00  0.00    +0.173 A 
ENDBRANCH  19  20
ENDBRANCH   1  19
TORSDOF 6
