REMARK  Name = ZINC00378484
REMARK                            x       y       z     vdW  Elec       q    Type
REMARK                         _______ _______ _______ _____ _____    ______ ____
ROOT
ATOM      1  C   LIG    1        0.055  -0.374   2.497  0.00  0.00    +0.199 C 
ENDROOT
BRANCH   1   8
ATOM      2  C   LIG    1        0.457   1.708   0.234  0.00  0.00    +0.063 C 
ATOM      3  C   LIG    1        0.301   0.219   0.064  0.00  0.00    +0.017 A 
ATOM      4  C   LIG    1        0.308  -0.448  -1.109  0.00  0.00    +0.023 A 
ATOM      5  C   LIG    1        0.136  -1.815  -0.818  0.00  0.00    +0.023 A 
ATOM      6  C   LIG    1        0.024  -1.932   0.521  0.00  0.00    +0.017 A 
ATOM      7  C   LIG    1       -0.178  -3.217   1.282  0.00  0.00    +0.063 C 
ATOM      8  N   LIG    1        0.125  -0.687   1.067  0.00  0.00    -0.334 N 
ENDBRANCH   1   8
BRANCH   1   9
ATOM      9  C   LIG    1       -1.223  -0.928   3.071  0.00  0.00    +0.328 C 
ATOM     10  O   LIG    1       -1.996  -1.524   2.359  0.00  0.00    -0.249 OA
BRANCH   9  11
ATOM     11  O   LIG    1       -1.503  -0.761   4.373  0.00  0.00    -0.479 OA
ATOM     12  H   LIG    1       -0.903  -0.299   4.925  0.00  0.00    +0.295 HD
ENDBRANCH   9  11
ENDBRANCH   1   9
BRANCH   1  13
ATOM     13  C   LIG    1        1.251  -1.001   3.215  0.00  0.00    +0.071 C 
BRANCH  13  14
ATOM     14  C   LIG    1        1.272  -0.542   4.651  0.00  0.00    -0.045 A 
ATOM     15  C   LIG    1        1.964   0.603   5.000  0.00  0.00    +0.004 A 
ATOM     16  C   LIG    1        1.979   1.026   6.316  0.00  0.00    +0.000 A 
ATOM     17  C   LIG    1        1.311   0.299   7.284  0.00  0.00    +0.000 A 
ATOM     18  C   LIG    1        0.624  -0.849   6.935  0.00  0.00    +0.000 A 
ATOM     19  C   LIG    1        0.604  -1.269   5.619  0.00  0.00    +0.004 A 
ENDBRANCH  13  14
ENDBRANCH   1  13
TORSDOF 5
