REMARK  Name = ZINC00455032
REMARK                            x       y       z     vdW  Elec       q    Type
REMARK                         _______ _______ _______ _____ _____    ______ ____
ROOT
ATOM      1  C   LIG    1       -1.258   1.588  -0.035  0.00  0.00    +0.033 A 
ATOM      2  C   LIG    1       -1.339   2.972  -0.152  0.00  0.00    +0.024 A 
ATOM      3  C   LIG    1       -2.569   3.590  -0.199  0.00  0.00    +0.015 A 
ATOM      4  C   LIG    1       -3.736   2.826  -0.119  0.00  0.00    +0.037 A 
ATOM      5  C   LIG    1       -3.651   1.436   0.004  0.00  0.00    +0.015 A 
ATOM      6  C   LIG    1       -2.418   0.825   0.046  0.00  0.00    +0.024 A 
ENDROOT
BRANCH   1   8
ATOM      7  C   LIG    1        1.026   1.574   0.617  0.00  0.00    +0.217 C 
ATOM      8  N   LIG    1       -0.011   0.966   0.007  0.00  0.00    -0.285 N 
ATOM      9  H   LIG    1        0.111   0.097  -0.405  0.00  0.00    +0.155 HD
ATOM     10  O   LIG    1        0.895   2.696   1.060  0.00  0.00    -0.275 OA
BRANCH   7  11
ATOM     11  C   LIG    1        2.347   0.861   0.748  0.00  0.00    +0.096 C 
BRANCH  11  13
ATOM     12  C   LIG    1        4.686   1.042   1.606  0.00  0.00    +0.004 C 
ATOM     13  C   LIG    1        3.345   1.766   1.473  0.00  0.00    +0.006 C 
ENDBRANCH  11  13
ENDBRANCH   7  11
ENDBRANCH   1   8
BRANCH   4  14
ATOM     14  C   LIG    1       -5.056   3.485  -0.163  0.00  0.00    +0.250 C 
ATOM     15  N   LIG    1       -5.136   4.825  -0.282  0.00  0.00    -0.261 N 
ATOM     16  H   LIG    1       -4.327   5.356  -0.338  0.00  0.00    +0.157 HD
ATOM     17  O   LIG    1       -6.071   2.818  -0.093  0.00  0.00    -0.270 OA
BRANCH  15  18
ATOM     18  C   LIG    1       -6.378   5.445  -0.323  0.00  0.00    +0.165 A 
ATOM     19  N   LIG    1       -7.579   4.901  -0.268  0.00  0.00    -0.233 NA
ATOM     20  C   LIG    1       -8.668   5.642  -0.317  0.00  0.00    +0.120 A 
ATOM     21  C   LIG    1       -8.530   6.985  -0.438  0.00  0.00    +0.068 A 
ATOM     22  S   LIG    1       -6.750   7.135  -0.470  0.00  0.00    -0.061 S 
ENDBRANCH  15  18
ENDBRANCH   4  14
TORSDOF 5
