REMARK  Name = ZINC00356481
REMARK                            x       y       z     vdW  Elec       q    Type
REMARK                         _______ _______ _______ _____ _____    ______ ____
ROOT
ATOM      1  C   LIG    1        0.002  -0.004   0.002  0.00  0.00    +0.132 A 
ATOM      2  C   LIG    1       -0.017   1.413   0.010  0.00  0.00    +0.040 A 
ATOM      3  C   LIG    1       -1.213   2.139   0.031  0.00  0.00    +0.013 A 
ATOM      4  C   LIG    1       -1.172   3.502   0.034  0.00  0.00    +0.001 A 
ATOM      5  C   LIG    1        0.043   4.181   0.026  0.00  0.00    +0.002 A 
ATOM      6  C   LIG    1        1.226   3.503   0.010  0.00  0.00    +0.028 A 
ATOM      7  C   LIG    1        1.220   2.102   0.002  0.00  0.00    +0.078 A 
ATOM      8  N   LIG    1        2.356   1.388  -0.013  0.00  0.00    -0.214 NA
ATOM      9  C   LIG    1        2.317   0.070  -0.020  0.00  0.00    +0.220 A 
ATOM     10  N   LIG    1        1.177  -0.616  -0.012  0.00  0.00    -0.199 NA
ENDROOT
BRANCH   9  11
ATOM     11  N   LIG    1        3.510  -0.629  -0.034  0.00  0.00    -0.295 N 
ATOM     12  C   LIG    1        3.591  -1.557   1.103  0.00  0.00    +0.136 C 
ATOM     13  C   LIG    1        4.898  -2.350   1.015  0.00  0.00    +0.179 C 
ATOM     14  O   LIG    1        6.001  -1.440   0.979  0.00  0.00    -0.377 OA
ATOM     15  C   LIG    1        5.954  -0.522  -0.117  0.00  0.00    +0.179 C 
ATOM     16  C   LIG    1        4.658   0.289  -0.040  0.00  0.00    +0.136 C 
ENDBRANCH   9  11
BRANCH   1  17
ATOM     17  N   LIG    1       -1.172  -0.727   0.010  0.00  0.00    -0.324 N 
ATOM     18  H   LIG    1       -2.025  -0.266   0.021  0.00  0.00    +0.148 HD
BRANCH  17  19
ATOM     19  C   LIG    1       -1.130  -2.191   0.002  0.00  0.00    +0.138 C 
BRANCH  19  23
ATOM     20  C   LIG    1       -5.115  -3.729   0.033  0.00  0.00    +0.000 A 
ATOM     21  C   LIG    1       -4.482  -3.474  -1.169  0.00  0.00    +0.000 A 
ATOM     22  C   LIG    1       -3.193  -2.976  -1.180  0.00  0.00    +0.005 A 
ATOM     23  C   LIG    1       -2.536  -2.734   0.013  0.00  0.00    -0.030 A 
ATOM     24  C   LIG    1       -3.167  -2.994   1.214  0.00  0.00    +0.005 A 
ATOM     25  C   LIG    1       -4.459  -3.487   1.225  0.00  0.00    +0.000 A 
ENDBRANCH  19  23
ENDBRANCH  17  19
ENDBRANCH   1  17
TORSDOF 4
