REMARK  Name = ZINC00398151
REMARK                            x       y       z     vdW  Elec       q    Type
REMARK                         _______ _______ _______ _____ _____    ______ ____
ROOT
ATOM      1  N   LIG    1       -0.946   1.579   3.546  0.00  0.00    -0.269 N 
ATOM      2  H   LIG    1       -1.899   1.573   3.367  0.00  0.00    +0.156 HD
ATOM      3  C   LIG    1       -0.082   1.954   2.582  0.00  0.00    +0.304 C 
ATOM      4  N   LIG    1       -0.536   2.255   1.349  0.00  0.00    -0.295 N 
ATOM      5  H   LIG    1       -1.486   2.202   1.156  0.00  0.00    +0.151 HD
ATOM      6  O   LIG    1        1.108   2.021   2.824  0.00  0.00    -0.252 OA
ENDROOT
BRANCH   1  12
ATOM      7  C   LIG    1        0.510   0.219   4.912  0.00  0.00    -0.023 A 
ATOM      8  C   LIG    1        0.983  -0.150   6.155  0.00  0.00    +0.006 A 
ATOM      9  C   LIG    1        0.478   0.450   7.295  0.00  0.00    +0.001 A 
ATOM     10  C   LIG    1       -0.499   1.423   7.192  0.00  0.00    +0.006 A 
ATOM     11  C   LIG    1       -0.973   1.800   5.951  0.00  0.00    -0.023 A 
ATOM     12  C   LIG    1       -0.467   1.200   4.805  0.00  0.00    +0.042 A 
BRANCH   7  14
ATOM     13  C   LIG    1        2.585  -0.366   3.686  0.00  0.00    +0.012 C 
ATOM     14  C   LIG    1        1.057  -0.439   3.671  0.00  0.00    +0.015 C 
ATOM     15  C   LIG    1        0.617  -1.904   3.634  0.00  0.00    +0.012 C 
ENDBRANCH   7  14
BRANCH  11  16
ATOM     16  C   LIG    1       -2.037   2.861   5.840  0.00  0.00    +0.015 C 
ATOM     17  C   LIG    1       -1.522   4.166   6.450  0.00  0.00    +0.012 C 
ATOM     18  C   LIG    1       -3.290   2.406   6.591  0.00  0.00    +0.012 C 
ENDBRANCH  11  16
ENDBRANCH   1  12
BRANCH   4  19
ATOM     19  C   LIG    1        0.403   2.663   0.301  0.00  0.00    +0.141 C 
BRANCH  19  20
ATOM     20  C   LIG    1       -0.355   2.941  -0.972  0.00  0.00    -0.030 A 
ATOM     21  C   LIG    1       -0.567   1.925  -1.886  0.00  0.00    +0.005 A 
ATOM     22  C   LIG    1       -1.266   2.179  -3.051  0.00  0.00    +0.000 A 
ATOM     23  C   LIG    1       -1.744   3.451  -3.307  0.00  0.00    +0.000 A 
ATOM     24  C   LIG    1       -1.528   4.467  -2.396  0.00  0.00    +0.000 A 
ATOM     25  C   LIG    1       -0.833   4.212  -1.228  0.00  0.00    +0.005 A 
ENDBRANCH  19  20
ENDBRANCH   4  19
TORSDOF 5
