REMARK  Name = ZINC00601265
REMARK                            x       y       z     vdW  Elec       q    Type
REMARK                         _______ _______ _______ _____ _____    ______ ____
ROOT
ATOM      1  C   LIG    1       -0.021   0.612   0.112  0.00  0.00    +0.066 C 
ATOM      2  C   LIG    1       -0.333  -0.858   0.219  0.00  0.00    +0.049 C 
ATOM      3  C   LIG    1       -1.638  -1.258   0.181  0.00  0.00    +0.069 C 
ATOM      4  C   LIG    1       -1.920  -2.746   0.290  0.00  0.00    +0.096 C 
ATOM      5  C   LIG    1       -0.702  -3.642   0.432  0.00  0.00    +0.065 C 
ATOM      6  C   LIG    1        0.547  -3.018   0.448  0.00  0.00    +0.049 C 
ATOM      7  C   LIG    1        1.787  -3.863   0.586  0.00  0.00    +0.066 C 
ATOM      8  C   LIG    1       -0.824  -5.010   0.539  0.00  0.00    +0.285 C 
ATOM      9  N   LIG    1        0.670  -1.715   0.340  0.00  0.00    -0.256 NA
ENDROOT
BRANCH   4  10
ATOM     10  C   LIG    1       -2.674  -3.174  -0.942  0.00  0.00    -0.033 A 
ATOM     11  C   LIG    1       -2.101  -3.019  -2.191  0.00  0.00    +0.005 A 
ATOM     12  C   LIG    1       -2.793  -3.411  -3.322  0.00  0.00    +0.003 A 
ATOM     13  C   LIG    1       -4.057  -3.959  -3.204  0.00  0.00    +0.032 A 
ATOM     14  C   LIG    1       -4.628  -4.115  -1.955  0.00  0.00    +0.122 A 
ATOM     15  C   LIG    1       -3.935  -3.726  -0.824  0.00  0.00    +0.037 A 
BRANCH  14  16
ATOM     16  N   LIG    1       -5.982  -4.701  -1.829  0.00  0.00    +0.006 N 
ATOM     17  O   LIG    1       -6.587  -5.044  -2.817  0.00  0.00    -0.130 OA
BRANCH  16  18
ATOM     18  O   LIG    1       -6.482  -4.838  -0.736  0.00  0.00    -0.396 OA
ATOM     19  H   LIG    1       -6.013  -4.572   0.030  0.00  0.00    +0.329 HD
ENDBRANCH  16  18
ENDBRANCH  14  16
ENDBRANCH   4  10
BRANCH   3  20
ATOM     20  C   LIG    1       -2.682  -0.327   0.046  0.00  0.00    +0.338 C 
ATOM     21  O   LIG    1       -2.430   0.862  -0.039  0.00  0.00    -0.245 OA
BRANCH  20  22
ATOM     22  O   LIG    1       -3.964  -0.750   0.012  0.00  0.00    -0.463 OA
BRANCH  22  23
ATOM     23  C   LIG    1       -4.974   0.252  -0.127  0.00  0.00    +0.214 C 
BRANCH  23  24
ATOM     24  C   LIG    1       -6.352  -0.413  -0.146  0.00  0.00    -0.037 C 
BRANCH  24  25
ATOM     25  N   LIG    1       -6.596  -1.073   1.143  0.00  0.00    +0.383 N 
ATOM     26  H   LIG    1       -5.833  -1.700   1.349  0.00  0.00    -0.082 HD
ATOM     27  C   LIG    1       -7.851  -1.834   1.075  0.00  0.00    -0.096 C 
BRANCH  25  28
ATOM     28  C   LIG    1       -6.695  -0.059   2.201  0.00  0.00    -0.043 C 
BRANCH  28  29
ATOM     29  C   LIG    1       -6.823  -0.740   3.540  0.00  0.00    -0.064 A 
ATOM     30  C   LIG    1       -8.072  -1.057   4.038  0.00  0.00    +0.002 A 
ATOM     31  C   LIG    1       -8.189  -1.681   5.266  0.00  0.00    +0.000 A 
ATOM     32  C   LIG    1       -7.056  -1.990   5.995  0.00  0.00    +0.000 A 
ATOM     33  C   LIG    1       -5.806  -1.674   5.496  0.00  0.00    +0.000 A 
ATOM     34  C   LIG    1       -5.689  -1.053   4.266  0.00  0.00    +0.002 A 
ENDBRANCH  28  29
ENDBRANCH  25  28
ENDBRANCH  24  25
ENDBRANCH  23  24
ENDBRANCH  22  23
ENDBRANCH  20  22
ENDBRANCH   3  20
BRANCH   8  35
ATOM     35  O   LIG    1        0.276  -5.787   0.530  0.00  0.00    -0.467 OA
ATOM     36  C   LIG    1        0.075  -7.198   0.645  0.00  0.00    +0.280 C 
ENDBRANCH   8  35
BRANCH   8  37
ATOM     37  O   LIG    1       -2.045  -5.570   0.654  0.00  0.00    -0.480 OA
ATOM     38  H   LIG    1       -2.810  -5.029   0.661  0.00  0.00    +0.295 HD
ENDBRANCH   8  37
TORSDOF 12
