REMARK  Name = ZINC00384639
REMARK                            x       y       z     vdW  Elec       q    Type
REMARK                         _______ _______ _______ _____ _____    ______ ____
ROOT
ATOM      1  C   LIG    1       -1.201  -0.638   0.010  0.00  0.00    +0.140 A 
ATOM      2  C   LIG    1       -2.374   0.101   0.019  0.00  0.00    +0.079 A 
ATOM      3  C   LIG    1       -3.597  -0.542   0.027  0.00  0.00    +0.153 A 
ATOM      4  C   LIG    1       -3.651  -1.928   0.026  0.00  0.00    +0.148 A 
ATOM      5  C   LIG    1       -2.478  -2.668   0.017  0.00  0.00    +0.071 A 
ATOM      6  C   LIG    1       -1.255  -2.025   0.003  0.00  0.00    +0.086 A 
ATOM      7 CL   LIG    1        0.213  -2.951  -0.016  0.00  0.00    -0.080 Cl
ENDROOT
BRANCH   3   8
ATOM      8  S   LIG    1       -5.087   0.398   0.039  0.00  0.00    +0.076 S 
ATOM      9  O   LIG    1       -4.704   1.766   0.011  0.00  0.00    -0.150 OA
ATOM     10  O   LIG    1       -5.901  -0.145   1.070  0.00  0.00    -0.150 OA
BRANCH   8  11
ATOM     11  N   LIG    1       -5.868   0.095  -1.390  0.00  0.00    -0.215 N 
ATOM     12  H   LIG    1       -5.993   0.809  -2.034  0.00  0.00    +0.174 HD
BRANCH  11  13
ATOM     13  C   LIG    1       -6.346  -1.188  -1.666  0.00  0.00    +0.066 A 
ATOM     14  C   LIG    1       -6.136  -1.766  -2.916  0.00  0.00    +0.027 A 
ATOM     15  C   LIG    1       -6.630  -3.040  -3.143  0.00  0.00    +0.022 A 
ATOM     16  C   LIG    1       -7.308  -3.692  -2.130  0.00  0.00    +0.111 A 
ATOM     17  N   LIG    1       -7.490  -3.117  -0.957  0.00  0.00    -0.261 NA
ATOM     18  C   LIG    1       -7.033  -1.908  -0.698  0.00  0.00    +0.135 A 
ENDBRANCH  11  13
ENDBRANCH   8  11
ENDBRANCH   3   8
BRANCH   1  20
ATOM     19  C   LIG    1       -0.017   1.425   0.010  0.00  0.00    +0.277 C 
ATOM     20  O   LIG    1        0.002  -0.004   0.002  0.00  0.00    -0.494 OA
ENDBRANCH   1  20
BRANCH   4  21
ATOM     21  O   LIG    1       -4.855  -2.561   0.035  0.00  0.00    -0.493 OA
ATOM     22  C   LIG    1       -4.836  -3.990   0.033  0.00  0.00    +0.277 C 
ENDBRANCH   4  21
TORSDOF 5
