REMARK  Name = ZINC00432161
REMARK                            x       y       z     vdW  Elec       q    Type
REMARK                         _______ _______ _______ _____ _____    ______ ____
ROOT
ATOM      1  N   LIG    1        1.447  -4.746  -0.032  0.00  0.00    -0.326 N 
ATOM      2  C   LIG    1        2.176  -5.083  -1.130  0.00  0.00    +0.200 A 
ATOM      3  N   LIG    1        3.370  -5.458  -0.776  0.00  0.00    -0.236 NA
ATOM      4  C   LIG    1        3.490  -5.386   0.575  0.00  0.00    +0.089 A 
ATOM      5  C   LIG    1        4.529  -5.662   1.466  0.00  0.00    +0.030 A 
ATOM      6  C   LIG    1        4.345  -5.475   2.807  0.00  0.00    +0.002 A 
ATOM      7  C   LIG    1        3.128  -5.021   3.297  0.00  0.00    +0.002 A 
ATOM      8  C   LIG    1        2.087  -4.745   2.436  0.00  0.00    +0.028 A 
ATOM      9  C   LIG    1        2.259  -4.923   1.071  0.00  0.00    +0.069 A 
ENDROOT
BRANCH   1  10
ATOM     10  C   LIG    1        0.059  -4.275  -0.021  0.00  0.00    +0.158 C 
BRANCH  10  15
ATOM     11  C   LIG    1       -0.018   1.503   0.010  0.00  0.00    +0.044 C 
ATOM     12  C   LIG    1        0.002  -0.004   0.002  0.00  0.00    -0.050 A 
ATOM     13  C   LIG    1        0.006  -0.689  -1.199  0.00  0.00    +0.004 A 
ATOM     14  C   LIG    1        0.025  -2.071  -1.206  0.00  0.00    +0.005 A 
ATOM     15  C   LIG    1        0.040  -2.768  -0.013  0.00  0.00    -0.028 A 
ATOM     16  C   LIG    1        0.037  -2.084   1.188  0.00  0.00    +0.005 A 
ATOM     17  C   LIG    1        0.023  -0.702   1.195  0.00  0.00    +0.004 A 
ENDBRANCH  10  15
ENDBRANCH   1  10
TORSDOF 2
