REMARK  Name = ZINC00608101
REMARK                            x       y       z     vdW  Elec       q    Type
REMARK                         _______ _______ _______ _____ _____    ______ ____
ROOT
ATOM      1  C   LIG    1        3.671   2.185  -0.023  0.00  0.00    +0.170 C 
ENDROOT
BRANCH   1   4
ATOM      2  C   LIG    1       -0.017   1.379   0.010  0.00  0.00    +0.020 A 
ATOM      3  C   LIG    1        1.171   2.087   0.002  0.00  0.00    +0.009 A 
ATOM      4  C   LIG    1        2.377   1.413  -0.013  0.00  0.00    +0.001 A 
ATOM      5  C   LIG    1        2.397   0.029  -0.021  0.00  0.00    +0.048 A 
ATOM      6 CL   LIG    1        3.913  -0.817  -0.041  0.00  0.00    -0.083 Cl
ATOM      7  C   LIG    1        1.210  -0.679  -0.013  0.00  0.00    +0.040 A 
ATOM      8  C   LIG    1        0.002  -0.004   0.002  0.00  0.00    +0.042 A 
ATOM      9 CL   LIG    1       -1.489  -0.893   0.012  0.00  0.00    -0.083 Cl
ENDBRANCH   1   4
BRANCH   1  10
ATOM     10  O   LIG    1        3.461   3.475   0.555  0.00  0.00    -0.366 OA
BRANCH  10  11
ATOM     11  C   LIG    1        4.611   4.013   1.210  0.00  0.00    +0.198 C 
BRANCH  11  12
ATOM     12  C   LIG    1        4.277   5.368   1.780  0.00  0.00    +0.004 A 
ATOM     13  C   LIG    1        3.009   5.899   1.630  0.00  0.00    +0.015 A 
ATOM     14  C   LIG    1        2.741   7.120   2.154  0.00  0.00    +0.047 A 
ATOM     15  S   LIG    1        4.308   7.558   2.889  0.00  0.00    -0.085 S 
ATOM     16  C   LIG    1        5.213   6.083   2.453  0.00  0.00    +0.083 A 
ATOM     17 CL   LIG    1        6.864   5.670   2.797  0.00  0.00    -0.075 Cl
ENDBRANCH  11  12
ENDBRANCH  10  11
ENDBRANCH   1  10
BRANCH   1  18
ATOM     18  C   LIG    1        4.159   2.346  -1.464  0.00  0.00    +0.159 C 
BRANCH  18  19
ATOM     19  N   LIG    1        5.475   2.991  -1.465  0.00  0.00    -0.334 N 
ATOM     20  C   LIG    1        5.719   4.337  -1.514  0.00  0.00    +0.107 A 
ATOM     21  C   LIG    1        7.057   4.491  -1.495  0.00  0.00    +0.130 A 
ATOM     22  N   LIG    1        7.614   3.272  -1.435  0.00  0.00    -0.244 NA
ATOM     23  C   LIG    1        6.672   2.369  -1.412  0.00  0.00    +0.199 A 
ENDBRANCH  18  19
ENDBRANCH   1  18
TORSDOF 6
