REMARK  Name = ZINC00517860
REMARK                            x       y       z     vdW  Elec       q    Type
REMARK                         _______ _______ _______ _____ _____    ______ ____
ROOT
ATOM      1  C   LIG    1        1.525  -2.196  -2.654  0.00  0.00    +0.183 C 
ATOM      2  C   LIG    1        3.030  -2.388  -2.373  0.00  0.00    +0.045 C 
ATOM      3  C   LIG    1        3.353  -3.861  -2.708  0.00  0.00    +0.008 C 
ATOM      4  C   LIG    1        2.243  -4.263  -3.725  0.00  0.00    +0.002 C 
ATOM      5  C   LIG    1        2.663  -3.668  -5.076  0.00  0.00    -0.003 C 
ATOM      6  C   LIG    1        3.800  -4.532  -5.616  0.00  0.00    +0.008 C 
ATOM      7  C   LIG    1        3.919  -4.468  -7.132  0.00  0.00    +0.032 C 
ATOM      8  C   LIG    1        3.358  -3.156  -7.622  0.00  0.00    -0.060 C 
ATOM      9  C   LIG    1        4.123  -2.299  -8.290  0.00  0.00    +0.046 C 
ATOM     10  C   LIG    1        3.591  -1.021  -8.757  0.00  0.00    +0.156 C 
ATOM     11  C   LIG    1        2.162  -0.644  -8.456  0.00  0.00    +0.080 C 
ATOM     12  C   LIG    1        1.725  -1.345  -7.165  0.00  0.00    +0.019 C 
ATOM     13  O   LIG    1        4.298  -0.263  -9.387  0.00  0.00    -0.293 OA
ATOM     14  C   LIG    1        1.895  -2.829  -7.322  0.00  0.00    -0.007 C 
ATOM     15  C   LIG    1        1.029  -3.320  -8.483  0.00  0.00    +0.016 C 
ATOM     16  C   LIG    1        1.485  -3.555  -6.034  0.00  0.00    +0.002 C 
ATOM     17  C   LIG    1        0.357  -2.731  -5.395  0.00  0.00    +0.005 C 
ATOM     18  C   LIG    1       -0.122  -3.437  -4.130  0.00  0.00    +0.011 C 
ATOM     19  C   LIG    1        1.011  -3.559  -3.135  0.00  0.00    +0.008 C 
ATOM     20  C   LIG    1        0.511  -4.358  -1.929  0.00  0.00    +0.015 C 
ENDROOT
BRANCH   1  21
ATOM     21  O   LIG    1        0.846  -1.807  -1.459  0.00  0.00    -0.461 OA
BRANCH  21  22
ATOM     22  C   LIG    1        0.707  -0.490  -1.238  0.00  0.00    +0.307 C 
ATOM     23  O   LIG    1        1.148   0.305  -2.033  0.00  0.00    -0.251 OA
BRANCH  22  25
ATOM     24  C   LIG    1       -0.019   1.526   0.010  0.00  0.00    +0.015 C 
ATOM     25  C   LIG    1        0.002  -0.004   0.002  0.00  0.00    +0.117 C 
ENDBRANCH  22  25
ENDBRANCH  21  22
ENDBRANCH   1  21
TORSDOF 3
