REMARK  Name = ZINC00586739
REMARK                            x       y       z     vdW  Elec       q    Type
REMARK                         _______ _______ _______ _____ _____    ______ ____
ROOT
ATOM      1  N   LIG    1       -0.678   2.033   1.222  0.00  0.00    -0.310 N 
ATOM      2  H   LIG    1       -0.700   1.483   2.021  0.00  0.00    +0.149 HD
ATOM      3  C   LIG    1       -1.254   3.251   1.228  0.00  0.00    +0.248 C 
ATOM      4  O   LIG    1       -1.227   3.941   0.226  0.00  0.00    -0.270 OA
ENDROOT
BRANCH   1  11
ATOM      5  C   LIG    1       -1.122  -0.558   0.880  0.00  0.00    -0.011 C 
ATOM      6  C   LIG    1        0.002  -0.004   0.002  0.00  0.00    -0.051 C 
ATOM      7  N   LIG    1        1.315  -0.333   0.553  0.00  0.00    +0.385 N 
ATOM      8  H   LIG    1        1.296  -0.247   1.576  0.00  0.00    -0.081 HD
ATOM      9  C   LIG    1        2.258   0.636  -0.016  0.00  0.00    -0.076 C 
ATOM     10  C   LIG    1        1.465   1.961  -0.001  0.00  0.00    +0.002 C 
ATOM     11  C   LIG    1       -0.019   1.540   0.011  0.00  0.00    +0.058 C 
BRANCH   7  12
ATOM     12  C   LIG    1        1.712  -1.728   0.185  0.00  0.00    -0.043 C 
BRANCH  12  13
ATOM     13  C   LIG    1        3.150  -1.971   0.563  0.00  0.00    -0.064 A 
ATOM     14  C   LIG    1        4.159  -1.687  -0.338  0.00  0.00    +0.002 A 
ATOM     15  C   LIG    1        5.479  -1.904   0.011  0.00  0.00    +0.000 A 
ATOM     16  C   LIG    1        5.789  -2.416   1.258  0.00  0.00    +0.000 A 
ATOM     17  C   LIG    1        4.779  -2.705   2.157  0.00  0.00    +0.000 A 
ATOM     18  C   LIG    1        3.460  -2.482   1.810  0.00  0.00    +0.002 A 
ENDBRANCH  12  13
ENDBRANCH   7  12
ENDBRANCH   1  11
BRANCH   3  19
ATOM     19  C   LIG    1       -1.917   3.747   2.445  0.00  0.00    +0.080 A 
ATOM     20  C   LIG    1       -1.949   2.955   3.599  0.00  0.00    +0.038 A 
ATOM     21  C   LIG    1       -2.563   3.416   4.728  0.00  0.00    +0.063 A 
ATOM     22 CL   LIG    1       -2.601   2.427   6.155  0.00  0.00    -0.082 Cl
ATOM     23  C   LIG    1       -3.162   4.675   4.741  0.00  0.00    +0.049 A 
ATOM     24  C   LIG    1       -3.137   5.473   3.604  0.00  0.00    +0.070 A 
ATOM     25  C   LIG    1       -2.513   5.018   2.455  0.00  0.00    +0.134 A 
BRANCH  23  26
ATOM     26  N   LIG    1       -3.785   5.135   5.896  0.00  0.00    -0.346 N 
ATOM     27  H   LIG    1       -3.803   4.580   6.691  0.00  0.00    +0.146 HD
ATOM     28  C   LIG    1       -4.413   6.458   5.913  0.00  0.00    +0.125 C 
ENDBRANCH  23  26
BRANCH  25  29
ATOM     29  O   LIG    1       -2.481   5.794   1.343  0.00  0.00    -0.494 OA
ATOM     30  C   LIG    1       -3.108   7.075   1.428  0.00  0.00    +0.277 C 
ENDBRANCH  25  29
ENDBRANCH   3  19
TORSDOF 6
