REMARK  Name = ZINC00643233
REMARK                            x       y       z     vdW  Elec       q    Type
REMARK                         _______ _______ _______ _____ _____    ______ ____
ROOT
ATOM      1  N   LIG    1        3.620  -0.649  -0.036  0.00  0.00    -0.300 N 
ATOM      2  C   LIG    1        4.964  -0.057  -0.040  0.00  0.00    +0.214 C 
ATOM      3  N   LIG    1        5.939  -1.147  -0.057  0.00  0.00    -0.298 N 
ATOM      4  H   LIG    1        6.902  -1.030  -0.063  0.00  0.00    +0.150 HD
ATOM      5  C   LIG    1        5.310  -2.334  -0.064  0.00  0.00    +0.238 C 
ATOM      6  O   LIG    1        5.853  -3.419  -0.078  0.00  0.00    -0.273 OA
ATOM      7  C   LIG    1        3.822  -2.103  -0.046  0.00  0.00    +0.109 C 
ATOM      8  C   LIG    1        3.182  -2.711  -1.294  0.00  0.00    +0.017 C 
ATOM      9  C   LIG    1        3.348  -4.233  -1.255  0.00  0.00    -0.076 C 
ATOM     10  N   LIG    1        2.702  -4.767  -0.050  0.00  0.00    +0.380 N 
ATOM     11  H   LIG    1        1.732  -4.491  -0.040  0.00  0.00    -0.082 HD
ATOM     12  C   LIG    1        3.370  -4.246   1.148  0.00  0.00    -0.076 C 
ATOM     13  C   LIG    1        3.205  -2.725   1.207  0.00  0.00    +0.017 C 
ENDROOT
BRANCH   1  17
ATOM     14  C   LIG    1       -0.017   1.379   0.010  0.00  0.00    +0.000 A 
ATOM     15  C   LIG    1        1.169   2.089   0.002  0.00  0.00    +0.002 A 
ATOM     16  C   LIG    1        2.377   1.420  -0.013  0.00  0.00    +0.023 A 
ATOM     17  C   LIG    1        2.400   0.031  -0.021  0.00  0.00    +0.032 A 
ATOM     18  C   LIG    1        1.206  -0.680  -0.013  0.00  0.00    +0.023 A 
ATOM     19  C   LIG    1        0.002  -0.004   0.002  0.00  0.00    +0.002 A 
ENDBRANCH   1  17
BRANCH  10  20
ATOM     20  C   LIG    1        2.791  -6.234  -0.059  0.00  0.00    -0.078 C 
BRANCH  20  21
ATOM     21  C   LIG    1        2.011  -6.799   1.130  0.00  0.00    -0.011 C 
BRANCH  21  22
ATOM     22  C   LIG    1        2.103  -8.326   1.121  0.00  0.00    +0.078 C 
BRANCH  22  23
ATOM     23  C   LIG    1        1.335  -8.882   2.292  0.00  0.00    +0.163 C 
ATOM     24  O   LIG    1        0.770  -8.132   3.058  0.00  0.00    -0.292 OA
BRANCH  23  25
ATOM     25  C   LIG    1        1.271 -10.335   2.505  0.00  0.00    +0.018 A 
ATOM     26  C   LIG    1        1.927 -11.204   1.626  0.00  0.00    +0.014 A 
ATOM     27  C   LIG    1        1.863 -12.565   1.831  0.00  0.00    +0.039 A 
ATOM     28  C   LIG    1        1.151 -13.074   2.907  0.00  0.00    +0.123 A 
ATOM     29  F   LIG    1        1.091 -14.410   3.103  0.00  0.00    -0.205 F 
ATOM     30  C   LIG    1        0.498 -12.219   3.782  0.00  0.00    +0.039 A 
ATOM     31  C   LIG    1        0.559 -10.856   3.592  0.00  0.00    +0.014 A 
ENDBRANCH  23  25
ENDBRANCH  22  23
ENDBRANCH  21  22
ENDBRANCH  20  21
ENDBRANCH  10  20
TORSDOF 6
