REMARK  Name = ZINC00389747
REMARK                            x       y       z     vdW  Elec       q    Type
REMARK                         _______ _______ _______ _____ _____    ______ ____
ROOT
ATOM      1  N   LIG    1       -1.318  -1.702  -1.129  0.00  0.00    +0.386 N 
ATOM      2  H   LIG    1       -1.254  -1.175  -1.987  0.00  0.00    -0.081 HD
ATOM      3  C   LIG    1       -0.170  -2.610  -1.037  0.00  0.00    -0.077 C 
ATOM      4  C   LIG    1       -0.158  -3.565  -2.237  0.00  0.00    -0.000 C 
ATOM      5  C   LIG    1       -1.477  -4.335  -2.248  0.00  0.00    +0.069 C 
ATOM      6  C   LIG    1       -1.648  -5.061  -0.936  0.00  0.00    +0.014 A 
ATOM      7  C   LIG    1       -2.208  -4.556   0.215  0.00  0.00    -0.041 A 
ATOM      8  C   LIG    1       -2.240  -5.417   1.298  0.00  0.00    +0.007 A 
ATOM      9  C   LIG    1       -1.782  -6.718   1.169  0.00  0.00    +0.049 A 
ATOM     10  C   LIG    1       -1.292  -7.240  -0.026  0.00  0.00    +0.159 A 
ATOM     11  C   LIG    1       -2.761  -3.168   0.211  0.00  0.00    +0.023 C 
ATOM     12  C   LIG    1       -1.244  -6.375  -1.125  0.00  0.00    +0.167 A 
ATOM     13  O   LIG    1       -0.898  -6.577  -2.415  0.00  0.00    -0.476 OA
ATOM     14  C   LIG    1       -2.642  -3.364  -2.341  0.00  0.00    +0.068 C 
ATOM     15  C   LIG    1       -3.966  -4.126  -2.359  0.00  0.00    +0.042 C 
ATOM     16  C   LIG    1       -4.013  -4.997  -3.616  0.00  0.00    +0.081 C 
ATOM     17  C   LIG    1       -2.832  -5.920  -3.642  0.00  0.00    +0.175 C 
ATOM     18  O   LIG    1       -2.999  -7.057  -4.014  0.00  0.00    -0.293 OA
ATOM     19  C   LIG    1       -1.453  -5.500  -3.228  0.00  0.00    +0.252 C 
ATOM     20  C   LIG    1       -2.580  -2.449  -1.115  0.00  0.00    -0.031 C 
ENDROOT
BRANCH  10  21
ATOM     21  O   LIG    1       -0.877  -8.532  -0.120  0.00  0.00    -0.503 OA
ATOM     22  H   LIG    1       -1.574  -9.151  -0.375  0.00  0.00    +0.292 HD
ENDBRANCH  10  21
BRANCH  14  23
ATOM     23  O   LIG    1       -2.522  -2.586  -3.533  0.00  0.00    -0.389 OA
ATOM     24  H   LIG    1       -3.235  -1.943  -3.657  0.00  0.00    +0.210 HD
ENDBRANCH  14  23
BRANCH   1  25
ATOM     25  C   LIG    1       -1.293  -0.775   0.010  0.00  0.00    -0.051 C 
BRANCH  25  27
ATOM     26  C   LIG    1       -0.215   1.414  -0.074  0.00  0.00    +0.002 C 
ATOM     27  C   LIG    1       -0.078   0.111  -0.090  0.00  0.00    -0.053 C 
ENDBRANCH  25  27
ENDBRANCH   1  25
TORSDOF 4
