REMARK  Name = ZINC00529002
REMARK                            x       y       z     vdW  Elec       q    Type
REMARK                         _______ _______ _______ _____ _____    ______ ____
ROOT
ATOM      1  N   LIG    1        0.058  -4.168  -0.021  0.00  0.00    -0.246 N 
ATOM      2  C   LIG    1       -0.383  -4.990   0.943  0.00  0.00    +0.270 A 
ATOM      3  C   LIG    1       -0.271  -6.429   0.734  0.00  0.00    +0.055 A 
ATOM      4  C   LIG    1       -0.647  -7.504   1.566  0.00  0.00    +0.014 A 
ATOM      5  C   LIG    1       -0.447  -8.789   1.165  0.00  0.00    +0.001 A 
ATOM      6  C   LIG    1        0.130  -9.084  -0.064  0.00  0.00    +0.001 A 
ATOM      7  C   LIG    1        0.511  -8.058  -0.905  0.00  0.00    +0.017 A 
ATOM      8  C   LIG    1        0.313  -6.750  -0.511  0.00  0.00    +0.042 A 
ATOM      9  O   LIG    1       -0.867  -4.545   1.970  0.00  0.00    -0.266 OA
ATOM     10  S   LIG    1        0.628  -5.166  -1.238  0.00  0.00    -0.003 S 
ENDROOT
BRANCH   1  15
ATOM     11  C   LIG    1       -0.018   1.503   0.010  0.00  0.00    +0.044 C 
ATOM     12  C   LIG    1        0.002  -0.004   0.002  0.00  0.00    -0.050 A 
ATOM     13  C   LIG    1        0.006  -0.687  -1.200  0.00  0.00    +0.005 A 
ATOM     14  C   LIG    1        0.024  -2.068  -1.212  0.00  0.00    +0.027 A 
ATOM     15  C   LIG    1        0.040  -2.771  -0.013  0.00  0.00    +0.057 A 
ATOM     16  C   LIG    1        0.036  -2.081   1.193  0.00  0.00    +0.027 A 
ATOM     17  C   LIG    1        0.023  -0.700   1.197  0.00  0.00    +0.005 A 
ENDBRANCH   1  15
TORSDOF 1
