REMARK  Name = ZINC00608205
REMARK                            x       y       z     vdW  Elec       q    Type
REMARK                         _______ _______ _______ _____ _____    ______ ____
ROOT
ATOM      1  C   LIG    1        3.052  -0.586  -0.274  0.00  0.00    +0.197 C 
ATOM      2  O   LIG    1        3.703   0.439  -0.195  0.00  0.00    -0.287 OA
ENDROOT
BRANCH   1   4
ATOM      3  C   LIG    1        0.704  -0.474  -1.227  0.00  0.00    +0.117 A 
ATOM      4  C   LIG    1        2.037  -0.734  -1.327  0.00  0.00    +0.071 A 
ATOM      5  C   LIG    1        2.252  -1.194  -2.713  0.00  0.00    +0.031 A 
ATOM      6  C   LIG    1        3.365  -1.606  -3.438  0.00  0.00    +0.012 A 
ATOM      7  C   LIG    1        3.220  -1.983  -4.756  0.00  0.00    +0.001 A 
ATOM      8  C   LIG    1        1.970  -1.952  -5.356  0.00  0.00    +0.004 A 
ATOM      9  C   LIG    1        0.860  -1.545  -4.648  0.00  0.00    +0.047 A 
ATOM     10  C   LIG    1        0.987  -1.161  -3.318  0.00  0.00    +0.136 A 
ATOM     11  O   LIG    1        0.102  -0.733  -2.394  0.00  0.00    -0.459 OA
BRANCH   3  13
ATOM     12  C   LIG    1        0.001   1.554   0.015  0.00  0.00    +0.012 C 
ATOM     13  C   LIG    1        0.009   0.024   0.014  0.00  0.00    +0.072 C 
ENDBRANCH   3  13
ENDBRANCH   1   4
BRANCH   1  14
ATOM     14  C   LIG    1        3.281  -1.682   0.689  0.00  0.00    +0.025 A 
ATOM     15  C   LIG    1        2.622  -2.904   0.530  0.00  0.00    +0.030 A 
ATOM     16  C   LIG    1        2.838  -3.924   1.431  0.00  0.00    +0.061 A 
ATOM     17 BR   LIG    1        1.946  -5.577   1.217  0.00  0.00    -0.046 Br
ATOM     18  C   LIG    1        3.712  -3.739   2.497  0.00  0.00    +0.145 A 
ATOM     19  C   LIG    1        4.370  -2.524   2.658  0.00  0.00    +0.061 A 
ATOM     20 BR   LIG    1        5.557  -2.279   4.110  0.00  0.00    -0.046 Br
ATOM     21  C   LIG    1        4.163  -1.502   1.759  0.00  0.00    +0.030 A 
BRANCH  18  22
ATOM     22  O   LIG    1        3.923  -4.746   3.381  0.00  0.00    -0.505 OA
ATOM     23  H   LIG    1        3.481  -5.565   3.274  0.00  0.00    +0.292 HD
ENDBRANCH  18  22
ENDBRANCH   1  14
TORSDOF 4
