REMARK  Name = ZINC00598510
REMARK                            x       y       z     vdW  Elec       q    Type
REMARK                         _______ _______ _______ _____ _____    ______ ____
ROOT
ATOM      1  C   LIG    1       -1.186  -2.064  -0.099  0.00  0.00    +0.248 C 
ATOM      2  N   LIG    1       -1.201  -0.720   0.010  0.00  0.00    -0.281 N 
ATOM      3  H   LIG    1       -2.045  -0.250   0.098  0.00  0.00    +0.155 HD
ATOM      4  O   LIG    1       -0.127  -2.661  -0.113  0.00  0.00    -0.270 OA
ENDROOT
BRANCH   1   8
ATOM      5  C   LIG    1       -4.841  -4.212  -0.395  0.00  0.00    -0.018 A 
ATOM      6  C   LIG    1       -3.625  -4.898  -0.411  0.00  0.00    +0.009 A 
ATOM      7  C   LIG    1       -2.441  -4.203  -0.316  0.00  0.00    +0.013 A 
ATOM      8  C   LIG    1       -2.456  -2.810  -0.203  0.00  0.00    +0.037 A 
ATOM      9  C   LIG    1       -3.674  -2.125  -0.181  0.00  0.00    +0.013 A 
ATOM     10  C   LIG    1       -4.857  -2.821  -0.282  0.00  0.00    +0.009 A 
BRANCH   5  17
ATOM     11  C   LIG    1       -6.947  -3.710   1.517  0.00  0.00    +0.044 C 
ATOM     12  C   LIG    1       -7.138  -4.726   0.420  0.00  0.00    -0.042 A 
ATOM     13  C   LIG    1       -8.325  -5.418   0.323  0.00  0.00    +0.017 A 
ATOM     14  C   LIG    1       -8.499  -6.363  -0.690  0.00  0.00    +0.039 A 
ATOM     15  C   LIG    1       -7.472  -6.602  -1.607  0.00  0.00    +0.014 A 
ATOM     16  C   LIG    1       -6.289  -5.906  -1.511  0.00  0.00    +0.009 A 
ATOM     17  C   LIG    1       -6.115  -4.961  -0.498  0.00  0.00    -0.015 A 
BRANCH  14  18
ATOM     18  C   LIG    1       -9.770  -7.110  -0.793  0.00  0.00    +0.248 A 
ATOM     19  N   LIG    1      -10.812  -6.986  -0.004  0.00  0.00    -0.107 NA
ATOM     20  N   LIG    1      -11.736  -7.793  -0.392  0.00  0.00    -0.112 NA
ATOM     21  C   LIG    1      -11.323  -8.459  -1.435  0.00  0.00    +0.215 A 
ATOM     22  C   LIG    1      -12.105  -9.503  -2.191  0.00  0.00    +0.111 C 
ATOM     23  O   LIG    1      -10.077  -8.042  -1.718  0.00  0.00    -0.421 OA
ENDBRANCH  14  18
ENDBRANCH   5  17
ENDBRANCH   1   8
BRANCH   2  24
ATOM     24  C   LIG    1        0.002  -0.004  -0.004  0.00  0.00    +0.036 A 
ATOM     25  C   LIG    1        1.070  -0.454  -0.769  0.00  0.00    +0.027 A 
ATOM     26  C   LIG    1        2.258   0.252  -0.784  0.00  0.00    +0.049 A 
ATOM     27  C   LIG    1        2.387   1.410  -0.036  0.00  0.00    +0.141 A 
ATOM     28  C   LIG    1        1.318   1.866   0.732  0.00  0.00    +0.074 A 
ATOM     29  C   LIG    1        0.126   1.157   0.747  0.00  0.00    +0.050 A 
BRANCH  28  30
ATOM     30  N   LIG    1        1.446   3.037   1.487  0.00  0.00    -0.331 N 
ATOM     31  C   LIG    1        1.330   2.753   2.924  0.00  0.00    +0.086 C 
ATOM     32  C   LIG    1        1.555   4.042   3.717  0.00  0.00    -0.060 C 
ATOM     33  N   LIG    1        0.542   5.037   3.305  0.00  0.00    +0.380 N 
ATOM     34  H   LIG    1       -0.394   4.652   3.476  0.00  0.00    -0.082 HD
ATOM     35  C   LIG    1        0.703   6.278   4.093  0.00  0.00    -0.096 C 
ATOM     36  C   LIG    1        0.684   5.333   1.864  0.00  0.00    -0.060 C 
ATOM     37  C   LIG    1        0.459   4.043   1.071  0.00  0.00    +0.086 C 
ENDBRANCH  28  30
BRANCH  27  38
ATOM     38  O   LIG    1        3.558   2.104  -0.052  0.00  0.00    -0.493 OA
ATOM     39  C   LIG    1        4.612   1.579  -0.862  0.00  0.00    +0.277 C 
ENDBRANCH  27  38
ENDBRANCH   2  24
TORSDOF 6
