REMARK  Name = ZINC00626002
REMARK                            x       y       z     vdW  Elec       q    Type
REMARK                         _______ _______ _______ _____ _____    ______ ____
ROOT
ATOM      1  C   LIG    1        6.687   1.442   0.919  0.00  0.00    +0.106 A 
ATOM      2  C   LIG    1        7.111   1.308  -0.390  0.00  0.00    +0.029 A 
ATOM      3  C   LIG    1        7.902   2.279  -0.968  0.00  0.00    +0.011 A 
ATOM      4  C   LIG    1        8.277   3.403  -0.229  0.00  0.00    -0.014 A 
ATOM      5  C   LIG    1        7.845   3.529   1.088  0.00  0.00    -0.033 A 
ATOM      6  C   LIG    1        8.398   4.826   1.625  0.00  0.00    +0.071 C 
ATOM      7  C   LIG    1        9.192   5.440   0.498  0.00  0.00    -0.033 A 
ATOM      8  C   LIG    1        9.914   6.611   0.404  0.00  0.00    +0.033 A 
ATOM      9  C   LIG    1       10.559   6.934  -0.776  0.00  0.00    +0.106 A 
ATOM     10  C   LIG    1       10.479   6.085  -1.865  0.00  0.00    +0.029 A 
ATOM     11  C   LIG    1        9.759   4.912  -1.781  0.00  0.00    +0.011 A 
ATOM     12  C   LIG    1        9.106   4.579  -0.593  0.00  0.00    -0.014 A 
ATOM     13  C   LIG    1        7.050   2.556   1.655  0.00  0.00    +0.033 A 
ENDROOT
BRANCH   1  14
ATOM     14  S   LIG    1        5.676   0.197   1.649  0.00  0.00    +0.059 S 
ATOM     15  O   LIG    1        5.929  -1.003   0.931  0.00  0.00    -0.153 OA
ATOM     16  O   LIG    1        5.860   0.297   3.055  0.00  0.00    -0.153 OA
BRANCH  14  17
ATOM     17  N   LIG    1        4.100   0.606   1.347  0.00  0.00    -0.183 NA
ATOM     18  H   LIG    1        3.509   0.834   2.082  0.00  0.00    +0.148 HD
BRANCH  17  19
ATOM     19  C   LIG    1        3.599   0.625  -0.029  0.00  0.00    +0.180 C 
BRANCH  19  22
ATOM     20  C   LIG    1       -0.016   1.341   0.009  0.00  0.00    +0.041 A 
ATOM     21  C   LIG    1        1.331   1.769  -0.001  0.00  0.00    +0.046 A 
ATOM     22  C   LIG    1        2.092   0.660  -0.014  0.00  0.00    +0.120 A 
ATOM     23  O   LIG    1        1.282  -0.411  -0.012  0.00  0.00    -0.466 OA
ATOM     24  C   LIG    1        0.002  -0.004   0.002  0.00  0.00    +0.195 A 
ENDBRANCH  19  22
ENDBRANCH  17  19
ENDBRANCH  14  17
ENDBRANCH   1  14
BRANCH   9  25
ATOM     25  S   LIG    1       11.482   8.431  -0.893  0.00  0.00    +0.059 S 
ATOM     26  O   LIG    1       12.439   8.238  -1.926  0.00  0.00    -0.153 OA
ATOM     27  O   LIG    1       11.852   8.784   0.432  0.00  0.00    -0.153 OA
BRANCH  25  28
ATOM     28  N   LIG    1       10.443   9.607  -1.424  0.00  0.00    -0.183 NA
ATOM     29  H   LIG    1       10.582  10.021  -2.289  0.00  0.00    +0.148 HD
BRANCH  28  30
ATOM     30  C   LIG    1        9.315  10.020  -0.586  0.00  0.00    +0.180 C 
BRANCH  30  31
ATOM     31  C   LIG    1        8.755  11.320  -1.103  0.00  0.00    +0.120 A 
ATOM     32  C   LIG    1        7.776  11.447  -2.016  0.00  0.00    +0.046 A 
ATOM     33  C   LIG    1        7.568  12.833  -2.204  0.00  0.00    +0.041 A 
ATOM     34  C   LIG    1        8.433  13.470  -1.393  0.00  0.00    +0.195 A 
ATOM     35  O   LIG    1        9.145  12.548  -0.725  0.00  0.00    -0.466 OA
ENDBRANCH  30  31
ENDBRANCH  28  30
ENDBRANCH  25  28
ENDBRANCH   9  25
TORSDOF 8
