REMARK  Name = ZINC00367100
REMARK                            x       y       z     vdW  Elec       q    Type
REMARK                         _______ _______ _______ _____ _____    ______ ____
ROOT
ATOM      1  C   LIG    1        0.707  -0.490  -1.238  0.00  0.00    -0.073 C 
ATOM      2  C   LIG    1        1.968  -0.776  -1.152  0.00  0.00    -0.024 C 
ATOM      3  C   LIG    1        2.800  -1.274  -2.295  0.00  0.00    +0.013 C 
ATOM      4  C   LIG    1        3.025  -2.780  -2.158  0.00  0.00    +0.026 C 
ATOM      5  C   LIG    1        1.726  -3.522  -2.355  0.00  0.00    +0.059 C 
ATOM      6  C   LIG    1        0.636  -2.937  -2.976  0.00  0.00    +0.026 C 
ATOM      7  C   LIG    1        0.651  -1.523  -3.492  0.00  0.00    -0.000 C 
ATOM      8  C   LIG    1       -0.538  -3.667  -3.137  0.00  0.00    +0.060 C 
ATOM      9  C   LIG    1       -0.578  -4.994  -2.651  0.00  0.00    +0.024 C 
ATOM     10  C   LIG    1       -1.726  -5.788  -2.775  0.00  0.00    +0.026 C 
ATOM     11  C   LIG    1       -1.719  -7.062  -2.291  0.00  0.00    +0.081 C 
ATOM     12 CL   LIG    1       -3.141  -8.046  -2.445  0.00  0.00    -0.122 Cl
ATOM     13  C   LIG    1       -0.584  -7.585  -1.675  0.00  0.00    +0.021 C 
ATOM     14  C   LIG    1        0.547  -6.839  -1.538  0.00  0.00    +0.020 C 
ATOM     15  C   LIG    1        0.577  -5.521  -2.026  0.00  0.00    +0.059 C 
ATOM     16  N   LIG    1        1.670  -4.765  -1.908  0.00  0.00    -0.310 NA
ATOM     17  H   LIG    1        2.453  -5.141  -1.478  0.00  0.00    +0.122 HD
ATOM     18  C   LIG    1        2.088  -1.018  -3.627  0.00  0.00    +0.012 C 
ATOM     19  C   LIG    1       -0.091  -0.622  -2.503  0.00  0.00    +0.034 C 
ENDROOT
BRANCH   8  20
ATOM     20  N   LIG    1       -1.643  -3.106  -3.758  0.00  0.00    -0.327 NA
ATOM     21  H   LIG    1       -2.456  -3.625  -3.865  0.00  0.00    +0.118 HD
ATOM     22  H   LIG    1       -1.604  -2.194  -4.087  0.00  0.00    +0.118 HD
ENDBRANCH   8  20
BRANCH   1  24
ATOM     23  C   LIG    1       -0.019   1.526   0.010  0.00  0.00    +0.008 C 
ATOM     24  C   LIG    1        0.002  -0.004   0.002  0.00  0.00    +0.027 C 
ENDBRANCH   1  24
TORSDOF 2
