REMARK  Name = ZINC00469770
REMARK                            x       y       z     vdW  Elec       q    Type
REMARK                         _______ _______ _______ _____ _____    ______ ____
ROOT
ATOM      1  C   LIG    1       -2.574   4.970   0.762  0.00  0.00    +0.225 C 
ATOM      2  N   LIG    1       -2.601   3.656   0.463  0.00  0.00    -0.238 N 
ATOM      3  C   LIG    1       -1.400   2.937   0.441  0.00  0.00    +0.055 A 
ATOM      4  C   LIG    1       -0.241   3.526  -0.042  0.00  0.00    +0.025 A 
ATOM      5  C   LIG    1        0.942   2.809  -0.063  0.00  0.00    +0.002 A 
ATOM      6  C   LIG    1        0.979   1.505   0.395  0.00  0.00    +0.001 A 
ATOM      7  C   LIG    1       -0.171   0.907   0.880  0.00  0.00    +0.017 A 
ATOM      8  C   LIG    1       -1.357   1.617   0.899  0.00  0.00    +0.035 A 
ATOM      9  S   LIG    1       -2.839   0.885   1.520  0.00  0.00    -0.086 S 
ATOM     10  C   LIG    1       -4.089   1.744   0.617  0.00  0.00    +0.035 A 
ATOM     11  C   LIG    1       -5.303   1.141   0.341  0.00  0.00    +0.017 A 
ATOM     12  C   LIG    1       -6.268   1.835  -0.369  0.00  0.00    +0.001 A 
ATOM     13  C   LIG    1       -6.017   3.124  -0.800  0.00  0.00    +0.002 A 
ATOM     14  C   LIG    1       -4.805   3.732  -0.527  0.00  0.00    +0.025 A 
ATOM     15  C   LIG    1       -3.832   3.047   0.184  0.00  0.00    +0.055 A 
ATOM     16  O   LIG    1       -1.528   5.497   1.081  0.00  0.00    -0.275 OA
ENDROOT
BRANCH   1  17
ATOM     17  C   LIG    1       -3.840   5.783   0.701  0.00  0.00    +0.101 C 
BRANCH  17  18
ATOM     18  C   LIG    1       -3.658   7.072   1.505  0.00  0.00    +0.044 C 
BRANCH  18  22
ATOM     19  C   LIG    1       -7.249   9.379   1.331  0.00  0.00    +0.000 A 
ATOM     20  C   LIG    1       -7.072   8.451   2.340  0.00  0.00    +0.000 A 
ATOM     21  C   LIG    1       -5.910   7.705   2.396  0.00  0.00    +0.003 A 
ATOM     22  C   LIG    1       -4.925   7.886   1.444  0.00  0.00    -0.047 A 
ATOM     23  C   LIG    1       -5.100   8.818   0.438  0.00  0.00    +0.003 A 
ATOM     24  C   LIG    1       -6.264   9.561   0.378  0.00  0.00    +0.000 A 
ENDBRANCH  18  22
ENDBRANCH  17  18
ENDBRANCH   1  17
TORSDOF 3
