REMARK  Name = ZINC00381251
REMARK                            x       y       z     vdW  Elec       q    Type
REMARK                         _______ _______ _______ _____ _____    ______ ____
ROOT
ATOM      1  C   LIG    1       -1.260  -0.760   0.011  0.00  0.00    +0.143 C 
ATOM      2  N   LIG    1       -1.239  -2.066   0.003  0.00  0.00    -0.155 NA
ENDROOT
BRANCH   2   3
ATOM      3  N   LIG    1       -2.346  -2.728   0.011  0.00  0.00    -0.127 NA
ATOM      4  C   LIG    1       -2.325  -4.045   0.003  0.00  0.00    +0.182 C 
ATOM      5  N   LIG    1       -1.227  -4.879  -0.006  0.00  0.00    -0.263 N 
ATOM      6  H   LIG    1       -0.341  -4.484  -0.009  0.00  0.00    +0.157 HD
ATOM      7  C   LIG    1       -1.336  -6.196  -0.012  0.00  0.00    +0.229 C 
ATOM      8  O   LIG    1       -0.365  -6.923  -0.020  0.00  0.00    -0.275 OA
ATOM      9  C   LIG    1       -2.755  -6.743  -0.008  0.00  0.00    +0.173 C 
ATOM     10  S   LIG    1       -3.712  -5.171   0.012  0.00  0.00    -0.079 S 
ENDBRANCH   2   3
BRANCH   1  17
ATOM     11  C   LIG    1       -0.017   1.394   0.010  0.00  0.00    +0.012 A 
ATOM     12  C   LIG    1        1.169   2.097   0.002  0.00  0.00    +0.039 A 
ATOM     13  C   LIG    1        2.379   1.420  -0.013  0.00  0.00    +0.123 A 
ATOM     14  F   LIG    1        3.538   2.114  -0.021  0.00  0.00    -0.205 F 
ATOM     15  C   LIG    1        2.405   0.034  -0.022  0.00  0.00    +0.039 A 
ATOM     16  C   LIG    1        1.226  -0.681  -0.014  0.00  0.00    +0.012 A 
ATOM     17  C   LIG    1        0.002  -0.004   0.002  0.00  0.00    -0.005 A 
ENDBRANCH   1  17
TORSDOF 2
