REMARK  Name = ZINC00402121
REMARK                            x       y       z     vdW  Elec       q    Type
REMARK                         _______ _______ _______ _____ _____    ______ ____
ROOT
ATOM      1  C   LIG    1       -2.503   1.008   0.019  0.00  0.00    +0.255 C 
ATOM      2  N   LIG    1       -3.674   1.666   0.130  0.00  0.00    -0.234 N 
ATOM      3  C   LIG    1       -3.669   3.065   0.142  0.00  0.00    +0.055 A 
ATOM      4  C   LIG    1       -2.655   3.759   0.778  0.00  0.00    +0.025 A 
ATOM      5  C   LIG    1       -2.658   5.142   0.781  0.00  0.00    +0.002 A 
ATOM      6  C   LIG    1       -3.668   5.842   0.148  0.00  0.00    +0.001 A 
ATOM      7  C   LIG    1       -4.686   5.160  -0.496  0.00  0.00    +0.017 A 
ATOM      8  C   LIG    1       -4.687   3.778  -0.503  0.00  0.00    +0.035 A 
ATOM      9  S   LIG    1       -5.972   2.880  -1.317  0.00  0.00    -0.086 S 
ATOM     10  C   LIG    1       -6.026   1.377  -0.391  0.00  0.00    +0.035 A 
ATOM     11  C   LIG    1       -7.199   0.652  -0.287  0.00  0.00    +0.017 A 
ATOM     12  C   LIG    1       -7.217  -0.523   0.445  0.00  0.00    +0.001 A 
ATOM     13  C   LIG    1       -6.066  -0.969   1.067  0.00  0.00    +0.002 A 
ATOM     14  C   LIG    1       -4.889  -0.248   0.966  0.00  0.00    +0.025 A 
ATOM     15  C   LIG    1       -4.860   0.930   0.236  0.00  0.00    +0.055 A 
ATOM     16  O   LIG    1       -2.490  -0.207  -0.026  0.00  0.00    -0.269 OA
ENDROOT
BRANCH   1  20
ATOM     17  C   LIG    1        1.145   3.174  -0.177  0.00  0.00    +0.000 A 
ATOM     18  C   LIG    1        0.990   2.170   0.763  0.00  0.00    +0.001 A 
ATOM     19  C   LIG    1       -0.194   1.465   0.834  0.00  0.00    +0.013 A 
ATOM     20  C   LIG    1       -1.234   1.763  -0.048  0.00  0.00    +0.038 A 
ATOM     21  C   LIG    1       -1.072   2.780  -0.991  0.00  0.00    +0.013 A 
ATOM     22  C   LIG    1        0.117   3.477  -1.051  0.00  0.00    +0.001 A 
ENDBRANCH   1  20
TORSDOF 1
