REMARK  Name = ZINC00680536
REMARK                            x       y       z     vdW  Elec       q    Type
REMARK                         _______ _______ _______ _____ _____    ______ ____
ROOT
ATOM      1  N   LIG    1        0.917  -2.152  -3.207  0.00  0.00    -0.283 N 
ATOM      2  H   LIG    1        1.333  -2.441  -2.380  0.00  0.00    +0.155 HD
ENDROOT
BRANCH   1   8
ATOM      3  C   LIG    1       -0.713  -5.499  -8.268  0.00  0.00    +0.136 A 
ATOM      4  N   LIG    1        0.347  -5.644  -7.506  0.00  0.00    -0.233 NA
ATOM      5  C   LIG    1        0.585  -4.851  -6.436  0.00  0.00    +0.080 A 
ATOM      6  C   LIG    1        1.679  -4.900  -5.542  0.00  0.00    +0.031 A 
ATOM      7  C   LIG    1        1.773  -4.017  -4.498  0.00  0.00    +0.025 A 
ATOM      8  C   LIG    1        0.800  -3.044  -4.281  0.00  0.00    +0.035 A 
ATOM      9  C   LIG    1       -0.290  -2.973  -5.139  0.00  0.00    +0.040 A 
ATOM     10  C   LIG    1       -0.384  -3.852  -6.188  0.00  0.00    +0.042 A 
ATOM     11  S   LIG    1       -1.553  -4.123  -7.497  0.00  0.00    -0.061 S 
BRANCH   3  12
ATOM     12  S   LIG    1       -1.187  -6.427  -9.689  0.00  0.00    -0.087 S 
BRANCH  12  13
ATOM     13  C   LIG    1        0.190  -7.599  -9.773  0.00  0.00    +0.196 C 
BRANCH  13  14
ATOM     14  C   LIG    1       -0.006  -8.522 -10.948  0.00  0.00    +0.317 C 
ATOM     15  O   LIG    1       -0.977  -8.400 -11.656  0.00  0.00    -0.250 OA
BRANCH  14  16
ATOM     16  O   LIG    1        0.898  -9.480 -11.207  0.00  0.00    -0.464 OA
BRANCH  16  18
ATOM     17  C   LIG    1        1.774 -11.355 -12.490  0.00  0.00    +0.048 C 
ATOM     18  C   LIG    1        0.644 -10.332 -12.355  0.00  0.00    +0.229 C 
ENDBRANCH  16  18
ENDBRANCH  14  16
ENDBRANCH  13  14
ENDBRANCH  12  13
ENDBRANCH   3  12
ENDBRANCH   1   8
BRANCH   1  19
ATOM     19  C   LIG    1        0.441  -0.861  -3.327  0.00  0.00    +0.225 A 
ATOM     20  N   LIG    1       -0.028  -0.431  -4.495  0.00  0.00    -0.181 NA
ATOM     21  C   LIG    1       -0.486   0.812  -4.610  0.00  0.00    +0.224 A 
ATOM     22  N   LIG    1       -0.481   1.623  -3.556  0.00  0.00    -0.181 NA
ATOM     23  C   LIG    1       -0.007   1.194  -2.390  0.00  0.00    +0.224 A 
ATOM     24  N   LIG    1        0.452  -0.048  -2.275  0.00  0.00    -0.181 NA
BRANCH  21  25
ATOM     25  N   LIG    1       -0.973   1.258  -5.822  0.00  0.00    -0.299 N 
ATOM     26  C   LIG    1       -0.309   2.523  -6.229  0.00  0.00    +0.108 C 
ATOM     27  C   LIG    1       -0.559   2.579  -7.757  0.00  0.00    +0.020 C 
ATOM     28  C   LIG    1       -0.429   1.098  -8.182  0.00  0.00    +0.020 C 
ATOM     29  C   LIG    1       -0.684   0.286  -6.899  0.00  0.00    +0.108 C 
ENDBRANCH  21  25
BRANCH  23  30
ATOM     30  N   LIG    1        0.004   2.038  -1.298  0.00  0.00    -0.299 N 
ATOM     31  C   LIG    1        0.567   1.356  -0.104  0.00  0.00    +0.108 C 
ATOM     32  C   LIG    1        0.036   2.168   1.097  0.00  0.00    +0.020 C 
ATOM     33  C   LIG    1       -1.246   2.857   0.577  0.00  0.00    +0.020 C 
ATOM     34  C   LIG    1       -1.378   2.402  -0.893  0.00  0.00    +0.108 C 
ENDBRANCH  23  30
ENDBRANCH   1  19
TORSDOF 9
