REMARK  Name = ZINC00538273
REMARK                            x       y       z     vdW  Elec       q    Type
REMARK                         _______ _______ _______ _____ _____    ______ ____
ROOT
ATOM      1  C   LIG    1        0.120   1.096  -0.581  0.00  0.00    +0.034 C 
ATOM      2  C   LIG    1        0.174  -0.417  -0.361  0.00  0.00    +0.122 C 
ATOM      3  C   LIG    1        1.008  -1.067  -1.469  0.00  0.00    +0.254 C 
ATOM      4  O   LIG    1        1.179  -2.456  -1.163  0.00  0.00    -0.486 OA
ATOM      5  C   LIG    1        1.718  -2.735   0.059  0.00  0.00    +0.171 A 
ATOM      6  C   LIG    1        1.534  -1.858   1.109  0.00  0.00    +0.097 A 
ATOM      7  C   LIG    1        2.109  -2.153   2.372  0.00  0.00    +0.047 A 
ATOM      8  C   LIG    1        2.849  -3.340   2.555  0.00  0.00    +0.054 A 
ATOM      9  C   LIG    1        3.020  -4.201   1.521  0.00  0.00    +0.151 A 
ATOM     10  F   LIG    1        3.729  -5.336   1.702  0.00  0.00    -0.203 F 
ATOM     11  C   LIG    1        1.928  -1.250   3.434  0.00  0.00    +0.142 A 
ATOM     12  C   LIG    1        1.176  -0.072   3.201  0.00  0.00    +0.117 A 
ATOM     13  C   LIG    1        0.629   0.164   1.951  0.00  0.00    +0.105 A 
ATOM     14  C   LIG    1        2.459  -3.915   0.253  0.00  0.00    +0.118 A 
ATOM     15  N   LIG    1        2.635  -4.766  -0.761  0.00  0.00    -0.369 N 
ATOM     16  C   LIG    1        1.674  -4.826  -1.873  0.00  0.00    +0.098 C 
ATOM     17  C   LIG    1        1.271  -6.288  -2.090  0.00  0.00    -0.058 C 
ATOM     18  N   LIG    1        2.477  -7.103  -2.287  0.00  0.00    +0.380 N 
ATOM     19  H   LIG    1        3.016  -6.724  -3.051  0.00  0.00    -0.082 HD
ATOM     20  C   LIG    1        2.087  -8.483  -2.603  0.00  0.00    -0.096 C 
ATOM     21  C   LIG    1        3.291  -7.094  -1.064  0.00  0.00    -0.058 C 
ATOM     22  C   LIG    1        3.797  -5.667  -0.800  0.00  0.00    +0.098 C 
ATOM     23  N   LIG    1        0.792  -0.702   0.940  0.00  0.00    -0.337 N 
ENDROOT
BRANCH  11  24
ATOM     24  O   LIG    1        2.460  -1.499   4.649  0.00  0.00    -0.505 OA
ATOM     25  H   LIG    1        2.208  -0.858   5.328  0.00  0.00    +0.292 HD
ENDBRANCH  11  24
BRANCH  12  26
ATOM     26  C   LIG    1        0.977   0.899   4.285  0.00  0.00    +0.342 C 
ATOM     27  O   LIG    1        0.414   1.962   4.059  0.00  0.00    -0.245 OA
BRANCH  26  28
ATOM     28  O   LIG    1        1.375   0.645   5.414  0.00  0.00    -0.477 OA
ATOM     29  H   LIG    1        1.806  -0.169   5.587  0.00  0.00    +0.295 HD
ENDBRANCH  26  28
ENDBRANCH  12  26
TORSDOF 3
