REMARK  Name = ZINC00388706
REMARK                            x       y       z     vdW  Elec       q    Type
REMARK                         _______ _______ _______ _____ _____    ______ ____
ROOT
ATOM      1  C   LIG    1       -2.479   0.930   0.019  0.00  0.00    +0.022 C 
ENDROOT
BRANCH   1   2
ATOM      2  C   LIG    1       -3.814   1.677   0.029  0.00  0.00    +0.121 C 
BRANCH   2   3
ATOM      3  C   LIG    1       -4.946   0.682   0.029  0.00  0.00    +0.305 C 
ATOM      4  O   LIG    1       -4.709  -0.503   0.022  0.00  0.00    -0.251 OA
BRANCH   3   5
ATOM      5  O   LIG    1       -6.218   1.112   0.038  0.00  0.00    -0.481 OA
ATOM      6  H   LIG    1       -6.401   2.031   0.043  0.00  0.00    +0.295 HD
ENDBRANCH   3   5
ENDBRANCH   2   3
ENDBRANCH   1   2
BRANCH   1   7
ATOM      7  C   LIG    1       -1.329   1.940   0.019  0.00  0.00    +0.121 C 
BRANCH   7   8
ATOM      8  C   LIG    1       -0.014   1.204   0.009  0.00  0.00    +0.305 C 
ATOM      9  O   LIG    1        0.002  -0.004   0.002  0.00  0.00    -0.251 OA
BRANCH   8  10
ATOM     10  O   LIG    1        1.139   1.891   0.001  0.00  0.00    -0.481 OA
ATOM     11  H   LIG    1        1.126   2.828   0.006  0.00  0.00    +0.295 HD
ENDBRANCH   8  10
ENDBRANCH   7   8
ENDBRANCH   1   7
TORSDOF 6
