REMARK  Name = ZINC00500952
REMARK                            x       y       z     vdW  Elec       q    Type
REMARK                         _______ _______ _______ _____ _____    ______ ____
ROOT
ATOM      1  C   LIG    1        2.401   0.018  -0.060  0.00  0.00    +0.001 A 
ATOM      2  C   LIG    1        1.208  -0.682  -0.033  0.00  0.00    +0.004 A 
ATOM      3  C   LIG    1        0.002  -0.004   0.002  0.00  0.00    +0.047 A 
ATOM      4  C   LIG    1       -0.017   1.380   0.010  0.00  0.00    +0.137 A 
ATOM      5  C   LIG    1        1.188   2.094   0.002  0.00  0.00    +0.035 A 
ATOM      6  C   LIG    1        1.189   3.559   0.071  0.00  0.00    +0.123 C 
ATOM      7  N   LIG    1        0.359   4.331  -0.520  0.00  0.00    -0.251 NA
ATOM      8  C   LIG    1       -0.662   3.960  -1.343  0.00  0.00    +0.106 A 
ATOM      9  C   LIG    1       -0.917   4.719  -2.489  0.00  0.00    +0.031 A 
ATOM     10  C   LIG    1       -1.963   4.384  -3.325  0.00  0.00    +0.002 A 
ATOM     11  C   LIG    1       -2.766   3.298  -3.031  0.00  0.00    +0.004 A 
ATOM     12  C   LIG    1       -2.517   2.533  -1.906  0.00  0.00    +0.048 A 
ATOM     13  C   LIG    1       -1.462   2.849  -1.066  0.00  0.00    +0.154 A 
ATOM     14  O   LIG    1       -1.200   2.042  -0.006  0.00  0.00    -0.453 OA
ATOM     15  C   LIG    1        2.399   1.398  -0.044  0.00  0.00    +0.013 A 
ENDROOT
TORSDOF 0
