REMARK  Name = ZINC00601265
REMARK                            x       y       z     vdW  Elec       q    Type
REMARK                         _______ _______ _______ _____ _____    ______ ____
ROOT
ATOM      1  C   LIG    1        0.348   0.318  -0.573  0.00  0.00    +0.066 C 
ATOM      2  C   LIG    1        0.134  -1.144  -0.280  0.00  0.00    +0.049 C 
ATOM      3  C   LIG    1       -1.145  -1.616  -0.186  0.00  0.00    +0.069 C 
ATOM      4  C   LIG    1       -1.328  -3.093   0.109  0.00  0.00    +0.096 C 
ATOM      5  C   LIG    1       -0.052  -3.899   0.272  0.00  0.00    +0.065 C 
ATOM      6  C   LIG    1        1.155  -3.212   0.135  0.00  0.00    +0.049 C 
ATOM      7  C   LIG    1        2.451  -3.967   0.287  0.00  0.00    +0.066 C 
ATOM      8  C   LIG    1       -0.084  -5.250   0.541  0.00  0.00    +0.285 C 
ATOM      9  N   LIG    1        1.192  -1.926  -0.127  0.00  0.00    -0.256 NA
ENDROOT
BRANCH   4  10
ATOM     10  C   LIG    1       -2.126  -3.702  -1.015  0.00  0.00    -0.033 A 
ATOM     11  C   LIG    1       -1.638  -3.664  -2.308  0.00  0.00    +0.005 A 
ATOM     12  C   LIG    1       -2.370  -4.223  -3.339  0.00  0.00    +0.003 A 
ATOM     13  C   LIG    1       -3.589  -4.821  -3.077  0.00  0.00    +0.032 A 
ATOM     14  C   LIG    1       -4.075  -4.860  -1.784  0.00  0.00    +0.122 A 
ATOM     15  C   LIG    1       -3.342  -4.304  -0.752  0.00  0.00    +0.037 A 
BRANCH  14  16
ATOM     16  N   LIG    1       -5.381  -5.499  -1.504  0.00  0.00    +0.006 N 
ATOM     17  O   LIG    1       -6.021  -5.987  -2.406  0.00  0.00    -0.130 OA
BRANCH  16  18
ATOM     18  O   LIG    1       -5.807  -5.533  -0.373  0.00  0.00    -0.396 OA
ATOM     19  H   LIG    1       -5.311  -5.155   0.326  0.00  0.00    +0.329 HD
ENDBRANCH  16  18
ENDBRANCH  14  16
ENDBRANCH   4  10
BRANCH   3  20
ATOM     20  C   LIG    1       -2.250  -0.764  -0.357  0.00  0.00    +0.338 C 
ATOM     21  O   LIG    1       -2.077   0.418  -0.593  0.00  0.00    -0.245 OA
BRANCH  20  22
ATOM     22  O   LIG    1       -3.504  -1.256  -0.260  0.00  0.00    -0.460 OA
BRANCH  22  23
ATOM     23  C   LIG    1       -4.579  -0.334  -0.445  0.00  0.00    +0.248 C 
BRANCH  23  24
ATOM     24  C   LIG    1       -5.913  -1.070  -0.299  0.00  0.00    +0.125 C 
BRANCH  24  25
ATOM     25  N   LIG    1       -6.042  -1.583   1.072  0.00  0.00    -0.298 NA
ATOM     26  C   LIG    1       -7.093  -2.605   1.154  0.00  0.00    +0.105 C 
BRANCH  25  27
ATOM     27  C   LIG    1       -6.293  -0.491   2.021  0.00  0.00    +0.119 C 
BRANCH  27  28
ATOM     28  C   LIG    1       -6.175  -1.013   3.430  0.00  0.00    -0.033 A 
ATOM     29  C   LIG    1       -7.287  -1.525   4.072  0.00  0.00    +0.005 A 
ATOM     30  C   LIG    1       -7.179  -2.004   5.365  0.00  0.00    +0.000 A 
ATOM     31  C   LIG    1       -5.959  -1.972   6.014  0.00  0.00    +0.000 A 
ATOM     32  C   LIG    1       -4.848  -1.460   5.372  0.00  0.00    +0.000 A 
ATOM     33  C   LIG    1       -4.955  -0.985   4.078  0.00  0.00    +0.005 A 
ENDBRANCH  27  28
ENDBRANCH  25  27
ENDBRANCH  24  25
ENDBRANCH  23  24
ENDBRANCH  22  23
ENDBRANCH  20  22
ENDBRANCH   3  20
BRANCH   8  34
ATOM     34  O   LIG    1        1.060  -5.962   0.555  0.00  0.00    -0.467 OA
ATOM     35  C   LIG    1        0.952  -7.357   0.842  0.00  0.00    +0.280 C 
ENDBRANCH   8  34
BRANCH   8  36
ATOM     36  O   LIG    1       -1.260  -5.859   0.792  0.00  0.00    -0.480 OA
ATOM     37  H   LIG    1       -2.055  -5.364   0.782  0.00  0.00    +0.295 HD
ENDBRANCH   8  36
TORSDOF 12
