REMARK  Name = ZINC00388251
REMARK                            x       y       z     vdW  Elec       q    Type
REMARK                         _______ _______ _______ _____ _____    ______ ____
ROOT
ATOM      1  C   LIG    1       -0.017   1.387   0.010  0.00  0.00    +0.161 A 
ATOM      2  C   LIG    1        1.175   2.093   0.002  0.00  0.00    +0.049 A 
ATOM      3  C   LIG    1        2.380   1.415  -0.013  0.00  0.00    +0.004 A 
ATOM      4  C   LIG    1        2.399   0.033  -0.021  0.00  0.00    +0.004 A 
ATOM      5  C   LIG    1        1.213  -0.677  -0.013  0.00  0.00    +0.049 A 
ATOM      6  C   LIG    1        0.002  -0.004   0.002  0.00  0.00    +0.161 A 
ENDROOT
BRANCH   1   8
ATOM      7  C   LIG    1       -1.146   3.481   0.026  0.00  0.00    +0.277 C 
ATOM      8  O   LIG    1       -1.203   2.053   0.019  0.00  0.00    -0.491 OA
ENDBRANCH   1   8
BRANCH   6   9
ATOM      9  O   LIG    1       -1.165  -0.702   0.009  0.00  0.00    -0.491 OA
ATOM     10  C   LIG    1       -1.069  -2.127   0.000  0.00  0.00    +0.277 C 
ENDBRANCH   6   9
TORSDOF 2
