REMARK  Name = ZINC00664955
REMARK                            x       y       z     vdW  Elec       q    Type
REMARK                         _______ _______ _______ _____ _____    ______ ____
ROOT
ATOM      1  C   LIG    1        2.487   4.087  -0.001  0.00  0.00    +0.001 A 
ATOM      2  C   LIG    1        3.666   3.346  -0.015  0.00  0.00    +0.001 A 
ATOM      3  C   LIG    1        3.640   1.983  -0.022  0.00  0.00    +0.012 A 
ATOM      4  C   LIG    1        2.409   1.315  -0.014  0.00  0.00    +0.022 A 
ATOM      5  C   LIG    1        1.208   2.070   0.002  0.00  0.00    -0.013 A 
ATOM      6  C   LIG    1       -0.017   1.378   0.010  0.00  0.00    +0.038 A 
ATOM      7  C   LIG    1        0.002  -0.004   0.002  0.00  0.00    +0.092 A 
ATOM      8  N   LIG    1        1.149  -0.687  -0.013  0.00  0.00    -0.230 NA
ATOM      9  C   LIG    1        2.325  -0.096  -0.021  0.00  0.00    +0.134 A 
ATOM     10  C   LIG    1        1.271   3.471   0.008  0.00  0.00    +0.009 A 
ENDROOT
BRANCH   7  11
ATOM     11  C   LIG    1       -1.282  -0.746   0.010  0.00  0.00    +0.089 A 
ATOM     12  C   LIG    1       -1.276  -2.139  -0.004  0.00  0.00    +0.030 A 
ATOM     13  C   LIG    1       -2.482  -2.817   0.009  0.00  0.00    +0.004 A 
ATOM     14  C   LIG    1       -3.657  -2.079   0.024  0.00  0.00    +0.020 A 
ATOM     15  C   LIG    1       -3.590  -0.698   0.031  0.00  0.00    +0.111 A 
ATOM     16  N   LIG    1       -2.428  -0.077   0.024  0.00  0.00    -0.253 NA
ENDBRANCH   7  11
BRANCH   9  17
ATOM     17  N   LIG    1        3.485  -0.859  -0.035  0.00  0.00    -0.266 N 
ATOM     18  H   LIG    1        4.352  -0.424  -0.041  0.00  0.00    +0.157 HD
ATOM     19  C   LIG    1        3.406  -2.205  -0.041  0.00  0.00    +0.249 C 
ATOM     20  O   LIG    1        2.319  -2.750  -0.034  0.00  0.00    -0.270 OA
BRANCH  19  21
ATOM     21  C   LIG    1        4.640  -3.018  -0.057  0.00  0.00    +0.038 A 
ATOM     22  C   LIG    1        4.561  -4.412  -0.063  0.00  0.00    +0.013 A 
ATOM     23  C   LIG    1        5.717  -5.165  -0.078  0.00  0.00    +0.002 A 
ATOM     24  C   LIG    1        6.953  -4.542  -0.088  0.00  0.00    +0.020 A 
ATOM     25  C   LIG    1        7.038  -3.160  -0.082  0.00  0.00    +0.042 A 
ATOM     26 CL   LIG    1        8.593  -2.388  -0.094  0.00  0.00    -0.084 Cl
ATOM     27  C   LIG    1        5.889  -2.395  -0.071  0.00  0.00    +0.033 A 
ENDBRANCH  19  21
ENDBRANCH   9  17
TORSDOF 3
