REMARK  Name = ZINC00381801
REMARK                            x       y       z     vdW  Elec       q    Type
REMARK                         _______ _______ _______ _____ _____    ______ ____
ROOT
ATOM      1  C   LIG    1        1.587  -2.209  -2.579  0.00  0.00    +0.033 A 
ATOM      2  C   LIG    1        2.161  -1.255  -3.408  0.00  0.00    +0.025 A 
ATOM      3  C   LIG    1        2.891  -1.650  -4.511  0.00  0.00    +0.030 A 
ATOM      4  C   LIG    1        3.050  -2.995  -4.792  0.00  0.00    +0.105 A 
ATOM      5  C   LIG    1        2.478  -3.948  -3.969  0.00  0.00    +0.030 A 
ATOM      6  C   LIG    1        1.753  -3.559  -2.860  0.00  0.00    +0.025 A 
ENDROOT
BRANCH   1   8
ATOM      7  C   LIG    1        0.888  -2.545  -0.330  0.00  0.00    +0.217 C 
ATOM      8  N   LIG    1        0.847  -1.812  -1.460  0.00  0.00    -0.286 N 
ATOM      9  H   LIG    1        0.304  -1.009  -1.497  0.00  0.00    +0.155 HD
ATOM     10  O   LIG    1        1.498  -3.593  -0.308  0.00  0.00    -0.275 OA
BRANCH   7  12
ATOM     11  C   LIG    1        0.379  -3.073   2.039  0.00  0.00    +0.013 C 
ATOM     12  C   LIG    1        0.175  -2.063   0.908  0.00  0.00    +0.093 C 
ENDBRANCH   7  12
ENDBRANCH   1   8
BRANCH   4  13
ATOM     13  S   LIG    1        3.981  -3.495  -6.201  0.00  0.00    +0.056 S 
ATOM     14  O   LIG    1        3.953  -2.407  -7.114  0.00  0.00    -0.153 OA
ATOM     15  O   LIG    1        3.524  -4.795  -6.550  0.00  0.00    -0.153 OA
BRANCH  13  16
ATOM     16  N   LIG    1        5.555  -3.662  -5.713  0.00  0.00    -0.204 NA
ATOM     17  H   LIG    1        6.234  -3.935  -6.351  0.00  0.00    +0.144 HD
ATOM     18  H   LIG    1        5.798  -3.488  -4.791  0.00  0.00    +0.144 HD
ENDBRANCH  13  16
ENDBRANCH   4  13
TORSDOF 4
