REMARK  Name = ZINC00366861
REMARK                            x       y       z     vdW  Elec       q    Type
REMARK                         _______ _______ _______ _____ _____    ______ ____
ROOT
ATOM      1  C   LIG    1       -1.196  -0.739   0.009  0.00  0.00    +0.101 A 
ATOM      2  C   LIG    1       -1.143  -2.143   0.001  0.00  0.00    +0.131 A 
ATOM      3  C   LIG    1        0.084  -2.798  -0.015  0.00  0.00    +0.047 A 
ATOM      4  C   LIG    1        1.251  -2.090  -0.021  0.00  0.00    +0.015 A 
ATOM      5  C   LIG    1        1.228  -0.689  -0.013  0.00  0.00    +0.019 A 
ATOM      6  C   LIG    1        2.472   0.084  -0.021  0.00  0.00    +0.018 A 
ATOM      7  C   LIG    1        2.385   1.440  -0.012  0.00  0.00    +0.092 A 
ATOM      8  C   LIG    1        1.119   2.060   0.002  0.00  0.00    +0.337 A 
ATOM      9  O   LIG    1        1.053   3.276   0.009  0.00  0.00    -0.245 OA
ATOM     10  O   LIG    1       -0.016   1.343   0.009  0.00  0.00    -0.421 OA
ATOM     11  C   LIG    1        0.002  -0.004   0.002  0.00  0.00    +0.153 A 
ENDROOT
BRANCH   1  13
ATOM     12  C   LIG    1       -3.767  -0.843   0.032  0.00  0.00    +0.092 C 
ATOM     13  C   LIG    1       -2.487  -0.048   0.025  0.00  0.00    +0.167 C 
ATOM     14  O   LIG    1       -2.526   1.165   0.031  0.00  0.00    -0.292 OA
ENDBRANCH   1  13
BRANCH   2  15
ATOM     15  O   LIG    1       -2.291  -2.861   0.008  0.00  0.00    -0.506 OA
ATOM     16  H   LIG    1       -2.633  -3.065  -0.874  0.00  0.00    +0.292 HD
ENDBRANCH   2  15
TORSDOF 2
