REMARK  Name = ZINC00602192
REMARK                            x       y       z     vdW  Elec       q    Type
REMARK                         _______ _______ _______ _____ _____    ______ ____
ROOT
ATOM      1  C   LIG    1       -3.461  -0.051   1.336  0.00  0.00    +0.219 A 
ATOM      2  N   LIG    1       -4.174  -0.291   0.242  0.00  0.00    -0.197 NA
ATOM      3  C   LIG    1       -5.498  -0.197   0.252  0.00  0.00    +0.152 A 
ATOM      4  C   LIG    1       -6.138   0.164   1.451  0.00  0.00    +0.148 A 
ATOM      5  C   LIG    1       -5.343   0.409   2.582  0.00  0.00    +0.167 A 
ATOM      6  N   LIG    1       -6.212   0.736   3.592  0.00  0.00    -0.312 N 
ATOM      7  C   LIG    1       -7.475   0.686   3.078  0.00  0.00    +0.201 A 
ATOM      8  N   LIG    1       -7.429   0.350   1.821  0.00  0.00    -0.231 NA
ATOM      9  N   LIG    1       -4.023   0.287   2.485  0.00  0.00    -0.195 NA
ENDROOT
BRANCH   6  10
ATOM     10  C   LIG    1       -5.851   1.075   4.971  0.00  0.00    +0.084 C 
ATOM     11  C   LIG    1       -6.505   0.079   5.930  0.00  0.00    +0.030 C 
ATOM     12  C   LIG    1       -6.339   2.489   5.293  0.00  0.00    +0.030 C 
ENDBRANCH   6  10
BRANCH   1  13
ATOM     13  N   LIG    1       -2.082  -0.162   1.273  0.00  0.00    -0.308 N 
ATOM     14  H   LIG    1       -1.545   0.006   2.063  0.00  0.00    +0.149 HD
BRANCH  13  15
ATOM     15  CA  LIG    1       -1.433  -0.534   0.013  0.00  0.00    +0.098 C 
BRANCH  15  17
ATOM     16  C   LIG    1       -0.019   1.526   0.010  0.00  0.00    +0.006 C 
ATOM     17  C   LIG    1        0.002  -0.004   0.002  0.00  0.00    +0.021 C 
ENDBRANCH  15  17
BRANCH  15  18
ATOM     18  C   LIG    1       -1.416  -2.058  -0.121  0.00  0.00    +0.178 C 
BRANCH  18  19
ATOM     19  O   LIG    1       -0.594  -2.617   0.906  0.00  0.00    -0.393 OA
ATOM     20  H   LIG    1       -0.537  -3.582   0.882  0.00  0.00    +0.209 HD
ENDBRANCH  18  19
ENDBRANCH  15  18
ENDBRANCH  13  15
ENDBRANCH   1  13
BRANCH   3  21
ATOM     21  N   LIG    1       -6.233  -0.450  -0.893  0.00  0.00    -0.323 N 
ATOM     22  H   LIG    1       -7.200  -0.378  -0.874  0.00  0.00    +0.148 HD
BRANCH  21  23
ATOM     23  C   LIG    1       -5.550  -0.824  -2.134  0.00  0.00    +0.138 C 
BRANCH  23  24
ATOM     24  C   LIG    1       -6.570  -1.042  -3.222  0.00  0.00    -0.030 A 
ATOM     25  C   LIG    1       -7.121  -2.295  -3.412  0.00  0.00    +0.005 A 
ATOM     26  C   LIG    1       -8.056  -2.495  -4.410  0.00  0.00    +0.000 A 
ATOM     27  C   LIG    1       -8.440  -1.441  -5.218  0.00  0.00    +0.000 A 
ATOM     28  C   LIG    1       -7.890  -0.188  -5.027  0.00  0.00    +0.000 A 
ATOM     29  C   LIG    1       -6.958   0.013  -4.026  0.00  0.00    +0.005 A 
ENDBRANCH  23  24
ENDBRANCH  21  23
ENDBRANCH   3  21
TORSDOF 9
