REMARK  Name = ZINC00509902
REMARK                            x       y       z     vdW  Elec       q    Type
REMARK                         _______ _______ _______ _____ _____    ______ ____
ROOT
ATOM      1  C   LIG    1        3.083  -3.179  -7.073  0.00  0.00    +0.001 A 
ATOM      2  C   LIG    1        4.118  -2.379  -6.606  0.00  0.00    +0.002 A 
ATOM      3  C   LIG    1        3.996  -1.697  -5.416  0.00  0.00    +0.026 A 
ATOM      4  C   LIG    1        2.824  -1.808  -4.672  0.00  0.00    +0.047 A 
ATOM      5  C   LIG    1        1.776  -2.620  -5.149  0.00  0.00    +0.000 A 
ATOM      6  C   LIG    1        0.731  -2.546  -4.196  0.00  0.00    +0.040 A 
ATOM      7  C   LIG    1        1.137  -1.717  -3.199  0.00  0.00    +0.103 A 
ATOM      8  N   LIG    1        2.413  -1.265  -3.478  0.00  0.00    -0.351 N 
ATOM      9  H   LIG    1        2.933  -0.664  -2.922  0.00  0.00    +0.166 HD
ATOM     10  C   LIG    1        1.925  -3.304  -6.362  0.00  0.00    +0.010 A 
ENDROOT
BRANCH   7  11
ATOM     11  C   LIG    1        0.348  -1.363  -2.010  0.00  0.00    +0.263 C 
ATOM     12  N   LIG    1        0.544  -0.177  -1.400  0.00  0.00    -0.300 N 
ATOM     13  C   LIG    1       -0.238   0.200  -0.213  0.00  0.00    +0.089 C 
ATOM     14  C   LIG    1       -0.837   1.591  -0.445  0.00  0.00    -0.063 C 
ATOM     15  N   LIG    1        0.238   2.538  -0.799  0.00  0.00    +0.381 N 
ATOM     16  H   LIG    1       -0.160   3.479  -0.898  0.00  0.00    -0.086 HD
ATOM     17  H   LIG    1        0.944   2.542  -0.054  0.00  0.00    -0.086 HD
ATOM     18  C   LIG    1        0.876   2.143  -2.071  0.00  0.00    -0.063 C 
ATOM     19  C   LIG    1        1.546   0.775  -1.904  0.00  0.00    +0.089 C 
ATOM     20  O   LIG    1       -0.482  -2.139  -1.577  0.00  0.00    -0.268 OA
ENDBRANCH   7  11
TORSDOF 1
