REMARK  Name = ZINC00630924
REMARK                            x       y       z     vdW  Elec       q    Type
REMARK                         _______ _______ _______ _____ _____    ______ ____
ROOT
ATOM      1  C   LIG    1        2.539  -4.146   1.111  0.00  0.00    +0.037 A 
ATOM      2  C   LIG    1        2.161  -3.678   2.371  0.00  0.00    +0.013 A 
ATOM      3  C   LIG    1        2.774  -4.177   3.502  0.00  0.00    +0.006 A 
ATOM      4  C   LIG    1        3.762  -5.139   3.389  0.00  0.00    -0.032 A 
ATOM      5  C   LIG    1        4.141  -5.607   2.143  0.00  0.00    +0.006 A 
ATOM      6  C   LIG    1        3.532  -5.120   1.005  0.00  0.00    +0.013 A 
ENDROOT
BRANCH   1  12
ATOM      7  C   LIG    1        3.223   1.439  -1.558  0.00  0.00    +0.105 C 
ATOM      8  N   LIG    1        2.443   0.315  -1.022  0.00  0.00    -0.302 NA
ATOM      9  C   LIG    1        2.159  -0.675  -2.068  0.00  0.00    +0.103 C 
ATOM     10  C   LIG    1        1.197  -1.733  -1.518  0.00  0.00    +0.123 C 
ATOM     11  N   LIG    1        1.767  -2.284  -0.279  0.00  0.00    -0.295 N 
ATOM     12  C   LIG    1        1.886  -3.615  -0.104  0.00  0.00    +0.247 C 
ATOM     13  O   LIG    1        1.456  -4.380  -0.946  0.00  0.00    -0.270 OA
ATOM     14  C   LIG    1        2.204  -1.344   0.764  0.00  0.00    +0.123 C 
ATOM     15  C   LIG    1        3.127  -0.301   0.124  0.00  0.00    +0.103 C 
ENDBRANCH   1  12
BRANCH   4  16
ATOM     16  C   LIG    1        4.427  -5.680   4.628  0.00  0.00    +0.141 C 
BRANCH  16  17
ATOM     17  N   LIG    1        3.685  -6.848   5.111  0.00  0.00    -0.186 NA
ATOM     18  H   LIG    1        2.791  -7.024   4.780  0.00  0.00    +0.148 HD
BRANCH  17  19
ATOM     19  S   LIG    1        4.374  -7.866   6.221  0.00  0.00    +0.059 S 
ATOM     20  O   LIG    1        5.675  -8.173   5.737  0.00  0.00    -0.153 OA
ATOM     21  O   LIG    1        3.410  -8.870   6.504  0.00  0.00    -0.153 OA
BRANCH  19  22
ATOM     22  C   LIG    1        4.594  -6.945   7.707  0.00  0.00    +0.107 A 
ATOM     23  C   LIG    1        5.767  -6.244   7.918  0.00  0.00    +0.028 A 
ATOM     24  C   LIG    1        5.940  -5.521   9.084  0.00  0.00    +0.003 A 
ATOM     25  C   LIG    1        4.941  -5.499  10.038  0.00  0.00    +0.020 A 
ATOM     26  C   LIG    1        3.767  -6.200   9.827  0.00  0.00    +0.043 A 
ATOM     27 CL   LIG    1        2.511  -6.173  11.026  0.00  0.00    -0.083 Cl
ATOM     28  C   LIG    1        3.592  -6.918   8.658  0.00  0.00    +0.048 A 
ENDBRANCH  19  22
ENDBRANCH  17  19
ENDBRANCH  16  17
ENDBRANCH   4  16
TORSDOF 5
