REMARK  Name = ZINC00643138
REMARK                            x       y       z     vdW  Elec       q    Type
REMARK                         _______ _______ _______ _____ _____    ______ ____
ROOT
ATOM      1  C   LIG    1        3.984   5.902  -5.876  0.00  0.00    +0.185 C 
ATOM      2  C   LIG    1        5.436   6.432  -5.973  0.00  0.00    +0.198 C 
ATOM      3  O   LIG    1        5.608   6.561  -7.404  0.00  0.00    -0.341 OA
ATOM      4  C   LIG    1        4.883   5.452  -7.963  0.00  0.00    +0.217 C 
ATOM      5  O   LIG    1        3.868   5.046  -7.031  0.00  0.00    -0.334 OA
ENDROOT
BRANCH   4   6
ATOM      6  C   LIG    1        4.238   5.871  -9.259  0.00  0.00    +0.031 A 
ATOM      7  C   LIG    1        4.546   5.206 -10.431  0.00  0.00    +0.012 A 
ATOM      8  C   LIG    1        3.955   5.589 -11.620  0.00  0.00    +0.020 A 
ATOM      9  C   LIG    1        3.053   6.638 -11.637  0.00  0.00    +0.042 A 
ATOM     10 CL   LIG    1        2.311   7.120 -13.131  0.00  0.00    -0.083 Cl
ATOM     11  C   LIG    1        2.744   7.304 -10.465  0.00  0.00    +0.040 A 
ATOM     12  C   LIG    1        3.333   6.917  -9.274  0.00  0.00    +0.051 A 
ATOM     13 CL   LIG    1        2.940   7.748  -7.802  0.00  0.00    -0.083 Cl
ENDBRANCH   4   6
BRANCH   1  14
ATOM     14  C   LIG    1        3.785   5.101  -4.588  0.00  0.00    +0.263 C 
BRANCH  14  15
ATOM     15  O   LIG    1        2.424   4.677  -4.496  0.00  0.00    -0.489 OA
BRANCH  15  19
ATOM     16  C   LIG    1        1.370   2.464  -1.173  0.00  0.00    +0.030 A 
ATOM     17  C   LIG    1        0.418   2.764  -2.139  0.00  0.00    +0.027 A 
ATOM     18  C   LIG    1        0.771   3.504  -3.250  0.00  0.00    +0.047 A 
ATOM     19  C   LIG    1        2.077   3.948  -3.401  0.00  0.00    +0.121 A 
ATOM     20  C   LIG    1        3.028   3.648  -2.438  0.00  0.00    +0.047 A 
ATOM     21  C   LIG    1        2.675   2.913  -1.323  0.00  0.00    +0.027 A 
BRANCH  16  30
ATOM     22  C   LIG    1        1.973   1.501   1.045  0.00  0.00    +0.124 C 
ATOM     23  C   LIG    1        2.116  -0.007   1.284  0.00  0.00    +0.126 C 
ATOM     24  N   LIG    1        0.774  -0.595   1.396  0.00  0.00    -0.299 N 
ATOM     25  C   LIG    1        0.430  -1.317   2.481  0.00  0.00    +0.213 C 
ATOM     26  C   LIG    1       -0.984  -1.814   2.638  0.00  0.00    +0.109 C 
ATOM     27  O   LIG    1        1.258  -1.565   3.332  0.00  0.00    -0.276 OA
ATOM     28  C   LIG    1       -0.186  -0.381   0.304  0.00  0.00    +0.126 C 
ATOM     29  C   LIG    1       -0.330   1.127   0.066  0.00  0.00    +0.124 C 
ATOM     30  N   LIG    1        1.013   1.714  -0.047  0.00  0.00    -0.327 N 
ENDBRANCH  16  30
ENDBRANCH  15  19
ENDBRANCH  14  15
ENDBRANCH   1  14
BRANCH   4  31
ATOM     31  C   LIG    1        5.842   4.289  -8.222  0.00  0.00    +0.193 C 
BRANCH  31  32
ATOM     32  N   LIG    1        6.476   3.889  -6.963  0.00  0.00    -0.333 N 
ATOM     33  C   LIG    1        7.642   4.386  -6.447  0.00  0.00    +0.104 A 
ATOM     34  C   LIG    1        7.856   3.746  -5.282  0.00  0.00    +0.101 A 
ATOM     35  N   LIG    1        6.849   2.881  -5.092  0.00  0.00    -0.352 N 
ATOM     36  H   LIG    1        6.753   2.289  -4.330  0.00  0.00    +0.166 HD
ATOM     37  C   LIG    1        6.016   2.965  -6.093  0.00  0.00    +0.173 A 
ENDBRANCH  31  32
ENDBRANCH   4  31
TORSDOF 7
