REMARK  Name = ZINC00601250
REMARK                            x       y       z     vdW  Elec       q    Type
REMARK                         _______ _______ _______ _____ _____    ______ ____
ROOT
ATOM      1  C   LIG    1       -3.184  -1.948  -1.392  0.00  0.00    +0.098 C 
ENDROOT
BRANCH   1   2
ATOM      2  C   LIG    1       -3.593  -2.037  -2.840  0.00  0.00    -0.014 A 
ATOM      3  C   LIG    1       -2.663  -1.803  -3.836  0.00  0.00    +0.007 A 
ATOM      4  C   LIG    1       -3.037  -1.884  -5.163  0.00  0.00    +0.020 A 
ATOM      5  C   LIG    1       -4.342  -2.199  -5.497  0.00  0.00    +0.042 A 
ATOM      6 CL   LIG    1       -4.812  -2.299  -7.165  0.00  0.00    -0.083 Cl
ATOM      7  C   LIG    1       -5.273  -2.433  -4.501  0.00  0.00    +0.040 A 
ATOM      8  C   LIG    1       -4.897  -2.357  -3.172  0.00  0.00    +0.047 A 
ATOM      9 CL   LIG    1       -6.063  -2.656  -1.921  0.00  0.00    -0.083 Cl
ENDBRANCH   1   2
BRANCH   1  10
ATOM     10  S   LIG    1       -1.748  -0.851  -1.234  0.00  0.00    -0.146 S 
BRANCH  10  11
ATOM     11  C   LIG    1       -1.525  -0.676   0.557  0.00  0.00    +0.104 C 
BRANCH  11  18
ATOM     12  C   LIG    1       -0.407   1.530   0.943  0.00  0.00    +0.006 A 
ATOM     13  C   LIG    1        0.717   2.294   1.195  0.00  0.00    +0.020 A 
ATOM     14  C   LIG    1        1.951   1.684   1.335  0.00  0.00    +0.041 A 
ATOM     15 CL   LIG    1        3.363   2.643   1.650  0.00  0.00    -0.084 Cl
ATOM     16  C   LIG    1        2.059   0.309   1.222  0.00  0.00    +0.020 A 
ATOM     17  C   LIG    1        0.934  -0.454   0.971  0.00  0.00    +0.006 A 
ATOM     18  C   LIG    1       -0.298   0.157   0.831  0.00  0.00    -0.037 A 
ENDBRANCH  11  18
ENDBRANCH  10  11
ENDBRANCH   1  10
BRANCH   1  19
ATOM     19  C   LIG    1       -2.819  -3.343  -0.879  0.00  0.00    +0.141 C 
BRANCH  19  20
ATOM     20  N   LIG    1       -1.756  -3.907  -1.714  0.00  0.00    -0.335 N 
ATOM     21  C   LIG    1       -1.923  -4.727  -2.798  0.00  0.00    +0.107 A 
ATOM     22  C   LIG    1       -0.692  -5.007  -3.268  0.00  0.00    +0.130 A 
ATOM     23  N   LIG    1        0.202  -4.377  -2.492  0.00  0.00    -0.244 NA
ATOM     24  C   LIG    1       -0.428  -3.712  -1.562  0.00  0.00    +0.199 A 
ENDBRANCH  19  20
ENDBRANCH   1  19
TORSDOF 6
