REMARK  Name = ZINC00367097
REMARK                            x       y       z     vdW  Elec       q    Type
REMARK                         _______ _______ _______ _____ _____    ______ ____
ROOT
ATOM      1  C   LIG    1        0.707  -0.490  -1.238  0.00  0.00    -0.073 C 
ATOM      2  C   LIG    1        1.968  -0.776  -1.152  0.00  0.00    -0.024 C 
ATOM      3  C   LIG    1        2.803  -1.265  -2.297  0.00  0.00    +0.013 C 
ATOM      4  C   LIG    1        3.673  -0.127  -2.830  0.00  0.00    +0.026 C 
ATOM      5  C   LIG    1        2.813   0.927  -3.483  0.00  0.00    +0.059 C 
ATOM      6  C   LIG    1        1.516   0.665  -3.890  0.00  0.00    +0.026 C 
ATOM      7  C   LIG    1        0.858  -0.677  -3.707  0.00  0.00    -0.000 C 
ATOM      8  C   LIG    1        0.766   1.671  -4.491  0.00  0.00    +0.060 C 
ATOM      9  C   LIG    1        1.361   2.941  -4.663  0.00  0.00    +0.024 C 
ATOM     10  C   LIG    1        0.666   4.003  -5.258  0.00  0.00    +0.026 C 
ATOM     11  C   LIG    1        1.279   5.212  -5.403  0.00  0.00    +0.081 C 
ATOM     12 CL   LIG    1        0.419   6.528  -6.139  0.00  0.00    -0.122 Cl
ATOM     13  C   LIG    1        2.589   5.404  -4.968  0.00  0.00    +0.021 C 
ATOM     14  C   LIG    1        3.291   4.393  -4.387  0.00  0.00    +0.020 C 
ATOM     15  C   LIG    1        2.691   3.133  -4.220  0.00  0.00    +0.059 C 
ATOM     16  N   LIG    1        3.352   2.122  -3.653  0.00  0.00    -0.310 NA
ATOM     17  H   LIG    1        4.263   2.269  -3.355  0.00  0.00    +0.122 HD
ATOM     18  C   LIG    1        1.907  -1.756  -3.439  0.00  0.00    +0.012 C 
ATOM     19  C   LIG    1       -0.091  -0.622  -2.503  0.00  0.00    +0.034 C 
ENDROOT
BRANCH   8  20
ATOM     20  N   LIG    1       -0.533   1.433  -4.911  0.00  0.00    -0.327 NA
ATOM     21  H   LIG    1       -1.046   2.143  -5.329  0.00  0.00    +0.118 HD
ATOM     22  H   LIG    1       -0.930   0.557  -4.788  0.00  0.00    +0.118 HD
ENDBRANCH   8  20
BRANCH   1  24
ATOM     23  C   LIG    1       -0.019   1.526   0.010  0.00  0.00    +0.008 C 
ATOM     24  C   LIG    1        0.002  -0.004   0.002  0.00  0.00    +0.027 C 
ENDBRANCH   1  24
TORSDOF 2
