REMARK  Name = ZINC00538564
REMARK                            x       y       z     vdW  Elec       q    Type
REMARK                         _______ _______ _______ _____ _____    ______ ____
ROOT
ATOM      1  C   LIG    1        0.708  -0.488  -1.238  0.00  0.00    +0.250 C 
ATOM      2  N   LIG    1        0.026  -0.622  -2.393  0.00  0.00    -0.283 N 
ATOM      3  H   LIG    1       -0.933  -0.475  -2.410  0.00  0.00    +0.155 HD
ATOM      4  O   LIG    1        1.891  -0.752  -1.199  0.00  0.00    -0.272 OA
ENDROOT
BRANCH   2   5
ATOM      5  C   LIG    1        0.699  -0.971  -3.564  0.00  0.00    +0.034 A 
ATOM      6  C   LIG    1        1.776  -1.849  -3.510  0.00  0.00    +0.024 A 
ATOM      7  C   LIG    1        2.443  -2.196  -4.664  0.00  0.00    +0.021 A 
ATOM      8  C   LIG    1        2.036  -1.664  -5.891  0.00  0.00    +0.064 A 
ATOM      9  C   LIG    1        0.953  -0.782  -5.942  0.00  0.00    +0.074 A 
ATOM     10  C   LIG    1        0.288  -0.444  -4.784  0.00  0.00    +0.037 A 
BRANCH   9  11
ATOM     11  C   LIG    1        0.511  -0.206  -7.262  0.00  0.00    +0.419 C 
ATOM     12  F   LIG    1        0.141  -1.244  -8.123  0.00  0.00    -0.166 F 
ATOM     13  F   LIG    1        1.564   0.519  -7.831  0.00  0.00    -0.166 F 
ATOM     14  F   LIG    1       -0.582   0.643  -7.058  0.00  0.00    -0.166 F 
ENDBRANCH   9  11
BRANCH   8  15
ATOM     15  C   LIG    1        2.727  -2.022  -7.093  0.00  0.00    +0.100 C 
ATOM     16  N   LIG    1        3.275  -2.306  -8.046  0.00  0.00    -0.191 NA
ENDBRANCH   8  15
ENDBRANCH   2   5
BRANCH   1  18
ATOM     17  C   LIG    1       -0.032   1.519   0.016  0.00  0.00    +0.053 C 
ATOM     18  C   LIG    1        0.000  -0.010   0.004  0.00  0.00    +0.158 C 
BRANCH  18  19
ATOM     19  O   LIG    1       -1.337  -0.515   0.014  0.00  0.00    -0.378 OA
ATOM     20  H   LIG    1       -1.393  -1.481   0.007  0.00  0.00    +0.211 HD
ENDBRANCH  18  19
BRANCH  18  21
ATOM     21  C   LIG    1        0.746  -0.515   1.241  0.00  0.00    +0.215 C 
BRANCH  21  22
ATOM     22  S   LIG    1       -0.018   0.180   2.732  0.00  0.00    +0.000 S 
ATOM     23  O   LIG    1       -1.322  -0.357   2.911  0.00  0.00    -0.169 OA
ATOM     24  O   LIG    1        0.200   1.583   2.785  0.00  0.00    -0.169 OA
BRANCH  22  25
ATOM     25  C   LIG    1        0.924  -0.472   4.070  0.00  0.00    +0.088 A 
ATOM     26  C   LIG    1        0.559  -1.672   4.652  0.00  0.00    +0.030 A 
ATOM     27  C   LIG    1        1.298  -2.185   5.701  0.00  0.00    +0.040 A 
ATOM     28  C   LIG    1        2.404  -1.497   6.170  0.00  0.00    +0.124 A 
ATOM     29  F   LIG    1        3.127  -1.997   7.195  0.00  0.00    -0.205 F 
ATOM     30  C   LIG    1        2.769  -0.295   5.586  0.00  0.00    +0.040 A 
ATOM     31  C   LIG    1        2.032   0.213   4.534  0.00  0.00    +0.030 A 
ENDBRANCH  22  25
ENDBRANCH  21  22
ENDBRANCH  18  21
ENDBRANCH   1  18
TORSDOF 8
