REMARK  Name = ZINC00403015
REMARK                            x       y       z     vdW  Elec       q    Type
REMARK                         _______ _______ _______ _____ _____    ______ ____
ROOT
ATOM      1  C   LIG    1       -0.729   1.579   1.267  0.00  0.00    -0.065 C 
ENDROOT
BRANCH   1   2
ATOM      2  N   LIG    1       -0.761   3.052   1.253  0.00  0.00    +0.381 N 
ATOM      3  H   LIG    1       -1.232   3.372   0.398  0.00  0.00    -0.090 HD
ATOM      4  H   LIG    1        0.188   3.422   1.268  0.00  0.00    -0.090 HD
ATOM      5  H   LIG    1       -1.272   3.398   2.063  0.00  0.00    -0.090 HD
ENDBRANCH   1   2
BRANCH   1   6
ATOM      6  C   LIG    1        0.011   1.072   2.506  0.00  0.00    -0.013 C 
BRANCH   6   8
ATOM      7  C   LIG    1       -2.118   0.732   3.768  0.00  0.00    +0.007 C 
ATOM      8  C   LIG    1       -0.772   1.460   3.762  0.00  0.00    -0.019 C 
ATOM      9  C   LIG    1        0.027   1.063   5.005  0.00  0.00    +0.007 C 
ENDBRANCH   6   8
ENDBRANCH   1   6
BRANCH   1  10
ATOM     10  C   LIG    1       -0.013   1.086   0.008  0.00  0.00    +0.049 C 
BRANCH  10  11
ATOM     11  S   LIG    1       -0.890   1.687  -1.462  0.00  0.00    -0.180 S 
ATOM     12  H   LIG    1       -0.176   1.195  -2.490  0.00  0.00    +0.102 HD
ENDBRANCH  10  11
ENDBRANCH   1  10
TORSDOF 5
