REMARK  Name = ZINC00655343
REMARK                            x       y       z     vdW  Elec       q    Type
REMARK                         _______ _______ _______ _____ _____    ______ ____
ROOT
ATOM      1  C   LIG    1       -0.018   1.503   0.010  0.00  0.00    +0.145 C 
ATOM      2  C   LIG    1        0.002  -0.004   0.002  0.00  0.00    +0.288 C 
ATOM      3  N   LIG    1        0.005  -0.643  -1.131  0.00  0.00    -0.046 NA
ATOM      4  C   LIG    1        0.022  -2.012  -1.172  0.00  0.00    +0.183 A 
ATOM      5  C   LIG    1       -0.292  -2.689  -2.350  0.00  0.00    +0.057 A 
ATOM      6  C   LIG    1       -0.272  -4.068  -2.375  0.00  0.00    +0.019 A 
ATOM      7  C   LIG    1        0.057  -4.782  -1.236  0.00  0.00    +0.019 A 
ATOM      8 BR   LIG    1        0.079  -6.672  -1.282  0.00  0.00    -0.050 Br
ATOM      9  C   LIG    1        0.370  -4.117  -0.061  0.00  0.00    +0.027 A 
ATOM     10  C   LIG    1        0.354  -2.740  -0.027  0.00  0.00    +0.051 A 
ATOM     11  C   LIG    1        0.696  -1.995   1.240  0.00  0.00    +0.233 C 
ATOM     12  N   LIG    1        0.023  -0.690   1.188  0.00  0.00    -0.203 N 
ENDROOT
BRANCH  11  13
ATOM     13  C   LIG    1        2.187  -1.795   1.329  0.00  0.00    -0.000 A 
ATOM     14  C   LIG    1        2.791  -0.774   0.618  0.00  0.00    +0.008 A 
ATOM     15  C   LIG    1        4.158  -0.590   0.699  0.00  0.00    +0.000 A 
ATOM     16  C   LIG    1        4.922  -1.427   1.492  0.00  0.00    +0.000 A 
ATOM     17  C   LIG    1        4.319  -2.447   2.203  0.00  0.00    +0.000 A 
ATOM     18  C   LIG    1        2.950  -2.628   2.125  0.00  0.00    +0.008 A 
ENDBRANCH  11  13
BRANCH  12  19
ATOM     19  C   LIG    1       -0.618  -0.136   2.384  0.00  0.00    +0.347 C 
BRANCH  19  20
ATOM     20  C   LIG    1       -2.053  -0.591   2.441  0.00  0.00    +0.347 C 
ATOM     21  O   LIG    1       -2.496  -1.305   1.573  0.00  0.00    -0.247 OA
BRANCH  20  22
ATOM     22  O   LIG    1       -2.840  -0.203   3.457  0.00  0.00    -0.465 OA
ATOM     23  C   LIG    1       -4.190  -0.672   3.448  0.00  0.00    +0.280 C 
ENDBRANCH  20  22
ENDBRANCH  19  20
ENDBRANCH  12  19
TORSDOF 4
