REMARK  Name = ZINC00531038
REMARK                            x       y       z     vdW  Elec       q    Type
REMARK                         _______ _______ _______ _____ _____    ______ ____
ROOT
ATOM      1  C   LIG    1       -0.013   1.086   0.008  0.00  0.00    +0.155 C 
ATOM      2  N   LIG    1       -0.721   1.571  -1.179  0.00  0.00    -0.280 N 
ATOM      3  C   LIG    1       -0.041   1.816  -2.314  0.00  0.00    +0.333 A 
ATOM      4  O   LIG    1        1.160   1.629  -2.337  0.00  0.00    -0.246 OA
ATOM      5  N   LIG    1       -0.657   2.257  -3.425  0.00  0.00    -0.262 N 
ATOM      6  C   LIG    1        0.130   2.502  -4.636  0.00  0.00    +0.157 C 
ATOM      7  C   LIG    1       -1.987   2.482  -3.439  0.00  0.00    +0.282 A 
ATOM      8  O   LIG    1       -2.532   2.887  -4.451  0.00  0.00    -0.265 OA
ATOM      9  C   LIG    1       -2.739   2.245  -2.270  0.00  0.00    +0.149 A 
ATOM     10  N   LIG    1       -4.076   2.364  -1.940  0.00  0.00    -0.332 N 
ATOM     11  C   LIG    1       -4.195   1.980  -0.639  0.00  0.00    +0.141 A 
ATOM     12  N   LIG    1       -3.009   1.639  -0.175  0.00  0.00    -0.210 NA
ATOM     13  H   LIG    1       -4.791   2.664  -2.523  0.00  0.00    +0.168 HD
ATOM     14  C   LIG    1       -2.091   1.783  -1.129  0.00  0.00    +0.168 A 
ENDROOT
BRANCH  11  15
ATOM     15  C   LIG    1       -5.455   1.951   0.131  0.00  0.00    +0.021 A 
ATOM     16  C   LIG    1       -6.655   2.332  -0.474  0.00  0.00    +0.015 A 
ATOM     17  C   LIG    1       -7.830   2.303   0.246  0.00  0.00    +0.050 A 
ATOM     18  C   LIG    1       -7.824   1.897   1.573  0.00  0.00    +0.162 A 
ATOM     19  C   LIG    1       -6.631   1.516   2.183  0.00  0.00    +0.162 A 
ATOM     20  C   LIG    1       -5.450   1.536   1.465  0.00  0.00    +0.061 A 
BRANCH  18  21
ATOM     21  O   LIG    1       -8.985   1.871   2.279  0.00  0.00    -0.491 OA
ATOM     22  C   LIG    1      -10.171   2.275   1.591  0.00  0.00    +0.277 C 
ENDBRANCH  18  21
BRANCH  19  23
ATOM     23  O   LIG    1       -6.629   1.118   3.484  0.00  0.00    -0.491 OA
ATOM     24  C   LIG    1       -5.370   0.741   4.045  0.00  0.00    +0.277 C 
ENDBRANCH  19  23
ENDBRANCH  11  15
TORSDOF 3
