REMARK  Name = ZINC00554515
REMARK                            x       y       z     vdW  Elec       q    Type
REMARK                         _______ _______ _______ _____ _____    ______ ____
ROOT
ATOM      1  C   LIG    1       -1.321   5.468  -1.881  0.00  0.00    +0.044 C 
ATOM      2  C   LIG    1       -1.004   6.546  -0.877  0.00  0.00    -0.038 A 
ATOM      3  C   LIG    1       -1.742   7.711  -0.857  0.00  0.00    +0.036 A 
ATOM      4  C   LIG    1       -1.452   8.701   0.065  0.00  0.00    +0.122 A 
ATOM      5  C   LIG    1       -0.422   8.531   0.973  0.00  0.00    +0.033 A 
ATOM      6  C   LIG    1        0.320   7.368   0.968  0.00  0.00    +0.014 A 
ATOM      7  C   LIG    1        0.037   6.367   0.037  0.00  0.00    +0.020 A 
ENDROOT
BRANCH   7   8
ATOM      8  C   LIG    1        0.831   5.122   0.022  0.00  0.00    +0.136 A 
ATOM      9  C   LIG    1        2.194   5.047   0.008  0.00  0.00    +0.051 A 
ATOM     10  C   LIG    1        2.532   3.690   0.003  0.00  0.00    +0.057 A 
ATOM     11  C   LIG    1        1.347   2.986   0.005  0.00  0.00    +0.212 A 
ATOM     12  O   LIG    1        0.331   3.874   0.020  0.00  0.00    -0.448 OA
BRANCH  11  13
ATOM     13  C   LIG    1        1.214   1.528  -0.001  0.00  0.00    +0.372 C 
ATOM     14  O   LIG    1        2.208   0.827  -0.015  0.00  0.00    -0.242 OA
BRANCH  13  15
ATOM     15  O   LIG    1       -0.011   0.963   0.007  0.00  0.00    -0.475 OA
ATOM     16  H   LIG    1       -0.776   1.503   0.018  0.00  0.00    +0.296 HD
ENDBRANCH  13  15
ENDBRANCH  11  13
ENDBRANCH   7   8
BRANCH   4  17
ATOM     17  N   LIG    1       -2.248   9.949   0.080  0.00  0.00    +0.006 N 
ATOM     18  O   LIG    1       -3.156  10.102  -0.718  0.00  0.00    -0.130 OA
BRANCH  17  19
ATOM     19  O   LIG    1       -1.996  10.823   0.890  0.00  0.00    -0.396 OA
ATOM     20  H   LIG    1       -1.298  10.705   1.504  0.00  0.00    +0.329 HD
ENDBRANCH  17  19
ENDBRANCH   4  17
TORSDOF 5
