REMARK  Name = ZINC00608296
REMARK                            x       y       z     vdW  Elec       q    Type
REMARK                         _______ _______ _______ _____ _____    ______ ____
ROOT
ATOM      1  C   LIG    1       -1.745  -1.028  -1.429  0.00  0.00    +0.110 C 
ENDROOT
BRANCH   1   2
ATOM      2  N   LIG    1       -3.004  -1.778  -1.420  0.00  0.00    -0.190 NA
ATOM      3  H   LIG    1       -3.301  -2.217  -0.608  0.00  0.00    +0.148 HD
BRANCH   2   4
ATOM      4  S   LIG    1       -3.919  -1.876  -2.797  0.00  0.00    +0.058 S 
ATOM      5  O   LIG    1       -4.044  -0.551  -3.296  0.00  0.00    -0.153 OA
ATOM      6  O   LIG    1       -5.046  -2.680  -2.479  0.00  0.00    -0.153 OA
BRANCH   4   7
ATOM      7  C   LIG    1       -2.978  -2.774  -3.986  0.00  0.00    +0.105 A 
ATOM      8  C   LIG    1       -2.123  -2.103  -4.840  0.00  0.00    +0.030 A 
ATOM      9  C   LIG    1       -1.385  -2.807  -5.773  0.00  0.00    +0.022 A 
ATOM     10  C   LIG    1       -1.501  -4.184  -5.851  0.00  0.00    +0.041 A 
ATOM     11 CL   LIG    1       -0.574  -5.069  -7.022  0.00  0.00    -0.084 Cl
ATOM     12  C   LIG    1       -2.357  -4.854  -4.995  0.00  0.00    +0.022 A 
ATOM     13  C   LIG    1       -3.090  -4.150  -4.059  0.00  0.00    +0.030 A 
ENDBRANCH   4   7
ENDBRANCH   2   4
ENDBRANCH   1   2
BRANCH   1  14
ATOM     14  C   LIG    1       -1.293  -0.775   0.011  0.00  0.00    +0.052 C 
BRANCH  14  20
ATOM     15  C   LIG    1       -0.017   1.378   0.010  0.00  0.00    +0.004 A 
ATOM     16  C   LIG    1        1.171   2.086   0.002  0.00  0.00    +0.004 A 
ATOM     17  C   LIG    1        2.377   1.411  -0.013  0.00  0.00    -0.037 A 
ATOM     18  C   LIG    1        2.396   0.029  -0.020  0.00  0.00    +0.004 A 
ATOM     19  C   LIG    1        1.208  -0.679  -0.012  0.00  0.00    +0.004 A 
ATOM     20  C   LIG    1        0.002  -0.004   0.002  0.00  0.00    -0.046 A 
BRANCH  17  21
ATOM     21  C   LIG    1        3.672   2.182  -0.022  0.00  0.00    +0.155 C 
BRANCH  21  22
ATOM     22  C   LIG    1        4.118   2.432   1.395  0.00  0.00    +0.309 C 
ATOM     23  O   LIG    1        3.446   2.023   2.327  0.00  0.00    -0.251 OA
BRANCH  22  24
ATOM     24  O   LIG    1        5.150   3.045   1.611  0.00  0.00    -0.480 OA
ATOM     25  H   LIG    1        5.666   3.360   0.895  0.00  0.00    +0.295 HD
ENDBRANCH  22  24
ENDBRANCH  21  22
ENDBRANCH  17  21
ENDBRANCH  14  20
ENDBRANCH   1  14
TORSDOF 8
