REMARK  Name = ZINC00517556
REMARK                            x       y       z     vdW  Elec       q    Type
REMARK                         _______ _______ _______ _____ _____    ______ ____
ROOT
ATOM      1  C   LIG    1       -0.018   1.465   0.010  0.00  0.00    -0.095 C 
ATOM      2  N   LIG    1        0.002  -0.004   0.002  0.00  0.00    +0.382 N 
ATOM      3  H   LIG    1        0.477  -0.328  -0.827  0.00  0.00    -0.081 HD
ATOM      4  C   LIG    1       -1.376  -0.511   0.004  0.00  0.00    -0.078 C 
ATOM      5  C   LIG    1       -1.361  -2.038  -0.087  0.00  0.00    -0.019 C 
ATOM      6  C   LIG    1       -0.605  -2.608   1.117  0.00  0.00    -0.003 C 
ATOM      7  C   LIG    1        0.807  -2.015   1.147  0.00  0.00    -0.011 C 
ATOM      8  C   LIG    1        0.712  -0.489   1.192  0.00  0.00    -0.037 C 
ENDROOT
BRANCH   8   9
ATOM      9  C   LIG    1        2.099   0.099   1.222  0.00  0.00    -0.043 A 
ATOM     10  C   LIG    1        2.657   0.521   2.420  0.00  0.00    +0.005 A 
ATOM     11  C   LIG    1        3.936   1.055   2.400  0.00  0.00    +0.020 A 
ATOM     12  C   LIG    1        4.608   1.149   1.195  0.00  0.00    +0.111 A 
ATOM     13  N   LIG    1        4.046   0.738   0.076  0.00  0.00    -0.263 NA
ATOM     14  C   LIG    1        2.834   0.219   0.058  0.00  0.00    +0.112 A 
ENDBRANCH   8   9
TORSDOF 1
