REMARK  Name = ZINC00469642
REMARK                            x       y       z     vdW  Elec       q    Type
REMARK                         _______ _______ _______ _____ _____    ______ ____
ROOT
ATOM      1  C   LIG    1       -4.965  -2.606   0.035  0.00  0.00    +0.262 A 
ATOM      2  N   LIG    1       -6.141  -2.019   0.039  0.00  0.00    -0.187 NA
ATOM      3  C   LIG    1       -7.113  -2.944   0.047  0.00  0.00    +0.202 A 
ATOM      4  N   LIG    1       -6.565  -4.135   0.047  0.00  0.00    -0.056 NA
ATOM      5  O   LIG    1       -5.160  -3.937   0.034  0.00  0.00    -0.332 OA
ENDROOT
BRANCH   1   9
ATOM      6  C   LIG    1       -1.199  -0.637   0.010  0.00  0.00    +0.124 A 
ATOM      7  C   LIG    1       -2.374   0.107   0.019  0.00  0.00    +0.046 A 
ATOM      8  C   LIG    1       -3.596  -0.527   0.027  0.00  0.00    +0.020 A 
ATOM      9  C   LIG    1       -3.658  -1.923   0.026  0.00  0.00    +0.081 A 
ATOM     10  C   LIG    1       -2.473  -2.671   0.016  0.00  0.00    +0.136 A 
ATOM     11  C   LIG    1       -1.250  -2.023   0.003  0.00  0.00    +0.092 A 
BRANCH   6  13
ATOM     12  C   LIG    1       -0.017   1.425   0.010  0.00  0.00    +0.277 C 
ATOM     13  O   LIG    1        0.002  -0.004   0.002  0.00  0.00    -0.495 OA
ENDBRANCH   6  13
BRANCH  10  14
ATOM     14  O   LIG    1       -2.524  -4.028   0.015  0.00  0.00    -0.494 OA
ATOM     15  C   LIG    1       -1.276  -4.724   0.005  0.00  0.00    +0.277 C 
ENDBRANCH  10  14
ENDBRANCH   1   9
BRANCH   3  16
ATOM     16  C   LIG    1       -8.571  -2.664   0.053  0.00  0.00    +0.022 A 
ATOM     17  C   LIG    1       -9.031  -1.349   0.046  0.00  0.00    +0.012 A 
ATOM     18  C   LIG    1      -10.387  -1.095   0.053  0.00  0.00    +0.001 A 
ATOM     19  C   LIG    1      -11.290  -2.143   0.066  0.00  0.00    +0.000 A 
ATOM     20  C   LIG    1      -10.839  -3.451   0.074  0.00  0.00    +0.001 A 
ATOM     21  C   LIG    1       -9.485  -3.716   0.061  0.00  0.00    +0.012 A 
ENDBRANCH   3  16
TORSDOF 4
