REMARK  Name = ZINC00597028
REMARK                            x       y       z     vdW  Elec       q    Type
REMARK                         _______ _______ _______ _____ _____    ______ ____
ROOT
ATOM      1  C   LIG    1        2.385   1.425  -0.014  0.00  0.00    +0.162 A 
ATOM      2  C   LIG    1        2.406   0.037  -0.021  0.00  0.00    +0.054 A 
ATOM      3  C   LIG    1        1.226  -0.675  -0.013  0.00  0.00    -0.028 A 
ATOM      4  C   LIG    1        0.002  -0.004   0.002  0.00  0.00    +0.029 A 
ATOM      5  C   LIG    1       -1.106  -0.979   0.008  0.00  0.00    +0.190 C 
ATOM      6  C   LIG    1       -0.536  -2.335  -0.004  0.00  0.00    +0.001 C 
ATOM      7  C   LIG    1       -1.208  -3.484  -0.004  0.00  0.00    -0.016 C 
ATOM      8  O   LIG    1       -2.292  -0.707   0.021  0.00  0.00    -0.287 OA
ATOM      9  C   LIG    1       -0.017   1.398   0.010  0.00  0.00    +0.061 A 
ATOM     10  C   LIG    1        0.965  -2.162  -0.018  0.00  0.00    +0.074 C 
ATOM     11  C   LIG    1        1.168   2.104   0.002  0.00  0.00    +0.162 A 
ENDROOT
BRANCH   7  12
ATOM     12  C   LIG    1       -0.462  -4.794  -0.019  0.00  0.00    +0.009 C 
ATOM     13  C   LIG    1       -0.850  -5.590  -1.267  0.00  0.00    -0.011 C 
ATOM     14  C   LIG    1       -0.138  -6.944  -1.245  0.00  0.00    -0.078 C 
ATOM     15  N   LIG    1       -0.549  -7.684  -0.033  0.00  0.00    +0.382 N 
ATOM     16  H   LIG    1       -1.572  -7.764  -0.023  0.00  0.00    -0.081 HD
ATOM     17  C   LIG    1       -0.113  -6.957   1.178  0.00  0.00    -0.078 C 
ATOM     18  C   LIG    1       -0.826  -5.604   1.229  0.00  0.00    -0.011 C 
BRANCH  15  19
ATOM     19  C   LIG    1        0.038  -9.040  -0.046  0.00  0.00    -0.043 C 
BRANCH  19  20
ATOM     20  C   LIG    1       -0.189  -9.663  -1.399  0.00  0.00    -0.064 A 
ATOM     21  C   LIG    1       -1.341 -10.388  -1.641  0.00  0.00    +0.002 A 
ATOM     22  C   LIG    1       -1.552 -10.956  -2.884  0.00  0.00    +0.000 A 
ATOM     23  C   LIG    1       -0.606 -10.807  -3.881  0.00  0.00    +0.000 A 
ATOM     24  C   LIG    1        0.548 -10.087  -3.637  0.00  0.00    +0.000 A 
ATOM     25  C   LIG    1        0.757  -9.515  -2.396  0.00  0.00    +0.002 A 
ENDBRANCH  19  20
ENDBRANCH  15  19
ENDBRANCH   7  12
BRANCH   1  27
ATOM     26  C   LIG    1        4.761   1.361  -0.036  0.00  0.00    +0.277 C 
ATOM     27  O   LIG    1        3.551   2.121  -0.021  0.00  0.00    -0.491 OA
ENDBRANCH   1  27
BRANCH  11  28
ATOM     28  O   LIG    1        1.148   3.464   0.010  0.00  0.00    -0.491 OA
ATOM     29  C   LIG    1       -0.134   4.095   0.025  0.00  0.00    +0.277 C 
ENDBRANCH  11  28
TORSDOF 5
