REMARK  Name = ZINC00642828
REMARK                            x       y       z     vdW  Elec       q    Type
REMARK                         _______ _______ _______ _____ _____    ______ ____
ROOT
ATOM      1  C   LIG    1        2.696  -1.860  -4.732  0.00  0.00    +0.244 C 
ATOM      2  N   LIG    1        3.981  -1.521  -4.953  0.00  0.00    -0.311 N 
ATOM      3  H   LIG    1        4.452  -0.963  -4.314  0.00  0.00    +0.149 HD
ATOM      4  O   LIG    1        2.106  -2.559  -5.533  0.00  0.00    -0.270 OA
ENDROOT
BRANCH   1   8
ATOM      5  C   LIG    1        0.707  -0.490  -1.238  0.00  0.00    -0.042 A 
ATOM      6  C   LIG    1        0.033  -1.285  -2.147  0.00  0.00    +0.005 A 
ATOM      7  C   LIG    1        0.672  -1.733  -3.284  0.00  0.00    +0.013 A 
ATOM      8  C   LIG    1        2.004  -1.383  -3.516  0.00  0.00    +0.037 A 
ATOM      9  C   LIG    1        2.679  -0.581  -2.595  0.00  0.00    +0.013 A 
ATOM     10  C   LIG    1        2.025  -0.135  -1.464  0.00  0.00    +0.005 A 
BRANCH   5  12
ATOM     11  C   LIG    1       -0.019   1.526   0.010  0.00  0.00    +0.015 C 
ATOM     12  C   LIG    1        0.002  -0.004   0.002  0.00  0.00    -0.013 C 
ATOM     13  C   LIG    1       -1.433  -0.534   0.013  0.00  0.00    +0.015 C 
ATOM     14  C   LIG    1        0.742  -0.511   1.242  0.00  0.00    +0.015 C 
ENDBRANCH   5  12
ENDBRANCH   1   8
BRANCH   2  15
ATOM     15  C   LIG    1        4.667  -1.994  -6.158  0.00  0.00    +0.109 C 
BRANCH  15  16
ATOM     16  C   LIG    1        6.104  -1.469  -6.166  0.00  0.00    +0.054 C 
BRANCH  16  17
ATOM     17  C   LIG    1        6.810  -1.956  -7.406  0.00  0.00    -0.046 A 
ATOM     18  C   LIG    1        7.489  -3.160  -7.387  0.00  0.00    +0.005 A 
ATOM     19  C   LIG    1        8.136  -3.606  -8.524  0.00  0.00    +0.029 A 
ATOM     20  C   LIG    1        8.104  -2.848  -9.680  0.00  0.00    +0.105 A 
ATOM     21  C   LIG    1        7.425  -1.645  -9.699  0.00  0.00    +0.029 A 
ATOM     22  C   LIG    1        6.774  -1.200  -8.563  0.00  0.00    +0.005 A 
BRANCH  20  23
ATOM     23  S   LIG    1        8.930  -3.417 -11.129  0.00  0.00    +0.056 S 
ATOM     24  O   LIG    1        9.948  -4.306 -10.693  0.00  0.00    -0.153 OA
ATOM     25  O   LIG    1        9.208  -2.266 -11.915  0.00  0.00    -0.153 OA
BRANCH  23  26
ATOM     26  N   LIG    1        7.843  -4.325 -11.987  0.00  0.00    -0.204 NA
ATOM     27  H   LIG    1        8.108  -4.732 -12.827  0.00  0.00    +0.144 HD
ATOM     28  H   LIG    1        6.942  -4.450 -11.650  0.00  0.00    +0.144 HD
ENDBRANCH  23  26
ENDBRANCH  20  23
ENDBRANCH  16  17
ENDBRANCH  15  16
ENDBRANCH   2  15
TORSDOF 7
