REMARK  Name = ZINC00538323
REMARK                            x       y       z     vdW  Elec       q    Type
REMARK                         _______ _______ _______ _____ _____    ______ ____
ROOT
ATOM      1  C   LIG    1        1.324   2.046   0.000  0.00  0.00    +0.188 C 
ATOM      2  C   LIG    1        2.248   1.325  -0.949  0.00  0.00    +0.008 A 
ATOM      3  C   LIG    1        3.463   1.932  -1.294  0.00  0.00    +0.035 A 
ATOM      4  C   LIG    1        4.344   1.290  -2.137  0.00  0.00    +0.071 A 
ATOM      5  N   LIG    1        4.031   0.059  -2.638  0.00  0.00    -0.302 N 
ATOM      6  C   LIG    1        5.132  -0.393  -3.498  0.00  0.00    +0.162 C 
ATOM      7  C   LIG    1        6.170   0.700  -3.476  0.00  0.00    +0.000 A 
ATOM      8  C   LIG    1        7.382   0.834  -4.076  0.00  0.00    +0.017 A 
ATOM      9  C   LIG    1        8.116   2.013  -3.837  0.00  0.00    +0.003 A 
ATOM     10  C   LIG    1        9.375   2.220  -4.422  0.00  0.00    +0.042 A 
ATOM     11  C   LIG    1       10.055   3.372  -4.165  0.00  0.00    +0.122 A 
ATOM     12  C   LIG    1        9.518   4.349  -3.329  0.00  0.00    +0.034 A 
ATOM     13  C   LIG    1        8.300   4.182  -2.746  0.00  0.00    +0.030 A 
ATOM     14  C   LIG    1        7.566   3.006  -2.986  0.00  0.00    +0.072 A 
ATOM     15  N   LIG    1        6.370   2.819  -2.425  0.00  0.00    -0.245 NA
ATOM     16  C   LIG    1        2.865  -0.534  -2.316  0.00  0.00    +0.259 A 
ATOM     17  O   LIG    1        2.604  -1.637  -2.768  0.00  0.00    -0.267 OA
ATOM     18  C   LIG    1        5.671   1.716  -2.642  0.00  0.00    +0.093 A 
ATOM     19  C   LIG    1        1.941   0.105  -1.462  0.00  0.00    +0.061 A 
ATOM     20  C   LIG    1        0.645  -0.597  -1.157  0.00  0.00    +0.273 C 
ATOM     21  O   LIG    1        0.002  -0.004   0.002  0.00  0.00    -0.457 OA
ATOM     22  C   LIG    1       -0.016   1.348   0.009  0.00  0.00    +0.344 C 
ATOM     23  O   LIG    1       -1.053   1.968   0.018  0.00  0.00    -0.247 OA
ENDROOT
BRANCH   1  25
ATOM     24  C   LIG    1        0.923   2.637   2.395  0.00  0.00    +0.007 C 
ATOM     25  C   LIG    1        1.921   2.026   1.409  0.00  0.00    +0.048 C 
ENDBRANCH   1  25
BRANCH   1  26
ATOM     26  O   LIG    1        1.157   3.398  -0.430  0.00  0.00    -0.373 OA
ATOM     27  H   LIG    1        0.568   3.920   0.133  0.00  0.00    +0.211 HD
ENDBRANCH   1  26
BRANCH  11  28
ATOM     28  N   LIG    1       11.383   3.589  -4.783  0.00  0.00    +0.006 N 
ATOM     29  O   LIG    1       11.860   2.740  -5.515  0.00  0.00    -0.130 OA
BRANCH  28  30
ATOM     30  O   LIG    1       11.998   4.616  -4.559  0.00  0.00    -0.396 OA
ATOM     31  H   LIG    1       11.631   5.269  -3.996  0.00  0.00    +0.329 HD
ENDBRANCH  28  30
ENDBRANCH  11  28
TORSDOF 4
