REMARK  Name = ZINC00457067
REMARK                            x       y       z     vdW  Elec       q    Type
REMARK                         _______ _______ _______ _____ _____    ______ ____
ROOT
ATOM      1  C   LIG    1        0.831   5.121   0.022  0.00  0.00    +0.137 A 
ATOM      2  C   LIG    1        2.195   5.047   0.009  0.00  0.00    +0.051 A 
ATOM      3  C   LIG    1        2.532   3.690   0.003  0.00  0.00    +0.057 A 
ATOM      4  C   LIG    1        1.347   2.985   0.005  0.00  0.00    +0.212 A 
ATOM      5  O   LIG    1        0.331   3.874   0.020  0.00  0.00    -0.448 OA
ENDROOT
BRANCH   1  11
ATOM      6  C   LIG    1       -2.866   7.909  -1.841  0.00  0.00    +0.045 C 
ATOM      7  C   LIG    1       -1.742   7.713  -0.857  0.00  0.00    -0.031 A 
ATOM      8  C   LIG    1       -1.452   8.702   0.066  0.00  0.00    +0.005 A 
ATOM      9  C   LIG    1       -0.422   8.530   0.973  0.00  0.00    +0.001 A 
ATOM     10  C   LIG    1        0.320   7.368   0.969  0.00  0.00    +0.013 A 
ATOM     11  C   LIG    1        0.037   6.366   0.037  0.00  0.00    +0.036 A 
ATOM     12  C   LIG    1       -1.005   6.546  -0.877  0.00  0.00    +0.055 A 
ATOM     13 CL   LIG    1       -1.369   5.306  -2.036  0.00  0.00    -0.083 Cl
ENDBRANCH   1  11
BRANCH   4  14
ATOM     14  C   LIG    1        1.214   1.528  -0.001  0.00  0.00    +0.372 C 
ATOM     15  O   LIG    1        2.208   0.827  -0.015  0.00  0.00    -0.242 OA
BRANCH  14  16
ATOM     16  O   LIG    1       -0.011   0.963   0.007  0.00  0.00    -0.475 OA
ATOM     17  H   LIG    1       -0.776   1.503   0.018  0.00  0.00    +0.296 HD
ENDBRANCH  14  16
ENDBRANCH   4  14
TORSDOF 3
