REMARK  Name = ZINC00388759
REMARK                            x       y       z     vdW  Elec       q    Type
REMARK                         _______ _______ _______ _____ _____    ______ ____
ROOT
ATOM      1  C   LIG    1        0.002  -0.004   0.002  0.00  0.00    +0.022 A 
ATOM      2  C   LIG    1       -0.017   1.373   0.010  0.00  0.00    +0.046 A 
ATOM      3  C   LIG    1        1.176   2.086   0.002  0.00  0.00    +0.117 A 
ATOM      4  C   LIG    1        2.392   1.414  -0.013  0.00  0.00    +0.046 A 
ATOM      5  C   LIG    1        2.420   0.037  -0.021  0.00  0.00    +0.022 A 
ATOM      6  C   LIG    1        1.223  -0.684  -0.013  0.00  0.00    +0.052 A 
ENDROOT
BRANCH   3   7
ATOM      7  O   LIG    1        1.153   3.444   0.009  0.00  0.00    -0.507 OA
ATOM      8  H   LIG    1        1.155   3.832   0.895  0.00  0.00    +0.292 HD
ENDBRANCH   3   7
BRANCH   6   9
ATOM      9  C   LIG    1        1.247  -2.116  -0.021  0.00  0.00    +0.099 C 
ATOM     10  N   LIG    1        1.266  -3.252  -0.027  0.00  0.00    -0.191 NA
ENDBRANCH   6   9
TORSDOF 2
