REMARK  Name = ZINC00492540
REMARK                            x       y       z     vdW  Elec       q    Type
REMARK                         _______ _______ _______ _____ _____    ______ ____
ROOT
ATOM      1  C   LIG    1        1.713  -3.878  -0.855  0.00  0.00    +0.028 C 
ATOM      2  C   LIG    1        2.692  -2.803  -0.379  0.00  0.00    +0.081 C 
ATOM      3  C   LIG    1        2.035  -1.420  -0.481  0.00  0.00    +0.049 C 
ATOM      4  C   LIG    1        3.053  -0.358  -0.069  0.00  0.00    +0.107 C 
ATOM      5  C   LIG    1        3.666  -0.704   1.263  0.00  0.00    -0.006 A 
ATOM      6  C   LIG    1        4.267   0.300   2.005  0.00  0.00    +0.007 A 
ATOM      7  C   LIG    1        4.841   0.013   3.228  0.00  0.00    +0.000 A 
ATOM      8  C   LIG    1        4.820  -1.279   3.720  0.00  0.00    +0.002 A 
ATOM      9  C   LIG    1        4.222  -2.285   2.987  0.00  0.00    +0.024 A 
ATOM     10  C   LIG    1        3.642  -1.998   1.756  0.00  0.00    +0.042 A 
ATOM     11  N   LIG    1        3.037  -3.033   1.030  0.00  0.00    -0.264 N 
ATOM     12  C   LIG    1        2.776  -4.218   1.615  0.00  0.00    +0.251 C 
ATOM     13  O   LIG    1        2.534  -5.194   0.931  0.00  0.00    -0.270 OA
ENDROOT
BRANCH  12  14
ATOM     14  C   LIG    1        2.783  -4.333   3.089  0.00  0.00    +0.037 A 
ATOM     15  C   LIG    1        2.392  -3.250   3.878  0.00  0.00    +0.013 A 
ATOM     16  C   LIG    1        2.395  -3.366   5.253  0.00  0.00    +0.001 A 
ATOM     17  C   LIG    1        2.796  -4.548   5.850  0.00  0.00    +0.000 A 
ATOM     18  C   LIG    1        3.191  -5.623   5.073  0.00  0.00    +0.001 A 
ATOM     19  C   LIG    1        3.187  -5.523   3.697  0.00  0.00    +0.013 A 
ENDBRANCH  12  14
BRANCH   4  20
ATOM     20  N   LIG    1        2.384   0.941   0.031  0.00  0.00    -0.309 N 
ATOM     21  C   LIG    1        3.092   2.078  -0.121  0.00  0.00    +0.210 C 
ATOM     22  C   LIG    1        2.401   3.414  -0.025  0.00  0.00    +0.109 C 
ATOM     23  O   LIG    1        4.283   2.026  -0.340  0.00  0.00    -0.276 OA
ATOM     24  H   LIG    1        1.430   0.984   0.205  0.00  0.00    +0.149 HD
ENDBRANCH   4  20
TORSDOF 2
