REMARK  Name = ZINC00680551
REMARK                            x       y       z     vdW  Elec       q    Type
REMARK                         _______ _______ _______ _____ _____    ______ ____
ROOT
ATOM      1  C   LIG    1       -1.239   3.138  -0.196  0.00  0.00    +0.002 A 
ATOM      2  C   LIG    1       -1.213   1.751  -0.173  0.00  0.00    +0.002 A 
ATOM      3  C   LIG    1       -0.011   1.075  -0.124  0.00  0.00    +0.028 A 
ATOM      4  C   LIG    1        1.178   1.788  -0.106  0.00  0.00    +0.075 A 
ATOM      5  C   LIG    1        1.153   3.193  -0.134  0.00  0.00    +0.090 A 
ATOM      6  N   LIG    1        2.438   3.620  -0.108  0.00  0.00    -0.226 NA
ATOM      7  C   LIG    1        3.252   2.582  -0.068  0.00  0.00    +0.158 A 
ATOM      8  C   LIG    1        4.717   2.504  -0.028  0.00  0.00    +0.103 A 
ATOM      9  C   LIG    1        5.327   1.243   0.013  0.00  0.00    +0.024 A 
ATOM     10  C   LIG    1        4.511   0.084   0.013  0.00  0.00    +0.099 A 
ATOM     11  C   LIG    1        3.125   0.202  -0.025  0.00  0.00    +0.121 A 
ATOM     12  N   LIG    1        2.515   1.422  -0.065  0.00  0.00    -0.278 N 
ATOM     13  C   LIG    1       -0.078   3.857  -0.179  0.00  0.00    +0.030 A 
ENDROOT
BRANCH   9  14
ATOM     14  C   LIG    1        6.798   1.123   0.053  0.00  0.00    -0.015 A 
ATOM     15  C   LIG    1        7.510   1.601   1.156  0.00  0.00    +0.012 A 
ATOM     16  C   LIG    1        8.882   1.483   1.192  0.00  0.00    +0.046 A 
ATOM     17  C   LIG    1        9.559   0.899   0.128  0.00  0.00    +0.121 A 
ATOM     18  C   LIG    1        8.856   0.427  -0.973  0.00  0.00    +0.046 A 
ATOM     19  C   LIG    1        7.483   0.536  -1.015  0.00  0.00    +0.012 A 
BRANCH  17  20
ATOM     20  O   LIG    1       10.912   0.790   0.165  0.00  0.00    -0.483 OA
BRANCH  20  21
ATOM     21  C   LIG    1       11.573   1.295   1.326  0.00  0.00    +0.324 C 
BRANCH  21  22
ATOM     22  C   LIG    1       13.059   1.089   1.189  0.00  0.00    +0.248 C 
ATOM     23  N   LIG    1       13.889   1.491   2.172  0.00  0.00    -0.327 N 
ATOM     24  H   LIG    1       14.846   1.358   2.084  0.00  0.00    +0.145 HD
ATOM     25  H   LIG    1       13.530   1.914   2.968  0.00  0.00    +0.145 HD
ATOM     26  O   LIG    1       13.509   0.560   0.194  0.00  0.00    -0.272 OA
ENDBRANCH  21  22
ENDBRANCH  20  21
ENDBRANCH  17  20
ENDBRANCH   9  14
BRANCH  11  27
ATOM     27  N   LIG    1        2.357  -0.930  -0.023  0.00  0.00    -0.343 N 
ATOM     28  H   LIG    1        2.777  -1.801  -0.104  0.00  0.00    +0.144 HD
ATOM     29  H   LIG    1        1.393  -0.862   0.059  0.00  0.00    +0.144 HD
ENDBRANCH  11  27
BRANCH   8  30
ATOM     30  C   LIG    1        5.510   3.697  -0.030  0.00  0.00    +0.103 C 
ATOM     31  N   LIG    1        6.139   4.643  -0.032  0.00  0.00    -0.191 NA
ENDBRANCH   8  30
BRANCH  10  32
ATOM     32  C   LIG    1        5.115  -1.214   0.054  0.00  0.00    +0.103 C 
ATOM     33  N   LIG    1        5.595  -2.243   0.086  0.00  0.00    -0.191 NA
ENDBRANCH  10  32
TORSDOF 7
