REMARK  Name = ZINC00427807
REMARK                            x       y       z     vdW  Elec       q    Type
REMARK                         _______ _______ _______ _____ _____    ______ ____
ROOT
ATOM      1  C   LIG    1       -0.017   1.362   0.009  0.00  0.00    +0.001 A 
ATOM      2  C   LIG    1        1.170   2.083   0.002  0.00  0.00    +0.002 A 
ATOM      3  C   LIG    1        2.386   1.436  -0.013  0.00  0.00    +0.026 A 
ATOM      4  C   LIG    1        2.428   0.046  -0.021  0.00  0.00    +0.049 A 
ATOM      5  C   LIG    1        1.223  -0.681  -0.013  0.00  0.00    -0.000 A 
ATOM      6  C   LIG    1        1.604  -2.095  -0.025  0.00  0.00    +0.027 A 
ATOM      7  C   LIG    1        2.945  -2.141  -0.038  0.00  0.00    +0.087 A 
ATOM      8  N   LIG    1        3.455  -0.871  -0.036  0.00  0.00    -0.345 N 
ATOM      9  C   LIG    1        0.002  -0.004   0.002  0.00  0.00    +0.010 A 
ENDROOT
BRANCH   8  10
ATOM     10  C   LIG    1        4.881  -0.537  -0.048  0.00  0.00    +0.140 C 
BRANCH  10  11
ATOM     11  C   LIG    1        5.363  -0.307   1.386  0.00  0.00    +0.125 C 
BRANCH  11  12
ATOM     12  N   LIG    1        6.790   0.028   1.374  0.00  0.00    -0.313 N 
ATOM     13  H   LIG    1        7.270   0.071   0.532  0.00  0.00    +0.149 HD
ATOM     14  C   LIG    1        7.434   0.274   2.532  0.00  0.00    +0.216 C 
ATOM     15  O   LIG    1        6.832   0.219   3.583  0.00  0.00    -0.276 OA
BRANCH  14  16
ATOM     16  C   LIG    1        8.901   0.617   2.519  0.00  0.00    +0.075 C 
ATOM     17  C   LIG    1        9.872  -0.409   3.107  0.00  0.00    +0.013 C 
ATOM     18  C   LIG    1        9.575   0.886   3.866  0.00  0.00    +0.013 C 
ENDBRANCH  14  16
ENDBRANCH  11  12
ENDBRANCH  10  11
ENDBRANCH   8  10
TORSDOF 4
