REMARK  Name = ZINC00453687
REMARK                            x       y       z     vdW  Elec       q    Type
REMARK                         _______ _______ _______ _____ _____    ______ ____
ROOT
ATOM      1  C   LIG    1       -2.152   3.163   5.773  0.00  0.00    +0.125 A 
ATOM      2  C   LIG    1       -0.774   2.969   5.855  0.00  0.00    +0.046 A 
ATOM      3  C   LIG    1       -0.073   2.530   4.770  0.00  0.00    +0.015 A 
ATOM      4  C   LIG    1       -0.741   2.274   3.567  0.00  0.00    +0.021 A 
ATOM      5  C   LIG    1       -0.013   1.802   2.386  0.00  0.00    -0.030 A 
ATOM      6  C   LIG    1        1.476   1.579   2.433  0.00  0.00    +0.045 C 
ATOM      7  C   LIG    1       -0.718   1.572   1.248  0.00  0.00    +0.037 A 
ATOM      8  C   LIG    1       -0.013   1.086   0.008  0.00  0.00    +0.051 C 
ATOM      9  C   LIG    1       -2.110   1.794   1.228  0.00  0.00    +0.340 A 
ATOM     10  O   LIG    1       -2.772   2.221   2.315  0.00  0.00    -0.422 OA
ATOM     11  O   LIG    1       -2.729   1.589   0.199  0.00  0.00    -0.245 OA
ATOM     12  C   LIG    1       -2.131   2.469   3.478  0.00  0.00    +0.143 A 
ATOM     13  C   LIG    1       -2.829   2.915   4.590  0.00  0.00    +0.092 A 
ENDROOT
BRANCH   1  14
ATOM     14  O   LIG    1       -2.836   3.600   6.861  0.00  0.00    -0.487 OA
BRANCH  14  15
ATOM     15  C   LIG    1       -2.080   3.838   8.050  0.00  0.00    +0.264 C 
BRANCH  15  20
ATOM     16  C   LIG    1       -5.610   5.665  12.245  0.00  0.00    +0.044 C 
ATOM     17  C   LIG    1       -4.689   5.188  11.151  0.00  0.00    -0.050 A 
ATOM     18  C   LIG    1       -4.449   3.837  10.990  0.00  0.00    +0.004 A 
ATOM     19  C   LIG    1       -3.604   3.400   9.987  0.00  0.00    +0.007 A 
ATOM     20  C   LIG    1       -3.001   4.314   9.144  0.00  0.00    -0.010 A 
ATOM     21  C   LIG    1       -3.238   5.666   9.308  0.00  0.00    +0.007 A 
ATOM     22  C   LIG    1       -4.086   6.103  10.308  0.00  0.00    +0.004 A 
ENDBRANCH  15  20
ENDBRANCH  14  15
ENDBRANCH   1  14
TORSDOF 3
