REMARK  Name = ZINC00515041
REMARK                            x       y       z     vdW  Elec       q    Type
REMARK                         _______ _______ _______ _____ _____    ______ ____
ROOT
ATOM      1  C   LIG    1        2.495  -2.494  -4.366  0.00  0.00    +0.202 A 
ATOM      2  N   LIG    1        2.602  -3.819  -4.553  0.00  0.00    -0.187 NA
ATOM      3  C   LIG    1        3.240  -4.063  -5.674  0.00  0.00    +0.262 A 
ATOM      4  O   LIG    1        3.561  -2.886  -6.240  0.00  0.00    -0.332 OA
ATOM      5  N   LIG    1        3.062  -1.877  -5.374  0.00  0.00    -0.056 NA
ENDROOT
BRANCH   3   6
ATOM      6  C   LIG    1        3.552  -5.399  -6.220  0.00  0.00    +0.075 A 
ATOM      7  C   LIG    1        3.155  -6.548  -5.533  0.00  0.00    +0.016 A 
ATOM      8  C   LIG    1        3.448  -7.793  -6.049  0.00  0.00    +0.001 A 
ATOM      9  C   LIG    1        4.136  -7.907  -7.245  0.00  0.00    +0.003 A 
ATOM     10  C   LIG    1        4.533  -6.776  -7.932  0.00  0.00    +0.039 A 
ATOM     11  C   LIG    1        4.241  -5.521  -7.431  0.00  0.00    +0.136 A 
ATOM     12  F   LIG    1        4.624  -4.415  -8.106  0.00  0.00    -0.205 F 
ENDBRANCH   3   6
BRANCH   1  16
ATOM     13  C   LIG    1        0.606  -0.607  -1.055  0.00  0.00    +0.120 A 
ATOM     14  C   LIG    1        1.172   0.164  -2.062  0.00  0.00    +0.046 A 
ATOM     15  C   LIG    1        1.786  -0.445  -3.136  0.00  0.00    +0.015 A 
ATOM     16  C   LIG    1        1.836  -1.836  -3.211  0.00  0.00    +0.023 A 
ATOM     17  C   LIG    1        1.266  -2.607  -2.200  0.00  0.00    +0.015 A 
ATOM     18  C   LIG    1        0.659  -1.993  -1.125  0.00  0.00    +0.046 A 
BRANCH  13  20
ATOM     19  C   LIG    1       -0.017   1.425   0.010  0.00  0.00    +0.277 C 
ATOM     20  O   LIG    1        0.002  -0.004   0.002  0.00  0.00    -0.495 OA
ENDBRANCH  13  20
ENDBRANCH   1  16
TORSDOF 3
