REMARK  Name = ZINC00607214
REMARK                            x       y       z     vdW  Elec       q    Type
REMARK                         _______ _______ _______ _____ _____    ______ ____
ROOT
ATOM      1  C   LIG    1       -3.964  -0.396  -0.596  0.00  0.00    +0.064 A 
ATOM      2  C   LIG    1       -4.550   0.580   0.210  0.00  0.00    +0.053 A 
ATOM      3  C   LIG    1       -3.548   1.344   0.740  0.00  0.00    +0.075 A 
ATOM      4  N   LIG    1       -2.367   0.853   0.261  0.00  0.00    -0.232 N 
ATOM      5  N   LIG    1       -2.665  -0.236  -0.569  0.00  0.00    -0.171 NA
ENDROOT
BRANCH   3   6
ATOM      6  C   LIG    1       -3.712   2.491   1.658  0.00  0.00    +0.001 A 
ATOM      7  C   LIG    1       -2.744   3.496   1.704  0.00  0.00    +0.011 A 
ATOM      8  C   LIG    1       -2.905   4.566   2.559  0.00  0.00    +0.020 A 
ATOM      9  C   LIG    1       -4.018   4.640   3.379  0.00  0.00    +0.041 A 
ATOM     10 CL   LIG    1       -4.210   5.986   4.458  0.00  0.00    -0.084 Cl
ATOM     11  C   LIG    1       -4.979   3.643   3.342  0.00  0.00    +0.020 A 
ATOM     12  C   LIG    1       -4.832   2.571   2.487  0.00  0.00    +0.011 A 
ENDBRANCH   3   6
BRANCH   4  13
ATOM     13  C   LIG    1       -1.088   1.346   0.551  0.00  0.00    +0.066 A 
ATOM     14  C   LIG    1       -0.163   1.523  -0.470  0.00  0.00    +0.031 A 
ATOM     15  C   LIG    1        1.095   2.014  -0.183  0.00  0.00    +0.048 A 
ATOM     16  C   LIG    1        1.438   2.325   1.125  0.00  0.00    +0.120 A 
ATOM     17  C   LIG    1        0.516   2.143   2.146  0.00  0.00    +0.048 A 
ATOM     18  C   LIG    1       -0.742   1.653   1.861  0.00  0.00    +0.031 A 
BRANCH  16  19
ATOM     19  O   LIG    1        2.677   2.808   1.406  0.00  0.00    -0.495 OA
ATOM     20  C   LIG    1        2.962   3.107   2.774  0.00  0.00    +0.277 C 
ENDBRANCH  16  19
ENDBRANCH   4  13
BRANCH   1  21
ATOM     21  C   LIG    1       -4.704  -1.456  -1.371  0.00  0.00    +0.066 C 
BRANCH  21  22
ATOM     22  C   LIG    1       -4.303  -1.383  -2.846  0.00  0.00    +0.104 C 
BRANCH  22  25
ATOM     23  C   LIG    1       -5.566  -3.598  -5.701  0.00  0.00    +0.166 C 
ATOM     24  N   LIG    1       -4.847  -2.567  -4.948  0.00  0.00    -0.187 N 
ATOM     25  C   LIG    1       -5.043  -2.443  -3.620  0.00  0.00    +0.238 C 
ATOM     26  O   LIG    1       -5.814  -3.184  -3.049  0.00  0.00    -0.274 OA
BRANCH  24  27
ATOM     27  O   LIG    1       -3.947  -1.702  -5.615  0.00  0.00    -0.293 OA
ATOM     28  H   LIG    1       -3.873  -1.867  -6.565  0.00  0.00    +0.242 HD
ENDBRANCH  24  27
ENDBRANCH  22  25
ENDBRANCH  21  22
ENDBRANCH   1  21
TORSDOF 7
