REMARK  Name = ZINC00538507
REMARK                            x       y       z     vdW  Elec       q    Type
REMARK                         _______ _______ _______ _____ _____    ______ ____
ROOT
ATOM      1  N   LIG    1       -2.777  -4.025  -0.239  0.00  0.00    -0.298 N 
ATOM      2  C   LIG    1       -2.920  -4.561  -1.517  0.00  0.00    +0.048 A 
ATOM      3  C   LIG    1       -3.548  -3.798  -2.496  0.00  0.00    +0.024 A 
ATOM      4  C   LIG    1       -3.702  -4.296  -3.776  0.00  0.00    +0.002 A 
ATOM      5  C   LIG    1       -3.233  -5.556  -4.094  0.00  0.00    +0.001 A 
ATOM      6  C   LIG    1       -2.609  -6.324  -3.127  0.00  0.00    +0.017 A 
ATOM      7  C   LIG    1       -2.452  -5.831  -1.840  0.00  0.00    +0.034 A 
ATOM      8  S   LIG    1       -1.663  -6.827  -0.620  0.00  0.00    -0.086 S 
ATOM      9  C   LIG    1       -2.115  -6.070   0.905  0.00  0.00    +0.034 A 
ATOM     10  C   LIG    1       -1.967  -6.777   2.090  0.00  0.00    +0.017 A 
ATOM     11  C   LIG    1       -2.305  -6.196   3.292  0.00  0.00    +0.013 A 
ATOM     12  C   LIG    1       -2.808  -4.910   3.319  0.00  0.00    +0.057 A 
ATOM     13  C   LIG    1       -2.962  -4.199   2.143  0.00  0.00    +0.037 A 
ATOM     14  C   LIG    1       -2.613  -4.772   0.925  0.00  0.00    +0.048 A 
ENDROOT
BRANCH  12  15
ATOM     15  C   LIG    1       -3.189  -4.279   4.633  0.00  0.00    +0.417 C 
ATOM     16  F   LIG    1       -3.009  -2.894   4.556  0.00  0.00    -0.166 F 
ATOM     17  F   LIG    1       -2.383  -4.799   5.651  0.00  0.00    -0.166 F 
ATOM     18  F   LIG    1       -4.531  -4.559   4.913  0.00  0.00    -0.166 F 
ENDBRANCH  12  15
BRANCH   1  19
ATOM     19  C   LIG    1       -2.794  -2.566  -0.111  0.00  0.00    +0.109 C 
BRANCH  19  20
ATOM     20  C   LIG    1       -4.231  -2.090   0.112  0.00  0.00    +0.001 C 
BRANCH  20  21
ATOM     21  C   LIG    1       -4.248  -0.566   0.246  0.00  0.00    -0.078 C 
BRANCH  21  23
ATOM     22  C   LIG    1       -5.632   1.338   0.708  0.00  0.00    -0.097 C 
ATOM     23  N   LIG    1       -5.628  -0.110   0.461  0.00  0.00    +0.376 N 
ATOM     24  H   LIG    1       -6.021  -0.588   1.257  0.00  0.00    -0.083 HD
ATOM     25  C   LIG    1       -6.432  -0.404  -0.733  0.00  0.00    -0.097 C 
ENDBRANCH  21  23
ENDBRANCH  20  21
ENDBRANCH  19  20
ENDBRANCH   1  19
TORSDOF 5
