REMARK  Name = ZINC00457477
REMARK                            x       y       z     vdW  Elec       q    Type
REMARK                         _______ _______ _______ _____ _____    ______ ____
ROOT
ATOM      1  O   LIG    1        0.050  -4.208  -2.319  0.00  0.00    -0.312 OA
ENDROOT
BRANCH   1   9
ATOM      2  C   LIG    1       -0.018   1.503   0.010  0.00  0.00    +0.048 C 
ATOM      3  C   LIG    1        0.002  -0.004   0.002  0.00  0.00    -0.001 C 
ATOM      4  C   LIG    1        0.006  -0.671  -1.169  0.00  0.00    +0.038 C 
ATOM      5  C   LIG    1        0.026  -2.140  -1.176  0.00  0.00    +0.104 C 
ATOM      6  C   LIG    1        0.043  -2.877   0.095  0.00  0.00    +0.038 C 
ATOM      7  C   LIG    1        0.039  -2.203   1.262  0.00  0.00    -0.001 C 
ATOM      8  C   LIG    1        0.055  -2.958   2.567  0.00  0.00    +0.048 C 
ATOM      9  N   LIG    1        0.030  -2.792  -2.315  0.00  0.00    -0.074 NA
ATOM     10  C   LIG    1        0.024  -0.741   1.265  0.00  0.00    +0.185 C 
ATOM     11  O   LIG    1        0.026  -0.135   2.323  0.00  0.00    -0.287 OA
ENDBRANCH   1   9
BRANCH   1  12
ATOM     12  C   LIG    1        0.052  -4.753  -3.554  0.00  0.00    +0.359 C 
ATOM     13  O   LIG    1        0.037  -4.035  -4.536  0.00  0.00    -0.243 OA
BRANCH  12  14
ATOM     14  C   LIG    1        0.071  -6.206  -3.712  0.00  0.00    +0.094 C 
ATOM     15  C   LIG    1        0.073  -6.751  -4.947  0.00  0.00    +0.015 C 
BRANCH  15  16
ATOM     16  C   LIG    1        0.093  -8.214  -5.105  0.00  0.00    -0.025 A 
ATOM     17  C   LIG    1        0.104  -9.043  -3.979  0.00  0.00    +0.008 A 
ATOM     18  C   LIG    1        0.122 -10.413  -4.136  0.00  0.00    +0.001 A 
ATOM     19  C   LIG    1        0.129 -10.968  -5.404  0.00  0.00    +0.000 A 
ATOM     20  C   LIG    1        0.119 -10.154  -6.523  0.00  0.00    +0.001 A 
ATOM     21  C   LIG    1        0.095  -8.783  -6.383  0.00  0.00    +0.008 A 
ENDBRANCH  15  16
ENDBRANCH  12  14
ENDBRANCH   1  12
TORSDOF 4
