REMARK  Name = ZINC00659267
REMARK                            x       y       z     vdW  Elec       q    Type
REMARK                         _______ _______ _______ _____ _____    ______ ____
ROOT
ATOM      1  C   LIG    1       -1.320  -0.733  -0.011  0.00  0.00    +0.101 C 
ATOM      2  C   LIG    1       -1.123  -2.150  -0.471  0.00  0.00    +0.098 C 
ATOM      3  C   LIG    1        0.109  -2.714  -0.445  0.00  0.00    +0.198 C 
ATOM      4  O   LIG    1        1.180  -2.034  -0.007  0.00  0.00    -0.445 OA
ATOM      5  C   LIG    1        1.161  -0.688   0.007  0.00  0.00    +0.115 C 
ATOM      6  C   LIG    1        2.485   0.039   0.035  0.00  0.00    +0.083 C 
ATOM      7  C   LIG    1        2.352   1.379  -0.691  0.00  0.00    +0.035 C 
ATOM      8  C   LIG    1        1.259   2.200   0.002  0.00  0.00    +0.088 C 
ATOM      9  C   LIG    1       -0.017   1.404   0.010  0.00  0.00    +0.164 C 
ATOM     10  O   LIG    1       -1.083   1.986   0.018  0.00  0.00    -0.292 OA
ATOM     11  C   LIG    1        0.002  -0.004   0.002  0.00  0.00    +0.046 C 
ENDROOT
BRANCH   7  12
ATOM     12  C   LIG    1        3.661   2.122  -0.628  0.00  0.00    -0.025 A 
ATOM     13  C   LIG    1        4.202   2.467   0.597  0.00  0.00    +0.005 A 
ATOM     14  C   LIG    1        5.405   3.144   0.655  0.00  0.00    +0.000 A 
ATOM     15  C   LIG    1        6.064   3.486  -0.511  0.00  0.00    +0.001 A 
ATOM     16  C   LIG    1        5.522   3.147  -1.736  0.00  0.00    +0.020 A 
ATOM     17  C   LIG    1        4.320   2.464  -1.795  0.00  0.00    +0.044 A 
ATOM     18 CL   LIG    1        3.638   2.037  -3.334  0.00  0.00    -0.083 Cl
ENDBRANCH   7  12
BRANCH   1  22
ATOM     19  C   LIG    1       -2.976  -0.739   3.928  0.00  0.00    +0.120 A 
ATOM     20  C   LIG    1       -3.673  -0.151   2.882  0.00  0.00    +0.046 A 
ATOM     21  C   LIG    1       -3.135  -0.150   1.610  0.00  0.00    +0.008 A 
ATOM     22  C   LIG    1       -1.904  -0.735   1.378  0.00  0.00    -0.034 A 
ATOM     23  C   LIG    1       -1.210  -1.326   2.417  0.00  0.00    +0.008 A 
ATOM     24  C   LIG    1       -1.740  -1.324   3.693  0.00  0.00    +0.046 A 
BRANCH  19  26
ATOM     25  C   LIG    1       -2.729  -1.363   6.209  0.00  0.00    +0.277 C 
ATOM     26  O   LIG    1       -3.502  -0.740   5.181  0.00  0.00    -0.495 OA
ENDBRANCH  19  26
ENDBRANCH   1  22
BRANCH   3  27
ATOM     27  N   LIG    1        0.265  -4.008  -0.875  0.00  0.00    -0.328 N 
ATOM     28  H   LIG    1        1.143  -4.422  -0.861  0.00  0.00    +0.145 HD
ATOM     29  H   LIG    1       -0.502  -4.509  -1.194  0.00  0.00    +0.145 HD
ENDBRANCH   3  27
BRANCH   2  30
ATOM     30  C   LIG    1       -2.243  -2.909  -0.940  0.00  0.00    +0.101 C 
ATOM     31  N   LIG    1       -3.132  -3.511  -1.312  0.00  0.00    -0.191 NA
ENDBRANCH   2  30
TORSDOF 5
