REMARK  Name = ZINC00538211
REMARK                            x       y       z     vdW  Elec       q    Type
REMARK                         _______ _______ _______ _____ _____    ______ ____
ROOT
ATOM      1  C   LIG    1       -0.017   1.363   0.009  0.00  0.00    +0.001 A 
ATOM      2  C   LIG    1        1.165   2.092   0.002  0.00  0.00    +0.001 A 
ATOM      3  C   LIG    1        2.386   1.454  -0.013  0.00  0.00    +0.014 A 
ATOM      4  C   LIG    1        2.429   0.060  -0.021  0.00  0.00    +0.050 A 
ATOM      5  C   LIG    1        1.224  -0.679  -0.013  0.00  0.00    +0.011 A 
ATOM      6  C   LIG    1        1.300  -2.140  -0.022  0.00  0.00    +0.080 A 
ATOM      7  N   LIG    1        2.458  -2.731  -0.037  0.00  0.00    -0.172 NA
ATOM      8  N   LIG    1        3.663  -2.028  -0.045  0.00  0.00    -0.224 N 
ATOM      9  C   LIG    1        3.698  -0.679  -0.038  0.00  0.00    +0.275 A 
ATOM     10  O   LIG    1        4.762  -0.086  -0.046  0.00  0.00    -0.266 OA
ATOM     11  C   LIG    1        0.002  -0.004   0.002  0.00  0.00    +0.010 A 
ENDROOT
BRANCH   6  12
ATOM     12  C   LIG    1        0.036  -2.959  -0.014  0.00  0.00    +0.178 C 
BRANCH  12  13
ATOM     13  C   LIG    1        0.387  -4.425  -0.026  0.00  0.00    +0.311 C 
ATOM     14  O   LIG    1        1.556  -4.771  -0.040  0.00  0.00    -0.251 OA
BRANCH  13  15
ATOM     15  O   LIG    1       -0.497  -5.264  -0.022  0.00  0.00    -0.480 OA
ATOM     16  H   LIG    1       -1.396  -4.998  -0.011  0.00  0.00    +0.295 HD
ENDBRANCH  13  15
ENDBRANCH  12  13
ENDBRANCH   6  12
BRANCH   8  17
ATOM     17  C   LIG    1        4.923  -2.774  -0.062  0.00  0.00    +0.185 C 
BRANCH  17  18
ATOM     18  C   LIG    1        5.370  -3.037   1.353  0.00  0.00    +0.009 A 
ATOM     19  C   LIG    1        6.339  -2.239   1.932  0.00  0.00    +0.009 A 
ATOM     20  C   LIG    1        6.748  -2.480   3.230  0.00  0.00    +0.016 A 
ATOM     21  C   LIG    1        6.189  -3.520   3.951  0.00  0.00    +0.021 A 
ATOM     22 BR   LIG    1        6.751  -3.849   5.727  0.00  0.00    -0.050 Br
ATOM     23  C   LIG    1        5.220  -4.320   3.374  0.00  0.00    +0.054 A 
ATOM     24  C   LIG    1        4.805  -4.075   2.075  0.00  0.00    +0.129 A 
ATOM     25  F   LIG    1        3.854  -4.852   1.512  0.00  0.00    -0.205 F 
ENDBRANCH  17  18
ENDBRANCH   8  17
TORSDOF 5
