REMARK  Name = ZINC00495006
REMARK                            x       y       z     vdW  Elec       q    Type
REMARK                         _______ _______ _______ _____ _____    ______ ____
ROOT
ATOM      1  C   LIG    1       -0.017   1.362   0.009  0.00  0.00    +0.001 A 
ATOM      2  C   LIG    1        1.170   2.083   0.002  0.00  0.00    +0.002 A 
ATOM      3  C   LIG    1        2.386   1.436  -0.013  0.00  0.00    +0.026 A 
ATOM      4  C   LIG    1        2.428   0.046  -0.021  0.00  0.00    +0.047 A 
ATOM      5  C   LIG    1        1.223  -0.681  -0.013  0.00  0.00    +0.003 A 
ATOM      6  C   LIG    1        1.604  -2.095  -0.025  0.00  0.00    -0.021 A 
ATOM      7  C   LIG    1        2.945  -2.141  -0.038  0.00  0.00    +0.087 A 
ATOM      8  N   LIG    1        3.455  -0.871  -0.036  0.00  0.00    -0.360 N 
ATOM      9  H   LIG    1        4.399  -0.650  -0.044  0.00  0.00    +0.165 HD
ATOM     10  C   LIG    1        0.002  -0.004   0.002  0.00  0.00    +0.010 A 
ENDROOT
BRANCH   6  11
ATOM     11  C   LIG    1        0.666  -3.275  -0.021  0.00  0.00    +0.056 C 
BRANCH  11  12
ATOM     12  C   LIG    1        0.236  -3.589  -1.455  0.00  0.00    +0.109 C 
BRANCH  12  13
ATOM     13  N   LIG    1       -0.675  -4.736  -1.452  0.00  0.00    -0.308 N 
ATOM     14  H   LIG    1       -0.911  -5.166  -0.615  0.00  0.00    +0.149 HD
ATOM     15  C   LIG    1       -1.186  -5.195  -2.612  0.00  0.00    +0.317 C 
ATOM     16  O   LIG    1       -0.891  -4.657  -3.659  0.00  0.00    -0.266 OA
BRANCH  15  17
ATOM     17  C   LIG    1       -2.123  -6.375  -2.609  0.00  0.00    +0.469 C 
ATOM     18  F   LIG    1       -3.251  -6.072  -1.839  0.00  0.00    -0.162 F 
ATOM     19  F   LIG    1       -1.471  -7.486  -2.064  0.00  0.00    -0.162 F 
ATOM     20  F   LIG    1       -2.516  -6.662  -3.920  0.00  0.00    -0.162 F 
ENDBRANCH  15  17
ENDBRANCH  12  13
ENDBRANCH  11  12
ENDBRANCH   6  11
TORSDOF 4
