REMARK  Name = ZINC00519611
REMARK                            x       y       z     vdW  Elec       q    Type
REMARK                         _______ _______ _______ _____ _____    ______ ____
ROOT
ATOM      1  C   LIG    1        2.392   0.024  -0.020  0.00  0.00    +0.001 A 
ATOM      2  C   LIG    1        2.378   1.412  -0.012  0.00  0.00    +0.002 A 
ATOM      3  C   LIG    1        1.186   2.102   0.002  0.00  0.00    +0.026 A 
ATOM      4  C   LIG    1       -0.017   1.404   0.010  0.00  0.00    +0.047 A 
ATOM      5  C   LIG    1        0.002  -0.004   0.002  0.00  0.00    +0.003 A 
ATOM      6  C   LIG    1       -1.396  -0.422   0.015  0.00  0.00    -0.018 A 
ATOM      7  C   LIG    1       -2.149   0.695   0.027  0.00  0.00    +0.032 A 
ATOM      8  C   LIG    1       -3.661   0.686   0.042  0.00  0.00    +0.121 C 
ATOM      9  C   LIG    1       -4.143  -0.706  -0.381  0.00  0.00    +0.019 C 
ATOM     10  C   LIG    1       -3.416  -1.772   0.443  0.00  0.00    +0.006 C 
ATOM     11  C   LIG    1       -1.944  -1.826   0.016  0.00  0.00    +0.037 C 
ATOM     12  N   LIG    1       -1.338   1.794   0.030  0.00  0.00    -0.357 N 
ATOM     13  H   LIG    1       -1.647   2.714   0.039  0.00  0.00    +0.166 HD
ATOM     14  C   LIG    1        1.223  -0.682  -0.013  0.00  0.00    +0.010 A 
ENDROOT
BRANCH   8  15
ATOM     15  C   LIG    1       -4.183   1.718  -0.924  0.00  0.00    +0.219 C 
ATOM     16  N   LIG    1       -5.511   1.873  -1.092  0.00  0.00    -0.329 N 
ATOM     17  H   LIG    1       -5.847   2.537  -1.714  0.00  0.00    +0.145 HD
ATOM     18  H   LIG    1       -6.131   1.321  -0.590  0.00  0.00    +0.145 HD
ATOM     19  O   LIG    1       -3.407   2.408  -1.551  0.00  0.00    -0.275 OA
ENDBRANCH   8  15
TORSDOF 1
