REMARK  Name = ZINC00537822
REMARK                            x       y       z     vdW  Elec       q    Type
REMARK                         _______ _______ _______ _____ _____    ______ ____
ROOT
ATOM      1  N   LIG    1       -4.021  -4.841   0.016  0.00  0.00    +0.380 N 
ATOM      2  H   LIG    1       -4.533  -4.444  -0.758  0.00  0.00    -0.082 HD
ATOM      3  C   LIG    1       -4.673  -4.462   1.276  0.00  0.00    -0.076 C 
ATOM      4  C   LIG    1       -6.132  -4.923   1.258  0.00  0.00    +0.021 C 
ATOM      5  C   LIG    1       -6.179  -6.444   1.095  0.00  0.00    +0.088 C 
ATOM      6  C   LIG    1       -5.432  -6.835  -0.183  0.00  0.00    +0.021 C 
ATOM      7  C   LIG    1       -3.999  -6.303  -0.113  0.00  0.00    -0.076 C 
ENDROOT
BRANCH   5   8
ATOM      8  C   LIG    1       -7.614  -6.897   0.999  0.00  0.00    -0.016 A 
ATOM      9  C   LIG    1       -8.566  -6.060   0.448  0.00  0.00    +0.008 A 
ATOM     10  C   LIG    1       -9.882  -6.474   0.360  0.00  0.00    +0.020 A 
ATOM     11  C   LIG    1      -10.245  -7.726   0.822  0.00  0.00    +0.041 A 
ATOM     12 CL   LIG    1      -11.898  -8.247   0.712  0.00  0.00    -0.084 Cl
ATOM     13  C   LIG    1       -9.291  -8.563   1.373  0.00  0.00    +0.020 A 
ATOM     14  C   LIG    1       -7.975  -8.150   1.456  0.00  0.00    +0.008 A 
ENDBRANCH   5   8
BRANCH   5  15
ATOM     15  O   LIG    1       -5.555  -7.065   2.221  0.00  0.00    -0.384 OA
ATOM     16  H   LIG    1       -5.550  -8.031   2.185  0.00  0.00    +0.211 HD
ENDBRANCH   5  15
BRANCH   1  17
ATOM     17  C   LIG    1       -2.644  -4.329   0.005  0.00  0.00    -0.078 C 
BRANCH  17  18
ATOM     18  C   LIG    1       -2.669  -2.800   0.013  0.00  0.00    -0.011 C 
BRANCH  18  19
ATOM     19  C   LIG    1       -1.235  -2.266   0.002  0.00  0.00    +0.078 C 
BRANCH  19  20
ATOM     20  C   LIG    1       -1.259  -0.760   0.011  0.00  0.00    +0.163 C 
ATOM     21  O   LIG    1       -2.319  -0.170   0.024  0.00  0.00    -0.292 OA
BRANCH  20  28
ATOM     22  C   LIG    1       -0.017   1.395   0.010  0.00  0.00    +0.014 A 
ATOM     23  C   LIG    1        1.168   2.097   0.002  0.00  0.00    +0.039 A 
ATOM     24  C   LIG    1        2.379   1.420  -0.013  0.00  0.00    +0.123 A 
ATOM     25  F   LIG    1        3.538   2.114  -0.020  0.00  0.00    -0.205 F 
ATOM     26  C   LIG    1        2.405   0.033  -0.021  0.00  0.00    +0.039 A 
ATOM     27  C   LIG    1        1.227  -0.681  -0.014  0.00  0.00    +0.014 A 
ATOM     28  C   LIG    1        0.002  -0.004   0.002  0.00  0.00    +0.018 A 
ENDBRANCH  20  28
ENDBRANCH  19  20
ENDBRANCH  18  19
ENDBRANCH  17  18
ENDBRANCH   1  17
TORSDOF 7
