REMARK  Name = ZINC00402642
REMARK                            x       y       z     vdW  Elec       q    Type
REMARK                         _______ _______ _______ _____ _____    ______ ____
ROOT
ATOM      1  C   LIG    1        1.176   2.088   0.002  0.00  0.00    +0.121 A 
ATOM      2  C   LIG    1        2.387   1.402  -0.011  0.00  0.00    +0.049 A 
ATOM      3  C   LIG    1        2.414   0.025  -0.020  0.00  0.00    +0.050 A 
ATOM      4  C   LIG    1        1.225  -0.694  -0.013  0.00  0.00    +0.135 A 
ATOM      5  C   LIG    1        0.002  -0.004   0.002  0.00  0.00    +0.024 A 
ATOM      6  C   LIG    1       -1.035  -1.043   0.006  0.00  0.00    +0.053 A 
ATOM      7  C   LIG    1       -0.388  -2.217  -0.006  0.00  0.00    +0.108 A 
ATOM      8  O   LIG    1        0.941  -2.013  -0.018  0.00  0.00    -0.459 OA
ATOM      9  C   LIG    1       -0.017   1.390   0.010  0.00  0.00    +0.057 A 
ENDROOT
BRANCH   1  11
ATOM     10  C   LIG    1        2.434   4.106   0.000  0.00  0.00    +0.277 C 
ATOM     11  O   LIG    1        1.166   3.448   0.009  0.00  0.00    -0.495 OA
ENDBRANCH   1  11
BRANCH   7  12
ATOM     12  C   LIG    1       -1.054  -3.569  -0.008  0.00  0.00    +0.048 C 
BRANCH  12  13
ATOM     13  C   LIG    1       -0.621  -4.352   1.233  0.00  0.00    -0.075 C 
BRANCH  13  14
ATOM     14  N   LIG    1       -1.144  -3.676   2.434  0.00  0.00    +0.379 N 
ATOM     15  H   LIG    1       -2.170  -3.668   2.396  0.00  0.00    -0.090 HD
ATOM     16  H   LIG    1       -0.805  -2.716   2.470  0.00  0.00    -0.090 HD
ATOM     17  H   LIG    1       -0.846  -4.173   3.272  0.00  0.00    -0.090 HD
ENDBRANCH  13  14
ENDBRANCH  12  13
BRANCH  12  18
ATOM     18  C   LIG    1       -0.643  -4.338  -1.265  0.00  0.00    +0.129 C 
BRANCH  18  19
ATOM     19  C   LIG    1       -1.402  -5.638  -1.329  0.00  0.00    +0.305 C 
ATOM     20  O   LIG    1       -2.191  -5.920  -0.459  0.00  0.00    -0.251 OA
BRANCH  19  21
ATOM     21  O   LIG    1       -1.203  -6.482  -2.353  0.00  0.00    -0.481 OA
ATOM     22  H   LIG    1       -0.591  -6.263  -3.029  0.00  0.00    +0.295 HD
ENDBRANCH  19  21
ENDBRANCH  18  19
ENDBRANCH  12  18
ENDBRANCH   7  12
TORSDOF 7
