REMARK  Name = ZINC00402643
REMARK                            x       y       z     vdW  Elec       q    Type
REMARK                         _______ _______ _______ _____ _____    ______ ____
ROOT
ATOM      1  C   LIG    1        3.208   9.513  -0.274  0.00  0.00    +0.121 A 
ATOM      2  C   LIG    1        2.510   9.423   0.927  0.00  0.00    +0.049 A 
ATOM      3  C   LIG    1        2.145   8.196   1.436  0.00  0.00    +0.050 A 
ATOM      4  C   LIG    1        2.474   7.033   0.751  0.00  0.00    +0.135 A 
ATOM      5  C   LIG    1        3.179   7.122  -0.461  0.00  0.00    +0.024 A 
ATOM      6  C   LIG    1        3.365   5.737  -0.910  0.00  0.00    +0.053 A 
ATOM      7  C   LIG    1        2.780   4.963   0.015  0.00  0.00    +0.108 A 
ATOM      8  O   LIG    1        2.259   5.723   0.993  0.00  0.00    -0.459 OA
ATOM      9  C   LIG    1        3.544   8.368  -0.970  0.00  0.00    +0.057 A 
ENDROOT
BRANCH   1  11
ATOM     10  C   LIG    1        3.182  11.875   0.007  0.00  0.00    +0.277 C 
ATOM     11  O   LIG    1        3.561  10.732  -0.763  0.00  0.00    -0.495 OA
ENDBRANCH   1  11
BRANCH   7  12
ATOM     12  C   LIG    1        2.721   3.458  -0.033  0.00  0.00    +0.048 C 
BRANCH  12  13
ATOM     13  C   LIG    1        3.420   2.881   1.200  0.00  0.00    -0.075 C 
BRANCH  13  14
ATOM     14  N   LIG    1        4.850   3.232   1.146  0.00  0.00    +0.379 N 
ATOM     15  H   LIG    1        4.945   4.250   1.061  0.00  0.00    -0.090 HD
ATOM     16  H   LIG    1        5.288   2.789   0.340  0.00  0.00    -0.090 HD
ATOM     17  H   LIG    1        5.317   2.924   1.998  0.00  0.00    -0.090 HD
ENDBRANCH  13  14
ENDBRANCH  12  13
BRANCH  12  18
ATOM     18  C   LIG    1        1.260   3.005  -0.049  0.00  0.00    +0.129 C 
BRANCH  18  19
ATOM     19  C   LIG    1        0.612   3.445  -1.337  0.00  0.00    +0.305 C 
ATOM     20  O   LIG    1        1.278   3.959  -2.204  0.00  0.00    -0.251 OA
BRANCH  19  21
ATOM     21  O   LIG    1       -0.706   3.265  -1.521  0.00  0.00    -0.481 OA
ATOM     22  H   LIG    1       -1.222   2.866  -0.849  0.00  0.00    +0.295 HD
ENDBRANCH  19  21
ENDBRANCH  18  19
ENDBRANCH  12  18
ENDBRANCH   7  12
TORSDOF 7
