REMARK  Name = ZINC00391812
REMARK                            x       y       z     vdW  Elec       q    Type
REMARK                         _______ _______ _______ _____ _____    ______ ____
ROOT
ATOM      1  C   LIG    1        0.394   1.537  -0.088  0.00  0.00    -0.095 C 
ATOM      2  N   LIG    1        0.222   0.078  -0.092  0.00  0.00    +0.382 N 
ATOM      3  H   LIG    1       -0.761  -0.148  -0.130  0.00  0.00    -0.081 HD
ATOM      4  C   LIG    1        0.906  -0.499  -1.264  0.00  0.00    -0.078 C 
ATOM      5  C   LIG    1        1.992  -1.458  -0.732  0.00  0.00    -0.020 C 
ATOM      6  C   LIG    1        2.241  -0.939   0.709  0.00  0.00    -0.013 C 
ATOM      7  C   LIG    1        0.818  -0.497   1.132  0.00  0.00    -0.037 C 
ENDROOT
BRANCH   7   8
ATOM      8  C   LIG    1        0.894   0.545   2.218  0.00  0.00    -0.043 A 
ATOM      9  C   LIG    1        1.843   1.554   2.158  0.00  0.00    +0.005 A 
ATOM     10  C   LIG    1        1.876   2.491   3.179  0.00  0.00    +0.020 A 
ATOM     11  C   LIG    1        0.968   2.389   4.216  0.00  0.00    +0.111 A 
ATOM     12  N   LIG    1        0.079   1.415   4.241  0.00  0.00    -0.263 NA
ATOM     13  C   LIG    1        0.015   0.510   3.284  0.00  0.00    +0.112 A 
ENDBRANCH   7   8
TORSDOF 1
