REMARK  Name = ZINC00359756
REMARK                            x       y       z     vdW  Elec       q    Type
REMARK                         _______ _______ _______ _____ _____    ______ ____
ROOT
ATOM      1  C   LIG    1        5.319  -1.605   1.466  0.00  0.00    +0.126 A 
ATOM      2  C   LIG    1        6.048  -2.007   0.357  0.00  0.00    +0.046 A 
ATOM      3  C   LIG    1        7.245  -2.676   0.525  0.00  0.00    +0.004 A 
ATOM      4  C   LIG    1        7.716  -2.945   1.797  0.00  0.00    +0.001 A 
ATOM      5  C   LIG    1        6.991  -2.545   2.904  0.00  0.00    +0.009 A 
ATOM      6  C   LIG    1        5.796  -1.871   2.742  0.00  0.00    +0.011 A 
ENDROOT
BRANCH   1   7
ATOM      7  O   LIG    1        4.141  -0.946   1.304  0.00  0.00    -0.487 OA
BRANCH   7   8
ATOM      8  C   LIG    1        3.711  -0.707  -0.038  0.00  0.00    +0.264 C 
BRANCH   8  12
ATOM      9  C   LIG    1       -0.017   1.378   0.010  0.00  0.00    +0.000 A 
ATOM     10  C   LIG    1        1.171   2.086   0.002  0.00  0.00    +0.000 A 
ATOM     11  C   LIG    1        2.377   1.411  -0.013  0.00  0.00    +0.007 A 
ATOM     12  C   LIG    1        2.396   0.029  -0.020  0.00  0.00    -0.010 A 
ATOM     13  C   LIG    1        1.208  -0.679  -0.012  0.00  0.00    +0.007 A 
ATOM     14  C   LIG    1        0.002  -0.004   0.002  0.00  0.00    +0.000 A 
ENDBRANCH   8  12
ENDBRANCH   7   8
ENDBRANCH   1   7
BRANCH   6  15
ATOM     15  C   LIG    1        5.008  -1.430   3.949  0.00  0.00    +0.140 C 
BRANCH  15  16
ATOM     16  N   LIG    1        3.922  -2.381   4.197  0.00  0.00    -0.340 N 
ATOM     17  H   LIG    1        3.808  -3.149   3.616  0.00  0.00    +0.146 HD
BRANCH  16  18
ATOM     18  C   LIG    1        3.049  -2.181   5.272  0.00  0.00    +0.028 A 
ATOM     19  C   LIG    1        3.209  -1.078   6.101  0.00  0.00    +0.026 A 
ATOM     20  C   LIG    1        2.347  -0.881   7.162  0.00  0.00    +0.047 A 
ATOM     21  C   LIG    1        1.322  -1.784   7.400  0.00  0.00    +0.117 A 
ATOM     22  C   LIG    1        1.162  -2.886   6.573  0.00  0.00    +0.047 A 
ATOM     23  C   LIG    1        2.019  -3.082   5.508  0.00  0.00    +0.026 A 
BRANCH  21  24
ATOM     24  O   LIG    1        0.474  -1.590   8.445  0.00  0.00    -0.507 OA
ATOM     25  H   LIG    1       -0.307  -1.063   8.225  0.00  0.00    +0.292 HD
ENDBRANCH  21  24
ENDBRANCH  16  18
ENDBRANCH  15  16
ENDBRANCH   6  15
TORSDOF 7
