REMARK  Name = ZINC00403014
REMARK                            x       y       z     vdW  Elec       q    Type
REMARK                         _______ _______ _______ _____ _____    ______ ____
ROOT
ATOM      1  C   LIG    1        1.866   3.334   0.155  0.00  0.00    -0.065 C 
ENDROOT
BRANCH   1   2
ATOM      2  N   LIG    1        1.412   3.971   1.404  0.00  0.00    +0.381 N 
ATOM      3  H   LIG    1        0.479   3.617   1.644  0.00  0.00    -0.090 HD
ATOM      4  H   LIG    1        1.363   4.981   1.283  0.00  0.00    -0.090 HD
ATOM      5  H   LIG    1        2.056   3.752   2.162  0.00  0.00    -0.090 HD
ENDBRANCH   1   2
BRANCH   1   6
ATOM      6  C   LIG    1        3.328   3.689  -0.125  0.00  0.00    -0.013 C 
BRANCH   6   8
ATOM      7  C   LIG    1        4.931   5.572  -0.479  0.00  0.00    +0.007 C 
ATOM      8  C   LIG    1        3.453   5.197  -0.345  0.00  0.00    -0.019 C 
ATOM      9  C   LIG    1        2.709   5.590  -1.622  0.00  0.00    +0.007 C 
ENDBRANCH   6   8
ENDBRANCH   1   6
BRANCH   1  10
ATOM     10  C   LIG    1        1.727   1.817   0.295  0.00  0.00    +0.049 C 
BRANCH  10  11
ATOM     11  S   LIG    1       -0.025   1.385   0.480  0.00  0.00    -0.180 S 
ATOM     12  H   LIG    1       -0.020   0.044   0.592  0.00  0.00    +0.102 HD
ENDBRANCH  10  11
ENDBRANCH   1  10
TORSDOF 5
