REMARK  Name = ZINC00602601
REMARK                            x       y       z     vdW  Elec       q    Type
REMARK                         _______ _______ _______ _____ _____    ______ ____
ROOT
ATOM      1  C   LIG    1        3.726  -0.898   1.603  0.00  0.00    +0.102 C 
ATOM      2  C   LIG    1        4.867  -1.887   1.441  0.00  0.00    +0.126 C 
ATOM      3  N   LIG    1        5.486  -2.154   2.748  0.00  0.00    -0.322 N 
ATOM      4  C   LIG    1        6.496  -1.308   3.183  0.00  0.00    +0.035 A 
ATOM      5  C   LIG    1        7.805  -1.766   3.299  0.00  0.00    +0.025 A 
ATOM      6  C   LIG    1        8.806  -0.901   3.678  0.00  0.00    +0.021 A 
ATOM      7  C   LIG    1        8.513   0.440   3.945  0.00  0.00    +0.052 A 
ATOM      8  C   LIG    1        7.193   0.894   3.848  0.00  0.00    +0.025 A 
ATOM      9  C   LIG    1        6.199   0.018   3.495  0.00  0.00    -0.009 A 
ATOM     10  C   LIG    1        4.745   0.451   3.509  0.00  0.00    +0.146 C 
ATOM     11  N   LIG    1        4.203   0.375   2.152  0.00  0.00    -0.167 NA
ENDROOT
BRANCH  11  12
ATOM     12  S   LIG    1        4.126   1.744   1.225  0.00  0.00    +0.068 S 
ATOM     13  O   LIG    1        4.361   1.340  -0.117  0.00  0.00    -0.152 OA
ATOM     14  O   LIG    1        4.924   2.722   1.877  0.00  0.00    -0.152 OA
BRANCH  12  15
ATOM     15  C   LIG    1        2.463   2.325   1.291  0.00  0.00    +0.143 A 
ATOM     16  C   LIG    1        1.866   3.096   2.233  0.00  0.00    +0.036 A 
ATOM     17  C   LIG    1        0.534   3.433   2.076  0.00  0.00    +0.010 A 
ATOM     18  C   LIG    1       -0.134   2.984   0.986  0.00  0.00    +0.047 A 
ATOM     19  S   LIG    1        1.132   2.058   0.133  0.00  0.00    -0.077 S 
ENDBRANCH  12  15
ENDBRANCH  11  12
BRANCH   7  20
ATOM     20  C   LIG    1        9.560   1.344   4.316  0.00  0.00    +0.099 C 
ATOM     21  N   LIG    1       10.390   2.062   4.610  0.00  0.00    -0.191 NA
ENDBRANCH   7  20
BRANCH   1  22
ATOM     22  C   LIG    1        3.083  -0.646   0.238  0.00  0.00    +0.057 C 
BRANCH  22  26
ATOM     23  C   LIG    1        1.187  -4.222  -1.128  0.00  0.00    +0.000 A 
ATOM     24  C   LIG    1        0.519  -3.370  -0.269  0.00  0.00    +0.000 A 
ATOM     25  C   LIG    1        1.132  -2.213   0.173  0.00  0.00    +0.004 A 
ATOM     26  C   LIG    1        2.415  -1.908  -0.243  0.00  0.00    -0.046 A 
ATOM     27  C   LIG    1        3.084  -2.761  -1.101  0.00  0.00    +0.004 A 
ATOM     28  C   LIG    1        2.470  -3.917  -1.544  0.00  0.00    +0.000 A 
ENDBRANCH  22  26
ENDBRANCH   1  22
BRANCH   3  29
ATOM     29  C   LIG    1        5.046  -3.284   3.571  0.00  0.00    +0.162 C 
BRANCH  29  30
ATOM     30  C   LIG    1        5.861  -4.504   3.226  0.00  0.00    +0.076 A 
ATOM     31  C   LIG    1        6.964  -4.927   3.872  0.00  0.00    +0.108 A 
ATOM     32  N   LIG    1        7.384  -6.064   3.235  0.00  0.00    -0.351 N 
ATOM     33  C   LIG    1        6.522  -6.295   2.221  0.00  0.00    +0.196 A 
ATOM     34  H   LIG    1        8.156  -6.602   3.469  0.00  0.00    +0.166 HD
ATOM     35  N   LIG    1        5.611  -5.361   2.225  0.00  0.00    -0.239 NA
ENDBRANCH  29  30
ENDBRANCH   3  29
TORSDOF 7
