REMARK  Name = ZINC00670237
REMARK                            x       y       z     vdW  Elec       q    Type
REMARK                         _______ _______ _______ _____ _____    ______ ____
ROOT
ATOM      1  N   LIG    1        2.742  -0.046  -0.545  0.00  0.00    -0.194 N 
ENDROOT
BRANCH   1   7
ATOM      2  C   LIG    1        0.433   0.599  -0.823  0.00  0.00    -0.025 A 
ATOM      3  C   LIG    1       -0.610   1.462  -0.546  0.00  0.00    +0.005 A 
ATOM      4  C   LIG    1       -0.404   2.555   0.275  0.00  0.00    +0.000 A 
ATOM      5  C   LIG    1        0.844   2.789   0.822  0.00  0.00    +0.002 A 
ATOM      6  C   LIG    1        1.891   1.930   0.549  0.00  0.00    +0.025 A 
ATOM      7  C   LIG    1        1.687   0.827  -0.271  0.00  0.00    +0.055 A 
BRANCH   2   9
ATOM      8  C   LIG    1       -1.262  -0.646  -2.137  0.00  0.00    +0.009 C 
ATOM      9  C   LIG    1        0.208  -0.592  -1.718  0.00  0.00    +0.033 C 
ENDBRANCH   2   9
ENDBRANCH   1   7
BRANCH   1  10
ATOM     10  S   LIG    1        3.340  -1.022   0.652  0.00  0.00    +0.075 S 
ATOM     11  O   LIG    1        2.666  -2.268   0.534  0.00  0.00    -0.150 OA
ATOM     12  O   LIG    1        3.321  -0.256   1.848  0.00  0.00    -0.150 OA
BRANCH  10  13
ATOM     13  C   LIG    1        5.034  -1.329   0.276  0.00  0.00    +0.109 A 
ATOM     14  C   LIG    1        5.388  -2.446  -0.457  0.00  0.00    +0.029 A 
ATOM     15  C   LIG    1        6.717  -2.687  -0.752  0.00  0.00    +0.005 A 
ATOM     16  C   LIG    1        7.692  -1.809  -0.314  0.00  0.00    -0.050 A 
ATOM     17  C   LIG    1        9.141  -2.072  -0.635  0.00  0.00    +0.044 C 
ATOM     18  C   LIG    1        7.337  -0.691   0.418  0.00  0.00    +0.005 A 
ATOM     19  C   LIG    1        6.008  -0.449   0.709  0.00  0.00    +0.029 A 
ENDBRANCH  10  13
ENDBRANCH   1  10
BRANCH   1  20
ATOM     20  C   LIG    1        3.319  -0.099  -1.890  0.00  0.00    +0.227 C 
BRANCH  20  21
ATOM     21  C   LIG    1        4.362   0.979  -2.032  0.00  0.00    +0.232 C 
ATOM     22  N   LIG    1        4.929   1.215  -3.231  0.00  0.00    -0.310 N 
ATOM     23  H   LIG    1        4.666   0.691  -4.004  0.00  0.00    +0.149 HD
ATOM     24  O   LIG    1        4.691   1.635  -1.066  0.00  0.00    -0.274 OA
BRANCH  22  25
ATOM     25  C   LIG    1        5.943   2.263  -3.369  0.00  0.00    +0.139 C 
BRANCH  25  26
ATOM     26  C   LIG    1        6.413   2.322  -4.800  0.00  0.00    -0.030 A 
ATOM     27  C   LIG    1        7.484   1.548  -5.207  0.00  0.00    +0.009 A 
ATOM     28  C   LIG    1        7.917   1.601  -6.518  0.00  0.00    +0.046 A 
ATOM     29  C   LIG    1        7.277   2.432  -7.426  0.00  0.00    +0.120 A 
ATOM     30  C   LIG    1        6.203   3.208  -7.014  0.00  0.00    +0.046 A 
ATOM     31  C   LIG    1        5.770   3.148  -5.704  0.00  0.00    +0.009 A 
BRANCH  29  32
ATOM     32  O   LIG    1        7.701   2.486  -8.715  0.00  0.00    -0.495 OA
ATOM     33  C   LIG    1        6.995   3.364  -9.595  0.00  0.00    +0.277 C 
ENDBRANCH  29  32
ENDBRANCH  25  26
ENDBRANCH  22  25
ENDBRANCH  20  21
ENDBRANCH   1  20
TORSDOF 9
