REMARK  Name = ZINC00436272
REMARK                            x       y       z     vdW  Elec       q    Type
REMARK                         _______ _______ _______ _____ _____    ______ ____
ROOT
ATOM      1  C   LIG    1       -1.239   1.597  -0.375  0.00  0.00    +0.140 C 
ATOM      2  S   LIG    1       -1.346   3.241  -0.838  0.00  0.00    -0.018 S 
ENDROOT
BRANCH   1   3
ATOM      3  N   LIG    1       -2.345   0.934   0.018  0.00  0.00    -0.297 N 
ATOM      4  H   LIG    1       -2.296  -0.013   0.222  0.00  0.00    +0.154 HD
BRANCH   3   8
ATOM      5  C   LIG    1       -5.973   2.954   0.360  0.00  0.00    +0.000 A 
ATOM      6  C   LIG    1       -5.177   3.148  -0.754  0.00  0.00    +0.002 A 
ATOM      7  C   LIG    1       -3.974   2.480  -0.871  0.00  0.00    +0.023 A 
ATOM      8  C   LIG    1       -3.563   1.612   0.133  0.00  0.00    +0.033 A 
ATOM      9  C   LIG    1       -4.367   1.416   1.249  0.00  0.00    +0.023 A 
ATOM     10  C   LIG    1       -5.566   2.091   1.362  0.00  0.00    +0.002 A 
ENDBRANCH   3   8
ENDBRANCH   1   3
BRANCH   1  11
ATOM     11  N   LIG    1       -0.050   0.964  -0.404  0.00  0.00    -0.274 N 
ATOM     12  H   LIG    1        0.011   0.032  -0.142  0.00  0.00    +0.156 HD
BRANCH  11  13
ATOM     13  C   LIG    1        1.090   1.646  -0.816  0.00  0.00    +0.187 A 
ATOM     14  N   LIG    1        1.236   2.903  -1.211  0.00  0.00    -0.126 NA
ATOM     15  N   LIG    1        2.357   3.366  -1.555  0.00  0.00    -0.148 NA
ATOM     16  C   LIG    1        3.453   2.633  -1.544  0.00  0.00    +0.183 A 
ATOM     17  S   LIG    1        2.783   1.081  -0.956  0.00  0.00    -0.039 S 
ENDBRANCH  11  13
ENDBRANCH   1  11
TORSDOF 4
