REMARK  Name = ZINC00527234
REMARK                            x       y       z     vdW  Elec       q    Type
REMARK                         _______ _______ _______ _____ _____    ______ ____
ROOT
ATOM      1  C   LIG    1       -1.576   4.809   2.707  0.00  0.00    +0.155 C 
ATOM      2  N   LIG    1       -1.453   3.362   2.516  0.00  0.00    -0.281 N 
ATOM      3  C   LIG    1       -1.977   2.492   3.460  0.00  0.00    +0.146 A 
ATOM      4  N   LIG    1       -2.629   2.668   4.610  0.00  0.00    -0.325 N 
ATOM      5  H   LIG    1       -2.870   3.578   5.020  0.00  0.00    +0.169 HD
ATOM      6  C   LIG    1       -2.917   1.496   5.141  0.00  0.00    +0.118 A 
ATOM      7  N   LIG    1       -2.449   0.506   4.332  0.00  0.00    -0.334 N 
ATOM      8  H   LIG    1       -2.527  -0.478   4.488  0.00  0.00    +0.168 HD
ATOM      9  C   LIG    1       -1.847   1.123   3.255  0.00  0.00    +0.147 A 
ATOM     10  C   LIG    1       -1.187   0.661   2.095  0.00  0.00    +0.282 A 
ATOM     11  N   LIG    1       -0.698   1.558   1.213  0.00  0.00    -0.262 N 
ATOM     12  C   LIG    1       -0.013   1.086   0.008  0.00  0.00    +0.157 C 
ATOM     13  O   LIG    1       -1.060  -0.533   1.892  0.00  0.00    -0.265 OA
ATOM     14  C   LIG    1       -0.827   2.879   1.427  0.00  0.00    +0.333 A 
ATOM     15  O   LIG    1       -0.369   3.658   0.613  0.00  0.00    -0.246 OA
ENDROOT
BRANCH   6  16
ATOM     16  C   LIG    1       -3.636   1.289   6.417  0.00  0.00    +0.018 A 
ATOM     17  C   LIG    1       -3.899   0.000   6.894  0.00  0.00    +0.031 A 
ATOM     18  C   LIG    1       -4.568  -0.146   8.093  0.00  0.00    +0.111 A 
ATOM     19  N   LIG    1       -4.967   0.907   8.779  0.00  0.00    -0.263 NA
ATOM     20  C   LIG    1       -4.745   2.139   8.363  0.00  0.00    +0.111 A 
ATOM     21  C   LIG    1       -4.078   2.377   7.178  0.00  0.00    +0.031 A 
ENDBRANCH   6  16
TORSDOF 1
