REMARK  Name = ZINC00597480
REMARK                            x       y       z     vdW  Elec       q    Type
REMARK                         _______ _______ _______ _____ _____    ______ ____
ROOT
ATOM      1  C   LIG    1        4.653  -4.111   0.014  0.00  0.00    +0.110 C 
ATOM      2  C   LIG    1        5.958  -4.594  -0.620  0.00  0.00    +0.061 C 
ATOM      3  CA  LIG    1        7.122  -4.246   0.317  0.00  0.00    +0.182 C 
ATOM      4  N   LIG    1        6.928  -4.987   1.570  0.00  0.00    -0.331 N 
ATOM      5  H   LIG    1        7.671  -5.448   1.991  0.00  0.00    +0.147 HD
ATOM      6  C   LIG    1        5.653  -5.019   2.147  0.00  0.00    +0.036 A 
ATOM      7  C   LIG    1        5.514  -5.469   3.455  0.00  0.00    +0.043 A 
ATOM      8  C   LIG    1        4.266  -5.511   4.043  0.00  0.00    +0.044 A 
ATOM      9 CL   LIG    1        4.093  -6.073   5.676  0.00  0.00    -0.083 Cl
ATOM     10  C   LIG    1        3.153  -5.104   3.328  0.00  0.00    +0.040 A 
ATOM     11  C   LIG    1        3.290  -4.655   2.027  0.00  0.00    +0.049 A 
ATOM     12 CL   LIG    1        1.889  -4.147   1.137  0.00  0.00    -0.083 Cl
ATOM     13  C   LIG    1        4.540  -4.609   1.431  0.00  0.00    +0.012 A 
ENDROOT
BRANCH   1  17
ATOM     14  N   LIG    1        4.347  -0.634  -1.136  0.00  0.00    -0.269 N 
ATOM     15  H   LIG    1        4.724  -0.150  -0.384  0.00  0.00    +0.156 HD
ATOM     16  C   LIG    1        4.274  -1.979  -1.103  0.00  0.00    +0.304 C 
ATOM     17  N   LIG    1        4.628  -2.647   0.013  0.00  0.00    -0.292 N 
ATOM     18  H   LIG    1        4.867  -2.157   0.816  0.00  0.00    +0.151 HD
ATOM     19  O   LIG    1        3.890  -2.591  -2.081  0.00  0.00    -0.252 OA
BRANCH  14  23
ATOM     20  C   LIG    1        2.951   1.448  -4.464  0.00  0.00    +0.000 A 
ATOM     21  C   LIG    1        2.330   0.276  -4.073  0.00  0.00    +0.002 A 
ATOM     22  C   LIG    1        2.791  -0.417  -2.971  0.00  0.00    +0.023 A 
ATOM     23  C   LIG    1        3.878   0.065  -2.254  0.00  0.00    +0.035 A 
ATOM     24  C   LIG    1        4.499   1.243  -2.648  0.00  0.00    +0.023 A 
ATOM     25  C   LIG    1        4.034   1.931  -3.752  0.00  0.00    +0.002 A 
ENDBRANCH  14  23
ENDBRANCH   1  17
BRANCH   3  26
ATOM     26  C   LIG    1        8.427  -4.650  -0.320  0.00  0.00    +0.325 C 
ATOM     27  O   LIG    1        9.031  -3.861  -1.026  0.00  0.00    -0.249 OA
BRANCH  26  28
ATOM     28  OXT LIG    1        8.879  -5.766  -0.128  0.00  0.00    -0.479 OA
ATOM     29  HXT LIG    1        8.415  -6.372   0.415  0.00  0.00    +0.295 HD
ENDBRANCH  26  28
ENDBRANCH   3  26
TORSDOF 4
