REMARK  Name = ZINC00370772
REMARK                            x       y       z     vdW  Elec       q    Type
REMARK                         _______ _______ _______ _____ _____    ______ ____
ROOT
ATOM      1  C   LIG    1        0.002  -0.004   0.002  0.00  0.00    +0.225 A 
ATOM      2  N   LIG    1       -0.016   1.317   0.009  0.00  0.00    -0.219 NA
ATOM      3  C   LIG    1        1.111   2.020   0.002  0.00  0.00    +0.147 A 
ATOM      4  C   LIG    1        2.334   1.326  -0.013  0.00  0.00    +0.147 A 
ATOM      5  C   LIG    1        2.299  -0.078  -0.021  0.00  0.00    +0.165 A 
ATOM      6  N   LIG    1        3.608  -0.489  -0.036  0.00  0.00    -0.312 N 
ATOM      7  C   LIG    1        4.387   0.630  -0.037  0.00  0.00    +0.201 A 
ATOM      8  N   LIG    1        3.638   1.694  -0.024  0.00  0.00    -0.231 NA
ATOM      9  N   LIG    1        1.122  -0.695  -0.013  0.00  0.00    -0.216 NA
ENDROOT
BRANCH   3  10
ATOM     10  N   LIG    1        1.083   3.404   0.009  0.00  0.00    -0.341 N 
ATOM     11  H   LIG    1        1.912   3.906   0.004  0.00  0.00    +0.144 HD
ATOM     12  H   LIG    1        0.597   3.731  -0.801  0.00  0.00    +0.144 HD
ENDBRANCH   3  10
BRANCH   6  13
ATOM     13  C   LIG    1        4.082  -1.875  -0.048  0.00  0.00    +0.158 C 
BRANCH  13  14
ATOM     14  C   LIG    1        4.114  -2.390  -1.489  0.00  0.00    +0.159 C 
BRANCH  14  15
ATOM     15  O   LIG    1        2.783  -2.441  -2.006  0.00  0.00    -0.388 OA
ATOM     16  H   LIG    1        2.189  -3.020  -1.509  0.00  0.00    +0.210 HD
ENDBRANCH  14  15
BRANCH  14  17
ATOM     17  C   LIG    1        4.725  -3.792  -1.515  0.00  0.00    +0.188 C 
BRANCH  17  18
ATOM     18  O   LIG    1        4.862  -4.226  -2.870  0.00  0.00    -0.392 OA
ATOM     19  H   LIG    1        5.244  -5.110  -2.963  0.00  0.00    +0.210 HD
ENDBRANCH  17  18
ENDBRANCH  14  17
ENDBRANCH  13  14
ENDBRANCH   6  13
TORSDOF 6
