REMARK  Name = ZINC00598034
REMARK                            x       y       z     vdW  Elec       q    Type
REMARK                         _______ _______ _______ _____ _____    ______ ____
ROOT
ATOM      1  C   LIG    1        0.440  -0.604   1.163  0.00  0.00    +0.147 C 
ATOM      2  C   LIG    1        1.192   0.135   2.031  0.00  0.00    +0.042 C 
ATOM      3  C   LIG    1        1.837  -0.497   3.102  0.00  0.00    +0.040 C 
ATOM      4  C   LIG    1        1.706  -1.896   3.278  0.00  0.00    +0.065 C 
ATOM      5  N   LIG    1        2.334  -2.479   4.312  0.00  0.00    -0.286 NA
ATOM      6  H   LIG    1        2.255  -3.437   4.447  0.00  0.00    +0.125 HD
ATOM      7  C   LIG    1        3.058  -1.758   5.146  0.00  0.00    +0.198 C 
ATOM      8  N   LIG    1        3.206  -0.442   5.017  0.00  0.00    -0.273 NA
ATOM      9  H   LIG    1        4.208  -0.272   4.930  0.00  0.00    +0.126 HD
ATOM     10  C   LIG    1        0.931  -2.634   2.376  0.00  0.00    +0.053 C 
ATOM     11  C   LIG    1        2.627   0.225   4.029  0.00  0.00    +0.126 C 
ATOM     12  C   LIG    1        0.302  -1.988   1.334  0.00  0.00    +0.148 C 
ENDROOT
BRANCH   7  13
ATOM     13  N   LIG    1        3.689  -2.396   6.199  0.00  0.00    -0.272 NA
ATOM     14  C   LIG    1        3.664  -3.861   6.309  0.00  0.00    +0.106 C 
ATOM     15  C   LIG    1        5.108  -4.371   6.399  0.00  0.00    +0.123 C 
ATOM     16  N   LIG    1        5.816  -3.596   7.428  0.00  0.00    -0.297 N 
ATOM     17  C   LIG    1        6.431  -4.217   8.453  0.00  0.00    +0.245 C 
ATOM     18  O   LIG    1        6.403  -5.427   8.534  0.00  0.00    -0.273 OA
ATOM     19  C   LIG    1        5.841  -2.130   7.318  0.00  0.00    +0.123 C 
ATOM     20  C   LIG    1        4.402  -1.621   7.224  0.00  0.00    +0.106 C 
BRANCH  17  21
ATOM     21  C   LIG    1        7.152  -3.409   9.501  0.00  0.00    +0.204 C 
ATOM     22  C   LIG    1        8.360  -2.687   8.865  0.00  0.00    +0.043 C 
ATOM     23  C   LIG    1        9.441  -2.815   9.973  0.00  0.00    +0.031 C 
ATOM     24  C   LIG    1        9.090  -4.202  10.568  0.00  0.00    +0.161 C 
ATOM     25  O   LIG    1        7.654  -4.277  10.524  0.00  0.00    -0.367 OA
ENDBRANCH  17  21
ENDBRANCH   7  13
BRANCH  11  26
ATOM     26  N   LIG    1        2.790   1.589   3.907  0.00  0.00    -0.315 NA
ATOM     27  H   LIG    1        3.334   2.072   4.549  0.00  0.00    +0.120 HD
ATOM     28  H   LIG    1        2.361   2.066   3.179  0.00  0.00    +0.120 HD
ENDBRANCH  11  26
BRANCH   1  30
ATOM     29  C   LIG    1       -0.008   1.423   0.003  0.00  0.00    +0.194 C 
ATOM     30  O   LIG    1       -0.187   0.011   0.124  0.00  0.00    -0.377 OA
ENDBRANCH   1  30
BRANCH  12  31
ATOM     31  O   LIG    1       -0.456  -2.701   0.461  0.00  0.00    -0.377 OA
ATOM     32  C   LIG    1       -0.558  -4.108   0.688  0.00  0.00    +0.194 C 
ENDBRANCH  12  31
TORSDOF 5
