REMARK  Name = ZINC00602847
REMARK                            x       y       z     vdW  Elec       q    Type
REMARK                         _______ _______ _______ _____ _____    ______ ____
ROOT
ATOM      1  N   LIG    1        1.312  -3.746   7.674  0.00  0.00    -0.246 N 
ATOM      2  C   LIG    1        1.018  -2.893   8.695  0.00  0.00    +0.165 A 
ATOM      3  C   LIG    1        0.046  -3.531   9.481  0.00  0.00    +0.083 A 
ATOM      4  C   LIG    1       -0.455  -2.827  10.661  0.00  0.00    +0.172 A 
ATOM      5  N   LIG    1       -1.337  -3.108  11.597  0.00  0.00    -0.203 NA
ATOM      6  C   LIG    1       -1.414  -2.089  12.463  0.00  0.00    +0.218 A 
ATOM      7  N   LIG    1       -0.579  -1.137  12.091  0.00  0.00    -0.139 NA
ATOM      8  N   LIG    1        0.059  -1.584  10.926  0.00  0.00    -0.181 N 
ATOM      9  C   LIG    1        1.003  -1.046  10.101  0.00  0.00    +0.218 A 
ATOM     10  C   LIG    1       -0.217  -4.779   8.888  0.00  0.00    +0.148 A 
ATOM     11  N   LIG    1        1.454  -1.674   9.043  0.00  0.00    -0.195 NA
ATOM     12  N   LIG    1        0.527  -4.896   7.822  0.00  0.00    -0.177 NA
ENDROOT
BRANCH   6  13
ATOM     13  C   LIG    1       -2.296  -2.038  13.648  0.00  0.00    +0.173 A 
ATOM     14  C   LIG    1       -2.388  -1.008  14.530  0.00  0.00    +0.053 A 
ATOM     15  C   LIG    1       -3.344  -1.384  15.495  0.00  0.00    +0.042 A 
ATOM     16  C   LIG    1       -3.784  -2.612  15.157  0.00  0.00    +0.196 A 
ATOM     17  O   LIG    1       -3.153  -3.002  14.038  0.00  0.00    -0.460 OA
ENDBRANCH   6  13
BRANCH   9  18
ATOM     18  N   LIG    1        1.501   0.203  10.391  0.00  0.00    -0.327 N 
ATOM     19  H   LIG    1        2.173   0.603   9.816  0.00  0.00    +0.145 HD
ATOM     20  H   LIG    1        1.181   0.684  11.169  0.00  0.00    +0.145 HD
ENDBRANCH   9  18
BRANCH   1  21
ATOM     21  C   LIG    1        2.279  -3.499   6.601  0.00  0.00    +0.146 C 
BRANCH  21  22
ATOM     22  C   LIG    1        1.577  -2.808   5.431  0.00  0.00    +0.028 C 
BRANCH  22  23
ATOM     23  C   LIG    1        2.587  -2.550   4.310  0.00  0.00    +0.037 C 
BRANCH  23  27
ATOM     24  C   LIG    1        0.626  -0.618   1.042  0.00  0.00    +0.120 A 
ATOM     25  C   LIG    1        1.202   0.138   2.051  0.00  0.00    +0.046 A 
ATOM     26  C   LIG    1        1.835  -0.488   3.107  0.00  0.00    +0.007 A 
ATOM     27  C   LIG    1        1.895  -1.869   3.158  0.00  0.00    -0.047 A 
ATOM     28  C   LIG    1        1.322  -2.625   2.152  0.00  0.00    +0.007 A 
ATOM     29  C   LIG    1        0.682  -2.003   1.098  0.00  0.00    +0.046 A 
BRANCH  24  31
ATOM     30  C   LIG    1       -0.017   1.425   0.010  0.00  0.00    +0.277 C 
ATOM     31  O   LIG    1        0.002  -0.004   0.002  0.00  0.00    -0.495 OA
ENDBRANCH  24  31
ENDBRANCH  23  27
ENDBRANCH  22  23
ENDBRANCH  21  22
ENDBRANCH   1  21
TORSDOF 7
