REMARK  Name = ZINC00409159
REMARK                            x       y       z     vdW  Elec       q    Type
REMARK                         _______ _______ _______ _____ _____    ______ ____
ROOT
ATOM      1  C   LIG    1        2.021   5.378  -1.186  0.00  0.00    +0.000 A 
ATOM      2  C   LIG    1        2.088   6.062   0.014  0.00  0.00    +0.001 A 
ATOM      3  C   LIG    1        2.043   5.368   1.209  0.00  0.00    +0.020 A 
ATOM      4  C   LIG    1        1.929   3.989   1.203  0.00  0.00    +0.045 A 
ATOM      5 CL   LIG    1        1.873   3.116   2.703  0.00  0.00    -0.083 Cl
ATOM      6  C   LIG    1        1.861   3.305   0.002  0.00  0.00    -0.020 A 
ATOM      7  C   LIG    1        1.912   4.000  -1.192  0.00  0.00    +0.006 A 
ENDROOT
BRANCH   6   8
ATOM      8  C   LIG    1        1.738   1.804  -0.005  0.00  0.00    +0.102 C 
BRANCH   8   9
ATOM      9  S   LIG    1       -0.016   1.341   0.009  0.00  0.00    -0.174 S 
ATOM     10  H   LIG    1        0.002  -0.004   0.002  0.00  0.00    +0.102 HD
ENDBRANCH   8   9
ENDBRANCH   6   8
TORSDOF 2
