REMARK  Name = ZINC00620751
REMARK                            x       y       z     vdW  Elec       q    Type
REMARK                         _______ _______ _______ _____ _____    ______ ____
ROOT
ATOM      1  N   LIG    1        1.234  -2.082  -0.022  0.00  0.00    -0.248 N 
ATOM      2  C   LIG    1        1.253  -2.841   1.239  0.00  0.00    +0.144 C 
ATOM      3  C   LIG    1        1.276  -4.352   1.138  0.00  0.00    +0.016 C 
ATOM      4  C   LIG    1        1.278  -4.898  -0.081  0.00  0.00    +0.040 C 
ATOM      5  N   LIG    1        1.260  -4.102  -1.223  0.00  0.00    -0.269 N 
ATOM      6  H   LIG    1        1.262  -4.539  -2.089  0.00  0.00    +0.156 HD
ATOM      7  C   LIG    1        1.233  -2.763  -1.185  0.00  0.00    +0.311 C 
ATOM      8  O   LIG    1        1.213  -2.144  -2.231  0.00  0.00    -0.252 OA
ENDROOT
BRANCH   1  13
ATOM      9  C   LIG    1       -0.017   1.378   0.010  0.00  0.00    +0.002 A 
ATOM     10  C   LIG    1        1.169   2.089   0.002  0.00  0.00    +0.004 A 
ATOM     11  C   LIG    1        2.380   1.421  -0.013  0.00  0.00    +0.047 A 
ATOM     12  C   LIG    1        2.407   0.036  -0.022  0.00  0.00    +0.138 A 
ATOM     13  C   LIG    1        1.213  -0.681  -0.013  0.00  0.00    +0.079 A 
ATOM     14  C   LIG    1        0.002  -0.004   0.002  0.00  0.00    +0.027 A 
BRANCH  12  15
ATOM     15  O   LIG    1        3.597  -0.622  -0.038  0.00  0.00    -0.505 OA
ATOM     16  H   LIG    1        3.950  -0.818   0.841  0.00  0.00    +0.292 HD
ENDBRANCH  12  15
ENDBRANCH   1  13
BRANCH   4  17
ATOM     17  C   LIG    1        1.300  -6.373  -0.220  0.00  0.00    -0.002 A 
ATOM     18  C   LIG    1        1.312  -7.183   0.916  0.00  0.00    +0.010 A 
ATOM     19  C   LIG    1        1.333  -8.555   0.780  0.00  0.00    +0.003 A 
ATOM     20  C   LIG    1        1.341  -9.129  -0.479  0.00  0.00    +0.032 A 
ATOM     21  C   LIG    1        1.329  -8.331  -1.609  0.00  0.00    +0.122 A 
ATOM     22  C   LIG    1        1.302  -6.957  -1.486  0.00  0.00    +0.042 A 
BRANCH  21  23
ATOM     23  N   LIG    1        1.338  -8.952  -2.952  0.00  0.00    +0.006 N 
ATOM     24  O   LIG    1        1.356 -10.156  -3.061  0.00  0.00    -0.130 OA
BRANCH  23  25
ATOM     25  O   LIG    1        1.327  -8.256  -3.940  0.00  0.00    -0.396 OA
ATOM     26  H   LIG    1        1.312  -7.323  -3.856  0.00  0.00    +0.329 HD
ENDBRANCH  23  25
ENDBRANCH  21  23
ENDBRANCH   4  17
TORSDOF 5
