REMARK  Name = ZINC00640503
REMARK                            x       y       z     vdW  Elec       q    Type
REMARK                         _______ _______ _______ _____ _____    ______ ____
ROOT
ATOM      1  N   LIG    1        1.651  -4.999  -0.034  0.00  0.00    -0.195 N 
ENDROOT
BRANCH   1   2
ATOM      2  C   LIG    1        2.317  -5.191  -1.254  0.00  0.00    +0.093 A 
ATOM      3  C   LIG    1        2.389  -6.459  -1.813  0.00  0.00    +0.030 A 
ATOM      4  C   LIG    1        3.046  -6.649  -3.014  0.00  0.00    +0.025 A 
ATOM      5  C   LIG    1        3.633  -5.572  -3.664  0.00  0.00    +0.028 A 
ATOM      6  C   LIG    1        3.562  -4.302  -3.108  0.00  0.00    +0.070 A 
ATOM      7  C   LIG    1        2.900  -4.109  -1.907  0.00  0.00    +0.141 A 
BRANCH   5   8
ATOM      8  N   LIG    1        4.298  -5.767  -4.881  0.00  0.00    -0.358 N 
ATOM      9  H   LIG    1        4.708  -5.015  -5.335  0.00  0.00    +0.142 HD
ATOM     10  H   LIG    1        4.348  -6.654  -5.269  0.00  0.00    +0.142 HD
ENDBRANCH   5   8
BRANCH   7  11
ATOM     11  O   LIG    1        2.825  -2.864  -1.364  0.00  0.00    -0.505 OA
ATOM     12  H   LIG    1        3.558  -2.649  -0.771  0.00  0.00    +0.292 HD
ENDBRANCH   7  11
ENDBRANCH   1   2
BRANCH   1  13
ATOM     13  S   LIG    1        0.063  -4.530  -0.023  0.00  0.00    +0.075 S 
ATOM     14  O   LIG    1       -0.490  -4.937  -1.267  0.00  0.00    -0.150 OA
ATOM     15  O   LIG    1       -0.476  -4.950   1.223  0.00  0.00    -0.150 OA
BRANCH  13  20
ATOM     16  C   LIG    1       -0.018   1.503   0.010  0.00  0.00    +0.044 C 
ATOM     17  C   LIG    1        0.002  -0.004   0.002  0.00  0.00    -0.050 A 
ATOM     18  C   LIG    1        0.006  -0.689  -1.199  0.00  0.00    +0.005 A 
ATOM     19  C   LIG    1        0.025  -2.071  -1.206  0.00  0.00    +0.029 A 
ATOM     20  C   LIG    1        0.040  -2.768  -0.013  0.00  0.00    +0.109 A 
ATOM     21  C   LIG    1        0.037  -2.084   1.188  0.00  0.00    +0.029 A 
ATOM     22  C   LIG    1        0.023  -0.702   1.195  0.00  0.00    +0.005 A 
ENDBRANCH  13  20
ENDBRANCH   1  13
BRANCH   1  23
ATOM     23  C   LIG    1        2.360  -5.214   1.229  0.00  0.00    +0.166 C 
BRANCH  23  24
ATOM     24  C   LIG    1        2.305  -6.675   1.595  0.00  0.00    -0.028 A 
ATOM     25  C   LIG    1        1.260  -7.157   2.361  0.00  0.00    +0.005 A 
ATOM     26  C   LIG    1        1.209  -8.497   2.696  0.00  0.00    +0.000 A 
ATOM     27  C   LIG    1        2.204  -9.355   2.265  0.00  0.00    +0.000 A 
ATOM     28  C   LIG    1        3.248  -8.873   1.498  0.00  0.00    +0.000 A 
ATOM     29  C   LIG    1        3.297  -7.534   1.160  0.00  0.00    +0.005 A 
ENDBRANCH  23  24
ENDBRANCH   1  23
TORSDOF 7
