REMARK  Name = ZINC00702199
REMARK                            x       y       z     vdW  Elec       q    Type
REMARK                         _______ _______ _______ _____ _____    ______ ____
ROOT
ATOM      1  C   LIG    1        3.660   2.860  -1.200  0.00  0.00    +0.105 C 
ATOM      2  N   LIG    1        3.547   2.078   0.038  0.00  0.00    -0.298 NA
ENDROOT
BRANCH   2   3
ATOM      3  C   LIG    1        2.361   1.360   0.066  0.00  0.00    +0.065 C 
ATOM      4  C   LIG    1        1.135   2.006   0.089  0.00  0.00    +0.049 C 
ATOM      5  CA  LIG    1       -0.042   1.252   0.116  0.00  0.00    +0.165 C 
ATOM      6  N   LIG    1       -0.087  -0.108   0.123  0.00  0.00    -0.301 NA
ATOM      7  H   LIG    1       -0.974  -0.625   0.143  0.00  0.00    +0.123 HD
ATOM      8  C   LIG    1        1.129  -0.748   0.100  0.00  0.00    +0.062 C 
ATOM      9  C   LIG    1        1.136  -2.155   0.106  0.00  0.00    +0.038 C 
ATOM     10  C   LIG    1        2.321  -2.826   0.087  0.00  0.00    +0.083 C 
ATOM     11 CL   LIG    1        2.320  -4.562   0.096  0.00  0.00    -0.122 Cl
ATOM     12  C   LIG    1        3.535  -2.141   0.059  0.00  0.00    +0.039 C 
ATOM     13  C   LIG    1        3.568  -0.778   0.051  0.00  0.00    +0.088 C 
ATOM     14 CL   LIG    1        5.089   0.058   0.016  0.00  0.00    -0.121 Cl
ATOM     15  C   LIG    1        2.366  -0.054   0.072  0.00  0.00    +0.041 C 
BRANCH   5  16
ATOM     16  C   LIG    1       -1.348   1.952   0.134  0.00  0.00    +0.322 C 
ATOM     17  O   LIG    1       -1.387   3.166   0.130  0.00  0.00    -0.249 OA
BRANCH  16  18
ATOM     18  OXT LIG    1       -2.492   1.242   0.155  0.00  0.00    -0.480 OA
ATOM     19  HXT LIG    1       -2.462   0.305   0.158  0.00  0.00    +0.295 HD
ENDBRANCH  16  18
ENDBRANCH   5  16
ENDBRANCH   2   3
BRANCH   2  20
ATOM     20  C   LIG    1        3.667   2.942   1.220  0.00  0.00    +0.119 C 
BRANCH  20  21
ATOM     21  C   LIG    1        5.059   3.516   1.284  0.00  0.00    -0.032 A 
ATOM     22  C   LIG    1        5.340   4.719   0.662  0.00  0.00    +0.005 A 
ATOM     23  C   LIG    1        6.616   5.248   0.717  0.00  0.00    +0.001 A 
ATOM     24  C   LIG    1        7.615   4.578   1.395  0.00  0.00    +0.015 A 
ATOM     25  C   LIG    1        7.337   3.369   2.022  0.00  0.00    +0.013 A 
ATOM     26  C   LIG    1        6.051   2.842   1.968  0.00  0.00    +0.020 A 
BRANCH  25  27
ATOM     27  S   LIG    1        8.608   2.510   2.888  0.00  0.00    -0.089 S 
BRANCH  27  28
ATOM     28  C   LIG    1        9.236   1.369   1.702  0.00  0.00    +0.013 A 
ATOM     29  C   LIG    1        8.775   1.404   0.392  0.00  0.00    +0.018 A 
ATOM     30  C   LIG    1        9.272   0.512  -0.538  0.00  0.00    +0.047 A 
ATOM     31  C   LIG    1       10.222  -0.426  -0.162  0.00  0.00    +0.120 A 
ATOM     32  C   LIG    1       10.679  -0.465   1.147  0.00  0.00    +0.047 A 
ATOM     33  C   LIG    1       10.188   0.429   2.077  0.00  0.00    +0.018 A 
BRANCH  31  34
ATOM     34  O   LIG    1       10.707  -1.307  -1.078  0.00  0.00    -0.495 OA
ATOM     35  C   LIG    1       10.192  -1.210  -2.407  0.00  0.00    +0.277 C 
ENDBRANCH  31  34
ENDBRANCH  27  28
ENDBRANCH  25  27
ENDBRANCH  20  21
ENDBRANCH   2  20
TORSDOF 8
