REMARK  Name = ZINC00522492
REMARK                            x       y       z     vdW  Elec       q    Type
REMARK                         _______ _______ _______ _____ _____    ______ ____
ROOT
ATOM      1  C   LIG    1        3.699  -0.689  -0.038  0.00  0.00    -0.016 A 
ATOM      2  C   LIG    1        4.896   0.025  -0.041  0.00  0.00    +0.008 A 
ATOM      3  C   LIG    1        6.101  -0.648  -0.057  0.00  0.00    +0.002 A 
ATOM      4  C   LIG    1        6.125  -2.030  -0.071  0.00  0.00    +0.024 A 
ATOM      5  C   LIG    1        4.937  -2.749  -0.069  0.00  0.00    +0.045 A 
ATOM      6  C   LIG    1        3.723  -2.081  -0.046  0.00  0.00    +0.032 A 
ENDROOT
BRANCH   5   7
ATOM      7  N   LIG    1        4.966  -4.151  -0.084  0.00  0.00    -0.203 N 
ATOM      8  C   LIG    1        3.883  -4.949  -0.089  0.00  0.00    +0.250 C 
ATOM      9  C   LIG    1        4.340  -6.356  -0.106  0.00  0.00    +0.073 C 
ATOM     10  C   LIG    1        5.683  -6.328  -0.110  0.00  0.00    +0.073 C 
ATOM     11  O   LIG    1        2.728  -4.577  -0.081  0.00  0.00    -0.270 OA
ATOM     12  C   LIG    1        6.081  -4.903  -0.100  0.00  0.00    +0.250 C 
ATOM     13  O   LIG    1        7.221  -4.484  -0.105  0.00  0.00    -0.270 OA
ENDBRANCH   5   7
BRANCH   1  17
ATOM     14  C   LIG    1       -0.017   1.379   0.010  0.00  0.00    +0.000 A 
ATOM     15  C   LIG    1        1.169   2.092   0.002  0.00  0.00    +0.001 A 
ATOM     16  C   LIG    1        2.377   1.426  -0.013  0.00  0.00    +0.008 A 
ATOM     17  C   LIG    1        2.402   0.033  -0.021  0.00  0.00    -0.018 A 
ATOM     18  C   LIG    1        1.205  -0.680  -0.013  0.00  0.00    +0.008 A 
ATOM     19  C   LIG    1        0.002  -0.004   0.002  0.00  0.00    +0.001 A 
ENDBRANCH   1  17
TORSDOF 2
