REMARK  Name = ZINC00391915
REMARK                            x       y       z     vdW  Elec       q    Type
REMARK                         _______ _______ _______ _____ _____    ______ ____
ROOT
ATOM      1  C   LIG    1       -0.017   1.394   0.010  0.00  0.00    +0.035 A 
ATOM      2  C   LIG    1        1.184   2.087   0.002  0.00  0.00    +0.112 A 
ATOM      3  N   LIG    1        2.333   1.450  -0.012  0.00  0.00    -0.248 NA
ATOM      4  CA  LIG    1        2.403   0.124  -0.020  0.00  0.00    +0.148 A 
ATOM      5  C   LIG    1        1.244  -0.648  -0.014  0.00  0.00    +0.050 A 
ATOM      6  C   LIG    1        0.002  -0.004   0.002  0.00  0.00    +0.062 A 
ENDROOT
BRANCH   4   7
ATOM      7  C   LIG    1        3.725  -0.539  -0.036  0.00  0.00    +0.355 C 
ATOM      8  O   LIG    1        4.746   0.133  -0.043  0.00  0.00    -0.243 OA
BRANCH   7   9
ATOM      9  OXT LIG    1        3.796  -1.759  -0.044  0.00  0.00    -0.476 OA
ATOM     10  HXT LIG    1        3.014  -2.274  -0.039  0.00  0.00    +0.295 HD
ENDBRANCH   7   9
ENDBRANCH   4   7
BRANCH   6  11
ATOM     11  C   LIG    1       -1.257  -0.781   0.010  0.00  0.00    +0.337 C 
ATOM     12  O   LIG    1       -2.333  -0.201   0.024  0.00  0.00    -0.245 OA
BRANCH  11  13
ATOM     13  O   LIG    1       -1.221  -2.003   0.003  0.00  0.00    -0.477 OA
ATOM     14  H   LIG    1       -0.396  -2.447  -0.007  0.00  0.00    +0.295 HD
ENDBRANCH  11  13
ENDBRANCH   6  11
TORSDOF 4
