REMARK  Name = ZINC00396802
REMARK                            x       y       z     vdW  Elec       q    Type
REMARK                         _______ _______ _______ _____ _____    ______ ____
ROOT
ATOM      1  C   LIG    1       -0.493  -2.353  -0.008  0.00  0.00    +0.001 A 
ATOM      2  C   LIG    1        0.852  -2.686  -0.008  0.00  0.00    +0.004 A 
ATOM      3  C   LIG    1        1.796  -1.679  -0.003  0.00  0.00    -0.039 A 
ATOM      4  C   LIG    1        1.347  -0.360  -0.004  0.00  0.00    -0.007 A 
ATOM      5  C   LIG    1        0.002  -0.004   0.002  0.00  0.00    +0.030 A 
ATOM      6  C   LIG    1       -0.018   1.482   0.010  0.00  0.00    +0.199 C 
ATOM      7  C   LIG    1        1.402   1.936  -0.001  0.00  0.00    +0.087 C 
ATOM      8  O   LIG    1       -1.003   2.191   0.019  0.00  0.00    -0.286 OA
ATOM      9  C   LIG    1        2.201   0.852  -0.015  0.00  0.00    -0.023 C 
ATOM     10  C   LIG    1        3.701   0.664  -0.049  0.00  0.00    +0.037 C 
ATOM     11  C   LIG    1        3.981  -0.697  -0.703  0.00  0.00    +0.009 C 
ATOM     12  C   LIG    1        3.288  -1.861   0.007  0.00  0.00    +0.036 C 
ATOM     13  C   LIG    1       -0.928  -1.026  -0.002  0.00  0.00    +0.012 A 
ENDROOT
BRANCH   7  14
ATOM     14  C   LIG    1        1.854   3.332   0.002  0.00  0.00    +0.246 C 
ATOM     15  N   LIG    1        0.951   4.333   0.016  0.00  0.00    -0.325 N 
ATOM     16  H   LIG    1        1.249   5.255   0.018  0.00  0.00    +0.145 HD
ATOM     17  H   LIG    1        0.002   4.130   0.025  0.00  0.00    +0.145 HD
ATOM     18  O   LIG    1        3.044   3.587  -0.008  0.00  0.00    -0.270 OA
ENDBRANCH   7  14
TORSDOF 1
