REMARK  Name = ZINC00639843
REMARK                            x       y       z     vdW  Elec       q    Type
REMARK                         _______ _______ _______ _____ _____    ______ ____
ROOT
ATOM      1  N   LIG    1       -1.254   7.246  -0.153  0.00  0.00    -0.269 N 
ATOM      2  H   LIG    1       -0.418   7.736  -0.114  0.00  0.00    +0.156 HD
ATOM      3  C   LIG    1       -1.245   5.900  -0.222  0.00  0.00    +0.308 C 
ATOM      4  N   LIG    1       -0.080   5.229  -0.131  0.00  0.00    -0.269 N 
ATOM      5  H   LIG    1        0.742   5.708   0.059  0.00  0.00    +0.156 HD
ATOM      6  O   LIG    1       -2.287   5.291  -0.365  0.00  0.00    -0.252 OA
ENDROOT
BRANCH   1  14
ATOM      7  C   LIG    1       -2.566   9.191  -0.726  0.00  0.00    +0.025 A 
ATOM      8  C   LIG    1       -3.770   9.869  -0.716  0.00  0.00    +0.023 A 
ATOM      9  C   LIG    1       -4.878   9.306  -0.109  0.00  0.00    +0.059 A 
ATOM     10 CL   LIG    1       -6.387  10.164  -0.091  0.00  0.00    -0.082 Cl
ATOM     11  C   LIG    1       -4.785   8.058   0.485  0.00  0.00    +0.061 A 
ATOM     12 CL   LIG    1       -6.177   7.353   1.246  0.00  0.00    -0.082 Cl
ATOM     13  C   LIG    1       -3.584   7.373   0.472  0.00  0.00    +0.044 A 
ATOM     14  C   LIG    1       -2.472   7.937  -0.138  0.00  0.00    +0.036 A 
ENDBRANCH   1  14
BRANCH   4  15
ATOM     15  C   LIG    1       -0.055   3.841  -0.311  0.00  0.00    +0.038 A 
ATOM     16  C   LIG    1       -0.940   3.240  -1.196  0.00  0.00    +0.043 A 
ATOM     17  C   LIG    1       -0.914   1.869  -1.372  0.00  0.00    +0.044 A 
ATOM     18 CL   LIG    1       -2.019   1.115  -2.478  0.00  0.00    -0.083 Cl
ATOM     19  C   LIG    1       -0.009   1.096  -0.666  0.00  0.00    +0.040 A 
ATOM     20  C   LIG    1        0.870   1.693   0.221  0.00  0.00    +0.044 A 
ATOM     21 CL   LIG    1        1.999   0.720   1.111  0.00  0.00    -0.083 Cl
ATOM     22  C   LIG    1        0.853   3.064   0.396  0.00  0.00    +0.043 A 
ENDBRANCH   4  15
TORSDOF 2
