REMARK  Name = ZINC00581684
REMARK                            x       y       z     vdW  Elec       q    Type
REMARK                         _______ _______ _______ _____ _____    ______ ____
ROOT
ATOM      1  C   LIG    1       -0.392   1.320   0.283  0.00  0.00    +0.045 C 
ATOM      2  C   LIG    1       -0.187  -0.162   0.097  0.00  0.00    -0.029 A 
ATOM      3  C   LIG    1       -0.326  -0.726  -1.157  0.00  0.00    +0.007 A 
ATOM      4  C   LIG    1       -0.139  -2.083  -1.332  0.00  0.00    +0.024 A 
ATOM      5  C   LIG    1        0.190  -2.886  -0.247  0.00  0.00    +0.035 A 
ATOM      6  C   LIG    1        0.332  -2.323   1.013  0.00  0.00    +0.047 A 
ATOM      7  C   LIG    1        0.148  -0.958   1.185  0.00  0.00    +0.038 A 
ENDROOT
BRANCH   5   8
ATOM      8  N   LIG    1        0.379  -4.260  -0.424  0.00  0.00    -0.281 N 
ATOM      9  H   LIG    1        0.099  -4.881   0.266  0.00  0.00    +0.155 HD
ATOM     10  C   LIG    1        0.950  -4.721  -1.555  0.00  0.00    +0.248 C 
ATOM     11  O   LIG    1        1.225  -3.952  -2.454  0.00  0.00    -0.270 OA
BRANCH  10  12
ATOM     12  C   LIG    1        1.241  -6.163  -1.701  0.00  0.00    +0.039 A 
ATOM     13  C   LIG    1        0.920  -7.051  -0.671  0.00  0.00    +0.013 A 
ATOM     14  C   LIG    1        1.193  -8.396  -0.810  0.00  0.00    +0.003 A 
ATOM     15  C   LIG    1        1.784  -8.871  -1.966  0.00  0.00    +0.023 A 
ATOM     16  C   LIG    1        2.107  -7.996  -2.997  0.00  0.00    +0.030 A 
ATOM     17  C   LIG    1        1.832  -6.643  -2.870  0.00  0.00    +0.036 A 
BRANCH  16  18
ATOM     18  N   LIG    1        2.704  -8.481  -4.163  0.00  0.00    -0.336 N 
ATOM     19  C   LIG    1        3.045  -7.559  -5.249  0.00  0.00    +0.129 C 
ATOM     20  C   LIG    1        2.990  -9.912  -4.299  0.00  0.00    +0.129 C 
ENDBRANCH  16  18
ENDBRANCH  10  12
ENDBRANCH   5   8
BRANCH   7  21
ATOM     21  N   LIG    1        0.295  -0.386   2.452  0.00  0.00    -0.281 N 
ATOM     22  H   LIG    1        0.572   0.540   2.537  0.00  0.00    +0.155 HD
ATOM     23  C   LIG    1        0.053  -1.120   3.556  0.00  0.00    +0.248 C 
ATOM     24  O   LIG    1       -0.216  -2.302   3.453  0.00  0.00    -0.270 OA
BRANCH  23  25
ATOM     25  C   LIG    1        0.115  -0.491   4.889  0.00  0.00    +0.037 A 
ATOM     26  C   LIG    1        0.419   0.867   5.010  0.00  0.00    +0.016 A 
ATOM     27  C   LIG    1        0.476   1.450   6.256  0.00  0.00    +0.046 A 
ATOM     28  C   LIG    1        0.232   0.689   7.393  0.00  0.00    +0.117 A 
ATOM     29  C   LIG    1       -0.070  -0.662   7.278  0.00  0.00    +0.046 A 
ATOM     30  C   LIG    1       -0.135  -1.252   6.035  0.00  0.00    +0.016 A 
BRANCH  28  31
ATOM     31  O   LIG    1        0.290   1.268   8.620  0.00  0.00    -0.507 OA
ATOM     32  H   LIG    1       -0.553   1.632   8.922  0.00  0.00    +0.292 HD
ENDBRANCH  28  31
ENDBRANCH  23  25
ENDBRANCH   7  21
TORSDOF 6
