REMARK  Name = ZINC00360347
REMARK                            x       y       z     vdW  Elec       q    Type
REMARK                         _______ _______ _______ _____ _____    ______ ____
ROOT
ATOM      1  C   LIG    1       -3.485   2.838   0.038  0.00  0.00    +0.129 A 
ATOM      2  C   LIG    1       -3.006   4.140   0.098  0.00  0.00    +0.047 A 
ATOM      3  C   LIG    1       -1.645   4.387   0.077  0.00  0.00    +0.017 A 
ATOM      4  C   LIG    1       -0.753   3.327  -0.004  0.00  0.00    +0.049 A 
ATOM      5  C   LIG    1       -1.237   2.003  -0.070  0.00  0.00    +0.053 A 
ATOM      6  C   LIG    1       -0.040   1.139  -0.142  0.00  0.00    +0.251 C 
ATOM      7  N   LIG    1        1.054   1.921  -0.126  0.00  0.00    -0.248 N 
ATOM      8  H   LIG    1        1.966   1.592  -0.167  0.00  0.00    +0.158 HD
ATOM      9  O   LIG    1       -0.043  -0.074  -0.209  0.00  0.00    -0.270 OA
ATOM     10  C   LIG    1        0.719   3.221  -0.047  0.00  0.00    +0.251 C 
ATOM     11  O   LIG    1        1.497   4.154  -0.015  0.00  0.00    -0.270 OA
ATOM     12  C   LIG    1       -2.599   1.766  -0.043  0.00  0.00    +0.060 A 
ENDROOT
BRANCH   1  13
ATOM     13  O   LIG    1       -4.822   2.610   0.059  0.00  0.00    -0.456 OA
BRANCH  13  17
ATOM     14  C   LIG    1       -6.413   0.723   3.364  0.00  0.00    +0.000 A 
ATOM     15  C   LIG    1       -7.214   0.987   2.268  0.00  0.00    +0.004 A 
ATOM     16  C   LIG    1       -6.684   1.619   1.160  0.00  0.00    +0.046 A 
ATOM     17  C   LIG    1       -5.347   1.988   1.147  0.00  0.00    +0.128 A 
ATOM     18  C   LIG    1       -4.544   1.717   2.246  0.00  0.00    +0.046 A 
ATOM     19  C   LIG    1       -5.080   1.089   3.354  0.00  0.00    +0.004 A 
ENDBRANCH  13  17
ENDBRANCH   1  13
TORSDOF 2
