REMARK  Name = ZINC00528358
REMARK                            x       y       z     vdW  Elec       q    Type
REMARK                         _______ _______ _______ _____ _____    ______ ____
ROOT
ATOM      1  S   LIG    1        2.026  -1.241  -3.788  0.00  0.00    +0.076 S 
ATOM      2  O   LIG    1        0.980  -0.310  -4.028  0.00  0.00    -0.150 OA
ATOM      3  O   LIG    1        2.722  -1.893  -4.842  0.00  0.00    -0.150 OA
ENDROOT
BRANCH   1  10
ATOM      4  C   LIG    1        0.647  -2.180  -1.622  0.00  0.00    +0.147 A 
ATOM      5  C   LIG    1        0.109  -3.182  -0.828  0.00  0.00    +0.048 A 
ATOM      6  C   LIG    1        0.274  -4.507  -1.182  0.00  0.00    +0.007 A 
ATOM      7  C   LIG    1        0.976  -4.835  -2.328  0.00  0.00    -0.048 A 
ATOM      8  C   LIG    1        1.155  -6.281  -2.713  0.00  0.00    +0.044 C 
ATOM      9  C   LIG    1        1.514  -3.838  -3.121  0.00  0.00    +0.036 A 
ATOM     10  C   LIG    1        1.347  -2.511  -2.773  0.00  0.00    +0.150 A 
BRANCH   4  11
ATOM     11  O   LIG    1        0.486  -0.876  -1.275  0.00  0.00    -0.490 OA
BRANCH  11  13
ATOM     12  C   LIG    1       -0.342   0.897   0.143  0.00  0.00    +0.048 C 
ATOM     13  C   LIG    1       -0.152  -0.612  -0.024  0.00  0.00    +0.226 C 
ENDBRANCH  11  13
ENDBRANCH   4  11
ENDBRANCH   1  10
BRANCH   1  14
ATOM     14  N   LIG    1        3.167  -0.451  -2.885  0.00  0.00    -0.215 N 
ATOM     15  H   LIG    1        3.046   0.486  -2.663  0.00  0.00    +0.174 HD
BRANCH  14  16
ATOM     16  C   LIG    1        4.303  -1.133  -2.442  0.00  0.00    +0.066 A 
ATOM     17  C   LIG    1        4.725  -1.019  -1.119  0.00  0.00    +0.027 A 
ATOM     18  C   LIG    1        5.857  -1.715  -0.728  0.00  0.00    +0.022 A 
ATOM     19  C   LIG    1        6.526  -2.492  -1.655  0.00  0.00    +0.111 A 
ATOM     20  N   LIG    1        6.101  -2.579  -2.900  0.00  0.00    -0.261 NA
ATOM     21  C   LIG    1        5.026  -1.938  -3.313  0.00  0.00    +0.135 A 
ENDBRANCH  14  16
ENDBRANCH   1  14
TORSDOF 5
