REMARK  Name = ZINC00390960
REMARK                            x       y       z     vdW  Elec       q    Type
REMARK                         _______ _______ _______ _____ _____    ______ ____
ROOT
ATOM      1  O   LIG    1        0.170  -4.798   3.369  0.00  0.00    -0.411 OA
ENDROOT
BRANCH   1   2
ATOM      2  C   LIG    1        0.176  -6.156   3.307  0.00  0.00    +0.135 A 
ATOM      3  C   LIG    1        0.185  -6.795   2.075  0.00  0.00    +0.046 A 
ATOM      4  C   LIG    1        0.192  -8.175   2.011  0.00  0.00    +0.005 A 
ATOM      5  C   LIG    1        0.190  -8.923   3.172  0.00  0.00    +0.023 A 
ATOM      6  C   LIG    1        0.181  -8.289   4.408  0.00  0.00    +0.040 A 
ATOM      7  C   LIG    1        0.180  -6.903   4.474  0.00  0.00    +0.069 A 
BRANCH   6   8
ATOM      8  N   LIG    1        0.178  -9.047   5.584  0.00  0.00    -0.251 N 
ATOM      9  H   LIG    1        0.660  -9.889   5.620  0.00  0.00    +0.158 HD
ATOM     10  C   LIG    1       -0.493  -8.609   6.667  0.00  0.00    +0.404 C 
ATOM     11  O   LIG    1       -1.177  -7.607   6.593  0.00  0.00    -0.226 OA
BRANCH  10  12
ATOM     12  O   LIG    1       -0.407  -9.280   7.831  0.00  0.00    -0.453 OA
ATOM     13  C   LIG    1       -1.145  -8.759   8.938  0.00  0.00    +0.282 C 
ENDBRANCH  10  12
ENDBRANCH   6   8
ENDBRANCH   1   2
BRANCH   1  16
ATOM     14  N   LIG    1        1.245  -2.847   4.066  0.00  0.00    -0.251 N 
ATOM     15  H   LIG    1        0.436  -2.339   3.900  0.00  0.00    +0.158 HD
ATOM     16  C   LIG    1        1.250  -4.184   3.890  0.00  0.00    +0.410 C 
ATOM     17  O   LIG    1        2.228  -4.834   4.201  0.00  0.00    -0.226 OA
BRANCH  14  23
ATOM     18  C   LIG    1        6.152  -2.694   4.340  0.00  0.00    +0.044 C 
ATOM     19  C   LIG    1        4.800  -2.097   4.634  0.00  0.00    -0.049 A 
ATOM     20  C   LIG    1        4.708  -0.900   5.321  0.00  0.00    +0.003 A 
ATOM     21  C   LIG    1        3.470  -0.349   5.593  0.00  0.00    +0.002 A 
ATOM     22  C   LIG    1        2.320  -0.992   5.178  0.00  0.00    +0.023 A 
ATOM     23  C   LIG    1        2.409  -2.193   4.487  0.00  0.00    +0.037 A 
ATOM     24  C   LIG    1        3.654  -2.742   4.211  0.00  0.00    +0.026 A 
ENDBRANCH  14  23
ENDBRANCH   1  16
TORSDOF 5
