REMARK  Name = ZINC00602832
REMARK                            x       y       z     vdW  Elec       q    Type
REMARK                         _______ _______ _______ _____ _____    ______ ____
ROOT
ATOM      1  N   LIG    1        7.509   5.751  -0.039  0.00  0.00    -0.312 N 
ATOM      2  H   LIG    1        6.686   6.264  -0.028  0.00  0.00    +0.149 HD
ATOM      3  C   LIG    1        7.464   4.404  -0.046  0.00  0.00    +0.223 C 
ATOM      4  O   LIG    1        8.493   3.763  -0.059  0.00  0.00    -0.275 OA
ENDROOT
BRANCH   1   9
ATOM      5  N   LIG    1       10.405   8.689   0.811  0.00  0.00    +0.382 N 
ATOM      6  H   LIG    1        9.666   9.153   1.351  0.00  0.00    -0.081 HD
ATOM      7  C   LIG    1       10.642   7.344   1.377  0.00  0.00    -0.077 C 
ATOM      8  C   LIG    1        9.322   6.570   1.387  0.00  0.00    +0.003 C 
ATOM      9  C   LIG    1        8.802   6.441  -0.047  0.00  0.00    +0.069 C 
ATOM     10  C   LIG    1        8.632   7.839  -0.648  0.00  0.00    +0.003 C 
ATOM     11  C   LIG    1        9.972   8.576  -0.598  0.00  0.00    -0.077 C 
BRANCH   5  12
ATOM     12  C   LIG    1       11.640   9.496   0.895  0.00  0.00    -0.043 C 
BRANCH  12  20
ATOM     13  C   LIG    1       11.820  10.257   3.273  0.00  0.00    +0.003 A 
ATOM     14  C   LIG    1       12.343  10.144   4.548  0.00  0.00    +0.021 A 
ATOM     15  C   LIG    1       13.268   9.156   4.831  0.00  0.00    +0.059 A 
ATOM     16 CL   LIG    1       13.930   9.018   6.430  0.00  0.00    -0.082 Cl
ATOM     17  C   LIG    1       13.667   8.277   3.838  0.00  0.00    +0.059 A 
ATOM     18 CL   LIG    1       14.828   7.035   4.192  0.00  0.00    -0.082 Cl
ATOM     19  C   LIG    1       13.139   8.387   2.565  0.00  0.00    +0.023 A 
ATOM     20  C   LIG    1       12.214   9.376   2.283  0.00  0.00    -0.062 A 
ENDBRANCH  12  20
ENDBRANCH   5  12
ENDBRANCH   1   9
BRANCH   3  21
ATOM     21  C   LIG    1        6.135   3.695  -0.037  0.00  0.00    +0.172 C 
BRANCH  21  22
ATOM     22  S   LIG    1        6.405   1.905  -0.050  0.00  0.00    -0.089 S 
BRANCH  22  23
ATOM     23  C   LIG    1        4.736   1.343  -0.037  0.00  0.00    +0.136 A 
ATOM     24  N   LIG    1        3.629   2.049  -0.022  0.00  0.00    -0.233 NA
ATOM     25  C   LIG    1        2.403   1.478  -0.013  0.00  0.00    +0.080 A 
ATOM     26  C   LIG    1        1.143   2.119   0.003  0.00  0.00    +0.031 A 
ATOM     27  C   LIG    1       -0.017   1.389   0.010  0.00  0.00    +0.025 A 
ATOM     28  C   LIG    1        0.002  -0.004   0.002  0.00  0.00    +0.026 A 
ATOM     29  C   LIG    1        1.224  -0.664  -0.013  0.00  0.00    +0.040 A 
ATOM     30  C   LIG    1        2.387   0.065  -0.021  0.00  0.00    +0.042 A 
ATOM     31  S   LIG    1        4.118  -0.334  -0.040  0.00  0.00    -0.061 S 
BRANCH  28  32
ATOM     32  N   LIG    1       -1.195  -0.729   0.010  0.00  0.00    -0.358 N 
ATOM     33  H   LIG    1       -1.175  -1.699   0.005  0.00  0.00    +0.142 HD
ATOM     34  H   LIG    1       -2.045  -0.262   0.021  0.00  0.00    +0.142 HD
ENDBRANCH  28  32
ENDBRANCH  22  23
ENDBRANCH  21  22
ENDBRANCH   3  21
TORSDOF 7
