REMARK  Name = ZINC00591392
REMARK                            x       y       z     vdW  Elec       q    Type
REMARK                         _______ _______ _______ _____ _____    ______ ____
ROOT
ATOM      1  C   LIG    1        0.210   3.511  -3.762  0.00  0.00    +0.044 A 
ATOM      2  C   LIG    1        0.788   4.204  -2.695  0.00  0.00    +0.062 A 
ATOM      3  C   LIG    1        0.992   5.568  -2.787  0.00  0.00    +0.166 A 
ATOM      4  C   LIG    1        0.621   6.251  -3.942  0.00  0.00    +0.204 A 
ATOM      5  C   LIG    1        0.045   5.564  -5.007  0.00  0.00    +0.166 A 
ATOM      6  C   LIG    1       -0.155   4.198  -4.922  0.00  0.00    +0.062 A 
ENDROOT
BRANCH   1   9
ATOM      7  N   LIG    1        0.345   1.392  -2.546  0.00  0.00    -0.313 N 
ATOM      8  H   LIG    1        0.742   1.873  -1.804  0.00  0.00    +0.149 HD
ATOM      9  C   LIG    1       -0.008   2.054  -3.666  0.00  0.00    +0.244 C 
ATOM     10  O   LIG    1       -0.506   1.452  -4.597  0.00  0.00    -0.270 OA
BRANCH   7  11
ATOM     11  C   LIG    1        0.128  -0.054  -2.451  0.00  0.00    +0.092 C 
BRANCH  11  12
ATOM     12  C   LIG    1        0.715  -0.572  -1.137  0.00  0.00    -0.050 C 
ATOM     13  C   LIG    1        2.244  -0.366  -1.123  0.00  0.00    -0.010 C 
ATOM     14  C   LIG    1        2.790  -1.623  -0.401  0.00  0.00    -0.001 C 
ATOM     15  C   LIG    1        1.866  -2.748  -0.928  0.00  0.00    -0.001 C 
ATOM     16  C   LIG    1        0.475  -2.087  -1.014  0.00  0.00    -0.010 C 
BRANCH  12  18
ATOM     17  C   LIG    1       -1.343  -0.137   0.016  0.00  0.00    -0.096 C 
ATOM     18  N   LIG    1        0.102   0.129  -0.001  0.00  0.00    +0.381 N 
ATOM     19  H   LIG    1        0.261   1.121  -0.093  0.00  0.00    -0.082 HD
ATOM     20  C   LIG    1        0.703  -0.349   1.251  0.00  0.00    -0.096 C 
ENDBRANCH  12  18
ENDBRANCH  11  12
ENDBRANCH   7  11
ENDBRANCH   1   9
BRANCH   3  21
ATOM     21  O   LIG    1        1.554   6.242  -1.749  0.00  0.00    -0.491 OA
ATOM     22  C   LIG    1        1.909   5.478  -0.595  0.00  0.00    +0.277 C 
ENDBRANCH   3  21
BRANCH   5  23
ATOM     23  O   LIG    1       -0.316   6.234  -6.133  0.00  0.00    -0.491 OA
ATOM     24  C   LIG    1       -0.901   5.466  -7.186  0.00  0.00    +0.277 C 
ENDBRANCH   5  23
BRANCH   4  25
ATOM     25  O   LIG    1        0.822   7.593  -4.030  0.00  0.00    -0.480 OA
BRANCH  25  26
ATOM     26  C   LIG    1        2.074   8.027  -4.565  0.00  0.00    +0.265 C 
BRANCH  26  27
ATOM     27  C   LIG    1        2.116   9.533  -4.585  0.00  0.00    -0.010 A 
ATOM     28  C   LIG    1        1.661  10.222  -5.694  0.00  0.00    +0.007 A 
ATOM     29  C   LIG    1        1.699  11.604  -5.713  0.00  0.00    +0.000 A 
ATOM     30  C   LIG    1        2.192  12.297  -4.623  0.00  0.00    +0.000 A 
ATOM     31  C   LIG    1        2.647  11.608  -3.514  0.00  0.00    +0.000 A 
ATOM     32  C   LIG    1        2.604  10.226  -3.493  0.00  0.00    +0.007 A 
ENDBRANCH  26  27
ENDBRANCH  25  26
ENDBRANCH   4  25
TORSDOF 9
