REMARK  Name = ZINC00538550
REMARK                            x       y       z     vdW  Elec       q    Type
REMARK                         _______ _______ _______ _____ _____    ______ ____
ROOT
ATOM      1  N   LIG    1        0.472  -3.051  -0.018  0.00  0.00    -0.312 N 
ATOM      2  C   LIG    1       -0.927  -2.612   0.102  0.00  0.00    +0.122 C 
ATOM      3  C   LIG    1       -1.738  -3.258  -1.026  0.00  0.00    +0.103 C 
ATOM      4  N   LIG    1       -1.540  -4.713  -0.996  0.00  0.00    -0.299 NA
ATOM      5  C   LIG    1       -0.137  -5.065  -1.251  0.00  0.00    +0.103 C 
ATOM      6  C   LIG    1        0.741  -4.492  -0.139  0.00  0.00    +0.122 C 
ENDROOT
BRANCH   1  12
ATOM      7  C   LIG    1        2.627  -1.601   3.577  0.00  0.00    +0.001 A 
ATOM      8  C   LIG    1        3.638  -0.676   3.348  0.00  0.00    +0.001 A 
ATOM      9  C   LIG    1        3.914  -0.268   2.070  0.00  0.00    +0.017 A 
ATOM     10  C   LIG    1        3.181  -0.783   1.021  0.00  0.00    +0.041 A 
ATOM     11  C   LIG    1        2.147  -1.725   1.225  0.00  0.00    +0.031 A 
ATOM     12  C   LIG    1        1.516  -2.125  -0.024  0.00  0.00    +0.138 A 
ATOM     13  N   LIG    1        1.932  -1.613  -1.145  0.00  0.00    -0.194 NA
ATOM     14  S   LIG    1        3.173  -0.566  -0.737  0.00  0.00    +0.014 S 
ATOM     15  C   LIG    1        1.893  -2.120   2.555  0.00  0.00    +0.012 A 
ENDBRANCH   1  12
BRANCH   4  16
ATOM     16  C   LIG    1       -2.432  -5.386  -1.950  0.00  0.00    +0.089 C 
BRANCH  16  17
ATOM     17  C   LIG    1       -2.380  -6.897  -1.718  0.00  0.00    +0.052 C 
BRANCH  17  18
ATOM     18  C   LIG    1       -3.296  -7.587  -2.696  0.00  0.00    -0.027 A 
ATOM     19  C   LIG    1       -2.776  -8.181  -3.833  0.00  0.00    +0.011 A 
ATOM     20  C   LIG    1       -3.615  -8.811  -4.724  0.00  0.00    -0.017 A 
ATOM     21  C   LIG    1       -4.986  -8.859  -4.499  0.00  0.00    +0.038 A 
ATOM     22  N   LIG    1       -5.621  -9.546  -5.534  0.00  0.00    -0.285 N 
ATOM     23  H   LIG    1       -6.578  -9.697  -5.576  0.00  0.00    +0.155 HD
ATOM     24  C   LIG    1       -4.753  -9.976  -6.466  0.00  0.00    +0.222 C 
ATOM     25  O   LIG    1       -5.026 -10.598  -7.471  0.00  0.00    -0.275 OA
ATOM     26  C   LIG    1       -5.503  -8.259  -3.353  0.00  0.00    +0.043 A 
ATOM     27  C   LIG    1       -3.373  -9.538  -6.026  0.00  0.00    +0.133 C 
ATOM     28  C   LIG    1       -4.658  -7.633  -2.457  0.00  0.00    +0.046 A 
ATOM     29 CL   LIG    1       -5.310  -6.894  -1.028  0.00  0.00    -0.083 Cl
ENDBRANCH  17  18
ENDBRANCH  16  17
ENDBRANCH   4  16
TORSDOF 4
