REMARK  Name = ZINC00478140
REMARK                            x       y       z     vdW  Elec       q    Type
REMARK                         _______ _______ _______ _____ _____    ______ ____
ROOT
ATOM      1  N   LIG    1        3.621  -0.650  -0.036  0.00  0.00    -0.280 N 
ATOM      2  H   LIG    1        4.451  -0.155  -0.119  0.00  0.00    +0.155 HD
ATOM      3  C   LIG    1        3.644  -1.994   0.058  0.00  0.00    +0.265 C 
ATOM      4  O   LIG    1        2.601  -2.622   0.065  0.00  0.00    -0.268 OA
ENDROOT
BRANCH   1   8
ATOM      5  C   LIG    1       -0.015   1.380   0.029  0.00  0.00    +0.000 A 
ATOM      6  C   LIG    1        0.140   0.219   0.763  0.00  0.00    +0.002 A 
ATOM      7  C   LIG    1        1.344  -0.457   0.744  0.00  0.00    +0.023 A 
ATOM      8  C   LIG    1        2.400   0.031  -0.015  0.00  0.00    +0.034 A 
ATOM      9  C   LIG    1        2.241   1.198  -0.752  0.00  0.00    +0.023 A 
ATOM     10  C   LIG    1        1.034   1.869  -0.728  0.00  0.00    +0.002 A 
ENDBRANCH   1   8
BRANCH   3  11
ATOM     11  C   LIG    1        4.926  -2.701   0.152  0.00  0.00    +0.102 A 
ATOM     12  C   LIG    1        5.099  -4.065   0.247  0.00  0.00    +0.032 A 
ATOM     13  C   LIG    1        6.476  -4.301   0.313  0.00  0.00    +0.020 A 
ATOM     14  C   LIG    1        7.106  -3.103   0.259  0.00  0.00    +0.083 A 
ATOM     15  N   LIG    1        6.175  -2.123   0.155  0.00  0.00    -0.357 N 
ATOM     16  H   LIG    1        6.359  -1.172   0.096  0.00  0.00    +0.165 HD
ENDBRANCH   3  11
TORSDOF 2
