REMARK  Name = ZINC00601265
REMARK                            x       y       z     vdW  Elec       q    Type
REMARK                         _______ _______ _______ _____ _____    ______ ____
ROOT
ATOM      1  C   LIG    1        2.184   2.572  -0.535  0.00  0.00    +0.066 C 
ATOM      2  C   LIG    1        1.811   1.112  -0.559  0.00  0.00    +0.049 C 
ATOM      3  C   LIG    1        0.500   0.771  -0.732  0.00  0.00    +0.069 C 
ATOM      4  C   LIG    1        0.155  -0.707  -0.751  0.00  0.00    +0.096 C 
ATOM      5  C   LIG    1        1.323  -1.661  -0.574  0.00  0.00    +0.065 C 
ATOM      6  C   LIG    1        2.588  -1.094  -0.411  0.00  0.00    +0.049 C 
ATOM      7  C   LIG    1        3.780  -1.998  -0.232  0.00  0.00    +0.066 C 
ATOM      8  C   LIG    1        1.142  -3.027  -0.574  0.00  0.00    +0.285 C 
ATOM      9  N   LIG    1        2.767   0.207  -0.416  0.00  0.00    -0.256 NA
ENDROOT
BRANCH   4  10
ATOM     10  C   LIG    1       -0.837  -0.973   0.350  0.00  0.00    -0.033 A 
ATOM     11  C   LIG    1       -0.502  -0.702   1.664  0.00  0.00    +0.005 A 
ATOM     12  C   LIG    1       -1.412  -0.947   2.675  0.00  0.00    +0.003 A 
ATOM     13  C   LIG    1       -2.659  -1.462   2.372  0.00  0.00    +0.032 A 
ATOM     14  C   LIG    1       -2.995  -1.732   1.059  0.00  0.00    +0.122 A 
ATOM     15  C   LIG    1       -2.086  -1.484   0.047  0.00  0.00    +0.037 A 
BRANCH  14  16
ATOM     16  N   LIG    1       -4.329  -2.284   0.735  0.00  0.00    +0.006 N 
ATOM     17  O   LIG    1       -5.126  -2.499   1.619  0.00  0.00    -0.130 OA
BRANCH  16  18
ATOM     18  O   LIG    1       -4.623  -2.521  -0.414  0.00  0.00    -0.396 OA
ATOM     19  H   LIG    1       -4.006  -2.354  -1.099  0.00  0.00    +0.329 HD
ENDBRANCH  16  18
ENDBRANCH  14  16
ENDBRANCH   4  10
BRANCH   3  20
ATOM     20  C   LIG    1       -0.494   1.754  -0.885  0.00  0.00    +0.338 C 
ATOM     21  O   LIG    1       -0.192   2.933  -0.866  0.00  0.00    -0.245 OA
BRANCH  20  22
ATOM     22  O   LIG    1       -1.783   1.389  -1.055  0.00  0.00    -0.465 OA
ATOM     23  C   LIG    1       -2.740   2.439  -1.205  0.00  0.00    +0.280 C 
ENDBRANCH  20  22
ENDBRANCH   3  20
BRANCH   8  24
ATOM     24  O   LIG    1       -0.103  -3.541  -0.615  0.00  0.00    -0.480 OA
ATOM     25  H   LIG    1       -0.845  -2.970  -0.644  0.00  0.00    +0.295 HD
ENDBRANCH   8  24
BRANCH   8  26
ATOM     26  O   LIG    1        2.209  -3.848  -0.532  0.00  0.00    -0.463 OA
BRANCH  26  27
ATOM     27  C   LIG    1        1.954  -5.250  -0.649  0.00  0.00    +0.247 C 
BRANCH  27  28
ATOM     28  C   LIG    1        3.262  -6.023  -0.466  0.00  0.00    +0.125 C 
BRANCH  28  29
ATOM     29  N   LIG    1        4.168  -5.725  -1.583  0.00  0.00    -0.298 NA
ATOM     30  C   LIG    1        3.730  -6.403  -2.811  0.00  0.00    +0.105 C 
BRANCH  29  31
ATOM     31  C   LIG    1        5.552  -6.084  -1.249  0.00  0.00    +0.119 C 
BRANCH  31  32
ATOM     32  C   LIG    1        6.481  -5.545  -2.306  0.00  0.00    -0.033 A 
ATOM     33  C   LIG    1        6.787  -6.314  -3.413  0.00  0.00    +0.005 A 
ATOM     34  C   LIG    1        7.639  -5.820  -4.384  0.00  0.00    +0.000 A 
ATOM     35  C   LIG    1        8.183  -4.556  -4.247  0.00  0.00    +0.000 A 
ATOM     36  C   LIG    1        7.876  -3.787  -3.141  0.00  0.00    +0.000 A 
ATOM     37  C   LIG    1        7.021  -4.280  -2.172  0.00  0.00    +0.005 A 
ENDBRANCH  31  32
ENDBRANCH  29  31
ENDBRANCH  28  29
ENDBRANCH  27  28
ENDBRANCH  26  27
ENDBRANCH   8  26
TORSDOF 12
