REMARK  Name = ZINC00373144
REMARK                            x       y       z     vdW  Elec       q    Type
REMARK                         _______ _______ _______ _____ _____    ______ ____
ROOT
ATOM      1  C   LIG    1       -4.716   3.841  -0.712  0.00  0.00    +0.258 C 
ATOM      2  N   LIG    1       -5.855   3.218  -1.075  0.00  0.00    -0.282 N 
ATOM      3  H   LIG    1       -6.033   2.316  -0.766  0.00  0.00    +0.155 HD
ATOM      4  O   LIG    1       -4.534   5.000  -1.021  0.00  0.00    -0.271 OA
ENDROOT
BRANCH   2   5
ATOM      5  C   LIG    1       -6.780   3.873  -1.896  0.00  0.00    +0.034 A 
ATOM      6  C   LIG    1       -8.139   3.628  -1.745  0.00  0.00    +0.025 A 
ATOM      7  C   LIG    1       -9.050   4.279  -2.554  0.00  0.00    +0.022 A 
ATOM      8  C   LIG    1       -8.610   5.167  -3.520  0.00  0.00    +0.041 A 
ATOM      9 CL   LIG    1       -9.757   5.979  -4.538  0.00  0.00    -0.084 Cl
ATOM     10  C   LIG    1       -7.256   5.408  -3.675  0.00  0.00    +0.022 A 
ATOM     11  C   LIG    1       -6.341   4.764  -2.866  0.00  0.00    +0.025 A 
ENDBRANCH   2   5
BRANCH   1  13
ATOM     12  C   LIG    1       -4.269   2.625   1.402  0.00  0.00    +0.062 C 
ATOM     13  C   LIG    1       -3.669   3.098   0.077  0.00  0.00    +0.256 C 
BRANCH  13  14
ATOM     14  O   LIG    1       -2.564   3.966   0.337  0.00  0.00    -0.480 OA
BRANCH  14  15
ATOM     15  C   LIG    1       -1.357   3.380   0.555  0.00  0.00    +0.122 A 
ATOM     16  C   LIG    1       -1.259   1.998   0.630  0.00  0.00    +0.045 A 
ATOM     17  C   LIG    1       -0.032   1.405   0.858  0.00  0.00    +0.004 A 
ATOM     18  C   LIG    1        1.099   2.188   1.001  0.00  0.00    +0.000 A 
ATOM     19  C   LIG    1        1.005   3.565   0.921  0.00  0.00    +0.004 A 
ATOM     20  C   LIG    1       -0.220   4.163   0.699  0.00  0.00    +0.045 A 
ENDBRANCH  14  15
ENDBRANCH  13  14
ENDBRANCH   1  13
TORSDOF 4
