REMARK  Name = ZINC00404234
REMARK                            x       y       z     vdW  Elec       q    Type
REMARK                         _______ _______ _______ _____ _____    ______ ____
ROOT
ATOM      1  C   LIG    1        1.179   1.786   0.000  0.00  0.00    +0.123 A 
ATOM      2  C   LIG    1       -0.013   1.076   0.008  0.00  0.00    +0.047 A 
ATOM      3  C   LIG    1       -1.218   1.751   0.017  0.00  0.00    +0.019 A 
ATOM      4  C   LIG    1       -1.237   3.134   0.030  0.00  0.00    +0.018 A 
ATOM      5 BR   LIG    1       -2.888   4.055   0.050  0.00  0.00    -0.050 Br
ATOM      6  C   LIG    1       -0.050   3.844   0.023  0.00  0.00    +0.022 A 
ATOM      7  C   LIG    1        1.158   3.173   0.008  0.00  0.00    -0.006 A 
ENDROOT
BRANCH   1   9
ATOM      8  C   LIG    1        2.312  -0.304  -0.023  0.00  0.00    +0.277 C 
ATOM      9  O   LIG    1        2.366   1.124  -0.015  0.00  0.00    -0.495 OA
ENDBRANCH   1   9
BRANCH   7  10
ATOM     10  C   LIG    1        2.450   3.947   0.000  0.00  0.00    +0.019 C 
BRANCH  10  11
ATOM     11  C   LIG    1        2.939   4.109  -1.440  0.00  0.00    -0.082 C 
BRANCH  11  12
ATOM     12  N   LIG    1        4.192   4.886  -1.438  0.00  0.00    +0.378 N 
ATOM     13  H   LIG    1        4.009   5.819  -1.050  0.00  0.00    -0.090 HD
ATOM     14  H   LIG    1        4.543   4.985  -2.389  0.00  0.00    -0.090 HD
ATOM     15  H   LIG    1        4.892   4.418  -0.864  0.00  0.00    -0.090 HD
ENDBRANCH  11  12
ENDBRANCH  10  11
ENDBRANCH   7  10
TORSDOF 4
