REMARK  Name = ZINC00621853
REMARK                            x       y       z     vdW  Elec       q    Type
REMARK                         _______ _______ _______ _____ _____    ______ ____
ROOT
ATOM      1  C   LIG    1       -1.156  -2.216  -0.175  0.00  0.00    +0.104 C 
ATOM      2  C   LIG    1       -2.400  -2.677   0.559  0.00  0.00    +0.032 C 
ATOM      3  C   LIG    1       -2.621  -4.176   0.378  0.00  0.00    +0.038 C 
ATOM      4  C   LIG    1       -1.315  -4.907   0.553  0.00  0.00    -0.032 A 
ATOM      5  C   LIG    1       -1.058  -5.596   1.720  0.00  0.00    +0.054 A 
ATOM      6  C   LIG    1        0.142  -6.278   1.875  0.00  0.00    +0.165 A 
ATOM      7  C   LIG    1        1.090  -6.272   0.857  0.00  0.00    +0.204 A 
ATOM      8  C   LIG    1        0.839  -5.577  -0.319  0.00  0.00    +0.173 A 
ATOM      9  C   LIG    1       -0.369  -4.888  -0.466  0.00  0.00    +0.031 A 
ATOM     10  C   LIG    1       -0.633  -4.116  -1.716  0.00  0.00    -0.009 A 
ATOM     11  C   LIG    1       -0.408  -4.767  -2.902  0.00  0.00    +0.012 A 
ATOM     12  C   LIG    1       -0.576  -4.404  -4.189  0.00  0.00    +0.050 A 
ATOM     13  C   LIG    1       -1.065  -3.238  -4.689  0.00  0.00    +0.167 A 
ATOM     14  C   LIG    1       -1.497  -2.154  -3.933  0.00  0.00    +0.221 A 
ATOM     15  O   LIG    1       -1.976  -1.222  -4.565  0.00  0.00    -0.284 OA
ATOM     16  C   LIG    1       -1.457  -1.993  -2.577  0.00  0.00    +0.060 A 
ATOM     17  C   LIG    1       -1.080  -2.801  -1.571  0.00  0.00    -0.016 A 
ENDROOT
BRANCH   1  20
ATOM     18  C   LIG    1       -0.028   1.429  -0.478  0.00  0.00    +0.109 C 
ATOM     19  C   LIG    1       -0.013  -0.074  -0.380  0.00  0.00    +0.210 C 
ATOM     20  N   LIG    1       -1.171  -0.755  -0.270  0.00  0.00    -0.309 N 
ATOM     21  H   LIG    1       -2.015  -0.276  -0.253  0.00  0.00    +0.149 HD
ATOM     22  O   LIG    1        1.042  -0.673  -0.401  0.00  0.00    -0.276 OA
ENDBRANCH   1  20
BRANCH   6  23
ATOM     23  O   LIG    1        0.392  -6.955   3.026  0.00  0.00    -0.491 OA
ATOM     24  C   LIG    1       -0.623  -6.921   4.032  0.00  0.00    +0.277 C 
ENDBRANCH   6  23
BRANCH   7  25
ATOM     25  O   LIG    1        2.262  -6.946   1.013  0.00  0.00    -0.488 OA
ATOM     26  C   LIG    1        2.286  -8.311   0.592  0.00  0.00    +0.277 C 
ENDBRANCH   7  25
BRANCH   8  27
ATOM     27  O   LIG    1        1.760  -5.566  -1.319  0.00  0.00    -0.491 OA
ATOM     28  C   LIG    1        2.800  -4.590  -1.232  0.00  0.00    +0.277 C 
ENDBRANCH   8  27
BRANCH  13  29
ATOM     29  O   LIG    1       -1.139  -3.123  -6.038  0.00  0.00    -0.491 OA
ATOM     30  C   LIG    1       -0.693  -4.241  -6.809  0.00  0.00    +0.277 C 
ENDBRANCH  13  29
TORSDOF 5
