REMARK  Name = ZINC00537882
REMARK                            x       y       z     vdW  Elec       q    Type
REMARK                         _______ _______ _______ _____ _____    ______ ____
ROOT
ATOM      1  C   LIG    1        0.311   1.107  -0.171  0.00  0.00    +0.031 C 
ATOM      2  C   LIG    1        1.802   1.384  -0.394  0.00  0.00    +0.014 C 
ATOM      3  C   LIG    1        2.232   0.692  -1.686  0.00  0.00    +0.036 C 
ATOM      4  C   LIG    1        1.303   1.054  -2.816  0.00  0.00    -0.040 A 
ATOM      5  C   LIG    1        1.744   0.826  -4.112  0.00  0.00    +0.049 A 
ATOM      6  C   LIG    1        0.936   1.132  -5.193  0.00  0.00    +0.117 A 
ATOM      7  C   LIG    1       -0.325   1.672  -4.977  0.00  0.00    +0.046 A 
ATOM      8  C   LIG    1       -0.759   1.899  -3.689  0.00  0.00    +0.008 A 
ATOM      9  C   LIG    1        0.054   1.593  -2.604  0.00  0.00    -0.036 A 
ATOM     10  C   LIG    1       -0.484   1.876  -1.225  0.00  0.00    +0.057 C 
ENDROOT
BRANCH   1  14
ATOM     11  C   LIG    1       -0.828   2.418   3.732  0.00  0.00    +0.000 A 
ATOM     12  C   LIG    1       -1.341   1.241   3.221  0.00  0.00    +0.000 A 
ATOM     13  C   LIG    1       -0.972   0.816   1.958  0.00  0.00    +0.004 A 
ATOM     14  C   LIG    1       -0.091   1.570   1.206  0.00  0.00    -0.043 A 
ATOM     15  C   LIG    1        0.426   2.745   1.718  0.00  0.00    +0.004 A 
ATOM     16  C   LIG    1        0.054   3.172   2.979  0.00  0.00    +0.000 A 
ENDBRANCH   1  14
BRANCH  10  17
ATOM     17  C   LIG    1       -0.382   3.353  -0.945  0.00  0.00    -0.039 A 
ATOM     18  C   LIG    1       -1.415   4.005  -0.298  0.00  0.00    +0.008 A 
ATOM     19  C   LIG    1       -1.322   5.358  -0.035  0.00  0.00    +0.046 A 
ATOM     20  C   LIG    1       -0.196   6.065  -0.430  0.00  0.00    +0.120 A 
ATOM     21  C   LIG    1        0.837   5.409  -1.084  0.00  0.00    +0.046 A 
ATOM     22  C   LIG    1        0.742   4.055  -1.340  0.00  0.00    +0.008 A 
BRANCH  20  23
ATOM     23  O   LIG    1       -0.104   7.397  -0.177  0.00  0.00    -0.494 OA
BRANCH  23  24
ATOM     24  C   LIG    1       -1.205   8.006   0.500  0.00  0.00    +0.210 C 
BRANCH  24  25
ATOM     25  C   LIG    1       -0.923   9.497   0.695  0.00  0.00    -0.037 C 
BRANCH  25  26
ATOM     26  N   LIG    1       -0.867  10.176  -0.635  0.00  0.00    +0.382 N 
ATOM     27  H   LIG    1       -0.030   9.861  -1.139  0.00  0.00    -0.082 HD
ATOM     28  C   LIG    1       -0.826  11.629  -0.466  0.00  0.00    -0.079 C 
ATOM     29  C   LIG    1       -1.595  12.222  -1.661  0.00  0.00    -0.020 C 
ATOM     30  C   LIG    1       -2.086  11.001  -2.471  0.00  0.00    -0.020 C 
ATOM     31  C   LIG    1       -2.069   9.860  -1.422  0.00  0.00    -0.079 C 
ENDBRANCH  25  26
ENDBRANCH  24  25
ENDBRANCH  23  24
ENDBRANCH  20  23
ENDBRANCH  10  17
BRANCH   6  32
ATOM     32  O   LIG    1        1.374   0.907  -6.460  0.00  0.00    -0.507 OA
ATOM     33  H   LIG    1        1.845   1.655  -6.852  0.00  0.00    +0.292 HD
ENDBRANCH   6  32
TORSDOF 7
