REMARK  Name = ZINC00599734
REMARK                            x       y       z     vdW  Elec       q    Type
REMARK                         _______ _______ _______ _____ _____    ______ ____
ROOT
ATOM      1  C   LIG    1       -0.018   1.503   0.010  0.00  0.00    +0.012 C 
ATOM      2  C   LIG    1        0.002  -0.004   0.002  0.00  0.00    +0.033 C 
ATOM      3  C   LIG    1        0.006  -0.703  -1.202  0.00  0.00    +0.124 C 
ATOM      4  C   LIG    1        0.026  -2.095  -1.158  0.00  0.00    +0.047 C 
ATOM      5  C   LIG    1        0.040  -2.727   0.069  0.00  0.00    +0.084 C 
ATOM      6  N   LIG    1        0.036  -2.029   1.189  0.00  0.00    -0.312 NA
ATOM      7  H   LIG    1        0.047  -2.500   2.037  0.00  0.00    +0.122 HD
ATOM      8  C   LIG    1        0.023  -0.710   1.187  0.00  0.00    +0.072 C 
ENDROOT
BRANCH   3   9
ATOM      9  O   LIG    1       -0.009  -0.045  -2.389  0.00  0.00    -0.367 OA
BRANCH   9  10
ATOM     10  C   LIG    1       -0.004  -0.844  -3.574  0.00  0.00    +0.273 C 
BRANCH  10  11
ATOM     11  C   LIG    1       -0.023   0.067  -4.804  0.00  0.00    +0.413 C 
ATOM     12  F   LIG    1       -1.177   0.858  -4.780  0.00  0.00    -0.168 F 
ATOM     13  F   LIG    1       -0.018  -0.715  -5.964  0.00  0.00    -0.168 F 
ATOM     14  F   LIG    1        1.108   0.891  -4.791  0.00  0.00    -0.168 F 
ENDBRANCH  10  11
ENDBRANCH   9  10
ENDBRANCH   3   9
BRANCH   8  15
ATOM     15  C   LIG    1        0.025   0.036   2.497  0.00  0.00    +0.131 C 
BRANCH  15  16
ATOM     16  S   LIG    1       -1.684   0.312   3.039  0.00  0.00    +0.091 S 
ATOM     17  O   LIG    1       -2.268  -0.928   3.415  0.00  0.00    -0.249 OA
BRANCH  16  18
ATOM     18  C   LIG    1       -1.513   1.182   4.561  0.00  0.00    +0.198 A 
ATOM     19  N   LIG    1       -1.414   0.597   5.786  0.00  0.00    -0.331 N 
ATOM     20  C   LIG    1       -1.296   1.611   6.716  0.00  0.00    +0.067 A 
ATOM     21  C   LIG    1       -1.163   1.644   8.098  0.00  0.00    +0.028 A 
ATOM     22  C   LIG    1       -1.066   2.857   8.745  0.00  0.00    +0.002 A 
ATOM     23  C   LIG    1       -1.100   4.043   8.025  0.00  0.00    +0.002 A 
ATOM     24  C   LIG    1       -1.230   4.030   6.665  0.00  0.00    +0.030 A 
ATOM     25  C   LIG    1       -1.330   2.812   5.988  0.00  0.00    +0.090 A 
ATOM     26  H   LIG    1       -1.424  -0.355   5.971  0.00  0.00    +0.168 HD
ATOM     27  N   LIG    1       -1.458   2.476   4.678  0.00  0.00    -0.220 NA
ENDBRANCH  16  18
ENDBRANCH  15  16
ENDBRANCH   8  15
TORSDOF 6
