REMARK  Name = ZINC00590184
REMARK                            x       y       z     vdW  Elec       q    Type
REMARK                         _______ _______ _______ _____ _____    ______ ____
ROOT
ATOM      1  C   LIG    1        7.153   7.579  -3.072  0.00  0.00    +0.185 A 
ATOM      2  C   LIG    1        5.839   6.930  -3.070  0.00  0.00    +0.293 A 
ATOM      3  N   LIG    1        5.787   5.579  -3.070  0.00  0.00    -0.286 N 
ATOM      4  C   LIG    1        6.952   4.870  -3.084  0.00  0.00    +0.131 A 
ATOM      5 CL   LIG    1        6.900   3.135  -3.093  0.00  0.00    -0.062 Cl
ATOM      6  C   LIG    1        8.148   5.503  -3.092  0.00  0.00    +0.151 A 
ATOM      7  O   LIG    1        4.816   7.593  -3.062  0.00  0.00    -0.264 OA
ATOM      8  N   LIG    1        8.237   6.832  -3.086  0.00  0.00    -0.232 NA
ENDROOT
BRANCH   1   9
ATOM      9  N   LIG    1        7.254   8.965  -3.067  0.00  0.00    -0.319 N 
ATOM     10  H   LIG    1        6.452   9.510  -3.057  0.00  0.00    +0.148 HD
BRANCH   9  11
ATOM     11  C   LIG    1        8.573   9.604  -3.076  0.00  0.00    +0.185 C 
BRANCH  11  12
ATOM     12  C   LIG    1        8.403  11.124  -3.067  0.00  0.00    +0.305 C 
ATOM     13  F   LIG    1        7.706  11.509  -1.917  0.00  0.00    -0.197 F 
ATOM     14  F   LIG    1        7.685  11.520  -4.201  0.00  0.00    -0.197 F 
BRANCH  12  19
ATOM     15  C   LIG    1       11.103  13.755  -3.079  0.00  0.00    +0.003 A 
ATOM     16  C   LIG    1       12.222  12.936  -3.093  0.00  0.00    +0.020 A 
ATOM     17  C   LIG    1       12.053  11.564  -3.098  0.00  0.00    +0.111 A 
ATOM     18  N   LIG    1       10.845  11.033  -3.084  0.00  0.00    -0.254 NA
ATOM     19  C   LIG    1        9.759  11.781  -3.076  0.00  0.00    +0.111 A 
ATOM     20  C   LIG    1        9.850  13.160  -3.071  0.00  0.00    +0.029 A 
ENDBRANCH  12  19
ENDBRANCH  11  12
ENDBRANCH   9  11
ENDBRANCH   1   9
BRANCH   3  21
ATOM     21  C   LIG    1        4.497   4.886  -3.062  0.00  0.00    +0.222 C 
BRANCH  21  22
ATOM     22  C   LIG    1        4.067   4.641  -1.639  0.00  0.00    +0.233 C 
ATOM     23  N   LIG    1        2.902   4.012  -1.385  0.00  0.00    -0.308 N 
ATOM     24  H   LIG    1        2.340   3.717  -2.119  0.00  0.00    +0.149 HD
ATOM     25  O   LIG    1        4.770   5.009  -0.721  0.00  0.00    -0.274 OA
BRANCH  23  26
ATOM     26  C   LIG    1        2.485   3.774  -0.001  0.00  0.00    +0.162 C 
BRANCH  26  27
ATOM     27  C   LIG    1        1.157   3.061   0.007  0.00  0.00    +0.093 A 
ATOM     28  C   LIG    1       -0.016   3.796   0.022  0.00  0.00    +0.146 A 
ATOM     29  F   LIG    1        0.024   5.147   0.028  0.00  0.00    -0.204 F 
ATOM     30  C   LIG    1       -1.232   3.128   0.030  0.00  0.00    +0.042 A 
ATOM     31  C   LIG    1       -1.223   1.742   0.017  0.00  0.00    +0.022 A 
ATOM     32  C   LIG    1       -0.013   1.076   0.008  0.00  0.00    +0.111 A 
ATOM     33  N   LIG    1        1.125   1.742   0.001  0.00  0.00    -0.255 NA
ENDBRANCH  26  27
ENDBRANCH  23  26
ENDBRANCH  21  22
ENDBRANCH   3  21
TORSDOF 8
