REMARK  Name = ZINC00602825
REMARK                            x       y       z     vdW  Elec       q    Type
REMARK                         _______ _______ _______ _____ _____    ______ ____
ROOT
ATOM      1  N   LIG    1       -1.482   3.608  -2.410  0.00  0.00    -0.321 N 
ATOM      2  H   LIG    1       -2.142   3.045  -2.845  0.00  0.00    +0.148 HD
ENDROOT
BRANCH   1   3
ATOM      3  C   LIG    1       -1.210   4.870  -2.911  0.00  0.00    +0.159 A 
ATOM      4  N   LIG    1       -0.364   5.781  -2.467  0.00  0.00    -0.225 NA
ATOM      5  C   LIG    1       -0.228   6.976  -3.064  0.00  0.00    +0.084 A 
ATOM      6  C   LIG    1       -0.975   7.196  -4.184  0.00  0.00    +0.020 A 
ATOM      7  C   LIG    1       -0.907   8.383  -5.074  0.00  0.00    +0.055 C 
ATOM      8  C   LIG    1       -1.802   9.539  -4.563  0.00  0.00    +0.079 C 
ATOM      9  S   LIG    1       -1.583   9.616  -2.753  0.00  0.00    -0.124 S 
ATOM     10  C   LIG    1        0.137   9.361  -2.487  0.00  0.00    +0.017 A 
ATOM     11  C   LIG    1        0.961  10.420  -2.130  0.00  0.00    +0.015 A 
ATOM     12  C   LIG    1        2.277  10.166  -1.784  0.00  0.00    +0.001 A 
ATOM     13  C   LIG    1        2.773   8.874  -1.794  0.00  0.00    +0.001 A 
ATOM     14  C   LIG    1        1.967   7.819  -2.186  0.00  0.00    +0.011 A 
ATOM     15  C   LIG    1        0.655   8.076  -2.559  0.00  0.00    +0.015 A 
ATOM     16  S   LIG    1       -1.919   5.703  -4.328  0.00  0.00    -0.057 S 
ENDBRANCH   1   3
BRANCH   1  20
ATOM     17  C   LIG    1       -0.729   1.579   1.267  0.00  0.00    +0.005 C 
ATOM     18  C   LIG    1       -0.013   1.086   0.008  0.00  0.00    +0.006 C 
ATOM     19  C   LIG    1       -0.753   1.593  -1.232  0.00  0.00    +0.022 C 
ATOM     20  C   LIG    1       -0.773   3.123  -1.223  0.00  0.00    +0.072 C 
ATOM     21  C   LIG    1       -1.490   3.616   0.036  0.00  0.00    +0.022 C 
ATOM     22  C   LIG    1       -0.750   3.109   1.275  0.00  0.00    +0.006 C 
BRANCH  17  23
ATOM     23  C   LIG    1        0.011   1.072   2.506  0.00  0.00    +0.109 C 
BRANCH  23  24
ATOM     24  N   LIG    1       -0.739   1.443   3.709  0.00  0.00    -0.195 NA
ATOM     25  H   LIG    1       -1.441   2.111   3.656  0.00  0.00    +0.148 HD
BRANCH  24  27
ATOM     26  C   LIG    1        1.299   1.257   5.549  0.00  0.00    +0.214 C 
ATOM     27  S   LIG    1       -0.390   0.723   5.158  0.00  0.00    +0.027 S 
ATOM     28  O   LIG    1       -0.410  -0.672   4.884  0.00  0.00    -0.158 OA
ATOM     29  O   LIG    1       -1.309   1.294   6.078  0.00  0.00    -0.158 OA
ENDBRANCH  24  27
ENDBRANCH  23  24
ENDBRANCH  17  23
ENDBRANCH   1  20
TORSDOF 5
