MODEL 1
REMARK VINA RESULT:      -4.3      0.000      0.000
REMARK  Name = ZINC00000915
REMARK                            x       y       z     vdW  Elec       q    Type
REMARK                         _______ _______ _______ _____ _____    ______ ____
ROOT
ATOM      1  C   LIG    1       23.999  30.722  58.157  0.00  0.00    +0.044 C 
ATOM      2  C   LIG    1       24.545  31.145  56.818  0.00  0.00    -0.046 A 
ATOM      3  C   LIG    1       25.666  31.948  56.752  0.00  0.00    +0.026 A 
ATOM      4  C   LIG    1       26.172  32.332  55.517  0.00  0.00    +0.029 A 
ATOM      5  C   LIG    1       25.549  31.906  54.351  0.00  0.00    +0.023 A 
ATOM      6  C   LIG    1       24.428  31.102  54.424  0.00  0.00    +0.005 A 
ATOM      7  C   LIG    1       23.927  30.721  55.656  0.00  0.00    -0.046 A 
ENDROOT
BRANCH   4   8
ATOM      8  N   LIG    1       27.306  33.146  55.446  0.00  0.00    -0.336 N 
ATOM      9  C   LIG    1       27.164  34.579  55.180  0.00  0.00    +0.129 C 
ATOM     10  C   LIG    1       28.637  32.564  55.638  0.00  0.00    +0.129 C 
ENDBRANCH   4   8
BRANCH   7  11
ATOM     11  C   LIG    1       22.704  29.844  55.731  0.00  0.00    +0.019 C 
BRANCH  11  12
ATOM     12  C   LIG    1       21.655  30.345  54.737  0.00  0.00    -0.074 C 
ATOM     13  C   LIG    1       20.927  31.554  55.331  0.00  0.00    -0.014 C 
BRANCH  12  14
ATOM     14  N   LIG    1       20.676  29.272  54.490  0.00  0.00    +0.380 N 
ATOM     15  H   LIG    1       20.201  29.039  55.370  0.00  0.00    -0.090 HD
ATOM     16  H   LIG    1       21.150  28.441  54.138  0.00  0.00    -0.090 HD
ATOM     17  H   LIG    1       19.983  29.580  53.809  0.00  0.00    -0.090 HD
ENDBRANCH  12  14
ENDBRANCH  11  12
ENDBRANCH   7  11
TORSDOF 4
ENDMDL
MODEL 2
REMARK VINA RESULT:      -4.2      1.411      1.574
REMARK  Name = ZINC00000915
REMARK                            x       y       z     vdW  Elec       q    Type
REMARK                         _______ _______ _______ _____ _____    ______ ____
ROOT
ATOM      1  C   LIG    1       23.651  30.470  58.611  0.00  0.00    +0.044 C 
ATOM      2  C   LIG    1       24.031  30.861  57.207  0.00  0.00    -0.046 A 
ATOM      3  C   LIG    1       25.222  31.518  56.971  0.00  0.00    +0.026 A 
ATOM      4  C   LIG    1       25.574  31.873  55.675  0.00  0.00    +0.029 A 
ATOM      5  C   LIG    1       24.726  31.564  54.619  0.00  0.00    +0.023 A 
ATOM      6  C   LIG    1       23.536  30.906  54.861  0.00  0.00    +0.005 A 
ATOM      7  C   LIG    1       23.189  30.555  56.154  0.00  0.00    -0.046 A 
ENDROOT
BRANCH   4   8
ATOM      8  N   LIG    1       26.778  32.539  55.434  0.00  0.00    -0.336 N 
ATOM      9  C   LIG    1       27.273  32.684  54.063  0.00  0.00    +0.129 C 
ATOM     10  C   LIG    1       27.547  33.091  56.552  0.00  0.00    +0.129 C 
ENDBRANCH   4   8
BRANCH   7  11
ATOM     11  C   LIG    1       21.890  29.836  56.414  0.00  0.00    +0.019 C 
BRANCH  11  12
ATOM     12  C   LIG    1       21.697  28.737  55.366  0.00  0.00    -0.074 C 
ATOM     13  C   LIG    1       20.206  28.420  55.229  0.00  0.00    -0.014 C 
BRANCH  12  14
ATOM     14  N   LIG    1       22.406  27.523  55.809  0.00  0.00    +0.380 N 
ATOM     15  H   LIG    1       21.807  27.000  56.458  0.00  0.00    -0.090 HD
ATOM     16  H   LIG    1       23.270  27.777  56.286  0.00  0.00    -0.090 HD
ATOM     17  H   LIG    1       22.622  26.933  55.007  0.00  0.00    -0.090 HD
ENDBRANCH  12  14
ENDBRANCH  11  12
ENDBRANCH   7  11
TORSDOF 4
ENDMDL
MODEL 3
REMARK VINA RESULT:      -4.1      1.619      5.517
REMARK  Name = ZINC00000915
REMARK                            x       y       z     vdW  Elec       q    Type
REMARK                         _______ _______ _______ _____ _____    ______ ____
ROOT
ATOM      1  C   LIG    1       23.967  30.742  53.400  0.00  0.00    +0.044 C 
ATOM      2  C   LIG    1       24.139  30.792  54.896  0.00  0.00    -0.046 A 
ATOM      3  C   LIG    1       23.256  30.118  55.716  0.00  0.00    +0.026 A 
ATOM      4  C   LIG    1       23.420  30.160  57.095  0.00  0.00    +0.029 A 
ATOM      5  C   LIG    1       24.473  30.881  57.645  0.00  0.00    +0.023 A 
ATOM      6  C   LIG    1       25.353  31.553  56.819  0.00  0.00    +0.005 A 
ATOM      7  C   LIG    1       25.186  31.508  55.446  0.00  0.00    -0.046 A 
ENDROOT
BRANCH   4   8
ATOM      8  N   LIG    1       22.528  29.479  57.927  0.00  0.00    -0.336 N 
ATOM      9  C   LIG    1       21.619  28.479  57.365  0.00  0.00    +0.129 C 
ATOM     10  C   LIG    1       22.502  29.767  59.364  0.00  0.00    +0.129 C 
ENDBRANCH   4   8
BRANCH   7  11
ATOM     11  C   LIG    1       26.149  32.243  54.549  0.00  0.00    +0.019 C 
BRANCH  11  12
ATOM     12  C   LIG    1       27.271  32.850  55.394  0.00  0.00    -0.074 C 
ATOM     13  C   LIG    1       27.491  34.306  54.978  0.00  0.00    -0.014 C 
BRANCH  12  14
ATOM     14  N   LIG    1       28.513  32.092  55.158  0.00  0.00    +0.380 N 
ATOM     15  H   LIG    1       28.762  32.154  54.164  0.00  0.00    -0.090 HD
ATOM     16  H   LIG    1       28.378  31.113  55.406  0.00  0.00    -0.090 HD
ATOM     17  H   LIG    1       29.272  32.482  55.715  0.00  0.00    -0.090 HD
ENDBRANCH  12  14
ENDBRANCH  11  12
ENDBRANCH   7  11
TORSDOF 4
ENDMDL
MODEL 4
REMARK VINA RESULT:      -4.1      2.109      6.170
REMARK  Name = ZINC00000915
REMARK                            x       y       z     vdW  Elec       q    Type
REMARK                         _______ _______ _______ _____ _____    ______ ____
ROOT
ATOM      1  C   LIG    1       23.698  28.308  54.394  0.00  0.00    +0.044 C 
ATOM      2  C   LIG    1       22.558  29.235  54.730  0.00  0.00    -0.046 A 
ATOM      3  C   LIG    1       21.298  28.721  54.968  0.00  0.00    +0.026 A 
ATOM      4  C   LIG    1       20.250  29.576  55.283  0.00  0.00    +0.029 A 
ATOM      5  C   LIG    1       20.472  30.945  55.359  0.00  0.00    +0.023 A 
ATOM      6  C   LIG    1       21.735  31.452  55.119  0.00  0.00    +0.005 A 
ATOM      7  C   LIG    1       22.776  30.598  54.805  0.00  0.00    -0.046 A 
ENDROOT
BRANCH   4   8
ATOM      8  N   LIG    1       18.974  29.060  55.525  0.00  0.00    -0.336 N 
ATOM      9  C   LIG    1       17.982  29.865  56.240  0.00  0.00    +0.129 C 
ATOM     10  C   LIG    1       18.630  27.713  55.064  0.00  0.00    +0.129 C 
ENDBRANCH   4   8
BRANCH   7  11
ATOM     11  C   LIG    1       24.152  31.155  54.545  0.00  0.00    +0.019 C 
BRANCH  11  12
ATOM     12  C   LIG    1       24.655  31.877  55.798  0.00  0.00    -0.074 C 
ATOM     13  C   LIG    1       25.989  32.561  55.491  0.00  0.00    -0.014 C 
BRANCH  12  14
ATOM     14  N   LIG    1       24.860  30.888  56.871  0.00  0.00    +0.380 N 
ATOM     15  H   LIG    1       23.966  30.432  57.085  0.00  0.00    -0.090 HD
ATOM     16  H   LIG    1       25.207  31.350  57.710  0.00  0.00    -0.090 HD
ATOM     17  H   LIG    1       25.530  30.181  56.572  0.00  0.00    -0.090 HD
ENDBRANCH  12  14
ENDBRANCH  11  12
ENDBRANCH   7  11
TORSDOF 4
ENDMDL
MODEL 5
REMARK VINA RESULT:      -4.0      1.417      5.536
REMARK  Name = ZINC00000915
REMARK                            x       y       z     vdW  Elec       q    Type
REMARK                         _______ _______ _______ _____ _____    ______ ____
ROOT
ATOM      1  C   LIG    1       24.178  30.751  58.217  0.00  0.00    +0.044 C 
ATOM      2  C   LIG    1       23.498  30.499  56.896  0.00  0.00    -0.046 A 
ATOM      3  C   LIG    1       22.156  30.173  56.862  0.00  0.00    +0.026 A 
ATOM      4  C   LIG    1       21.529  29.947  55.644  0.00  0.00    +0.029 A 
ATOM      5  C   LIG    1       22.253  30.050  54.463  0.00  0.00    +0.023 A 
ATOM      6  C   LIG    1       23.594  30.377  54.504  0.00  0.00    +0.005 A 
ATOM      7  C   LIG    1       24.216  30.602  55.719  0.00  0.00    -0.046 A 
ENDROOT
BRANCH   4   8
ATOM      8  N   LIG    1       20.172  29.616  55.606  0.00  0.00    -0.336 N 
ATOM      9  C   LIG    1       19.754  28.283  55.165  0.00  0.00    +0.129 C 
ATOM     10  C   LIG    1       19.166  30.604  56.005  0.00  0.00    +0.129 C 
ENDBRANCH   4   8
BRANCH   7  11
ATOM     11  C   LIG    1       25.679  30.959  55.760  0.00  0.00    +0.019 C 
BRANCH  11  12
ATOM     12  C   LIG    1       25.907  32.264  54.993  0.00  0.00    -0.074 C 
ATOM     13  C   LIG    1       27.381  32.373  54.599  0.00  0.00    -0.014 C 
BRANCH  12  14
ATOM     14  N   LIG    1       25.560  33.399  55.866  0.00  0.00    +0.380 N 
ATOM     15  H   LIG    1       24.538  33.461  55.950  0.00  0.00    -0.090 HD
ATOM     16  H   LIG    1       25.913  34.268  55.466  0.00  0.00    -0.090 HD
ATOM     17  H   LIG    1       25.962  33.264  56.792  0.00  0.00    -0.090 HD
ENDBRANCH  12  14
ENDBRANCH  11  12
ENDBRANCH   7  11
TORSDOF 4
ENDMDL
