REMARK VINA RESULT:      -5.7      0.000      0.000
REMARK  Name = ZINC00000627
REMARK                            x       y       z     vdW  Elec       q    Type
REMARK                         _______ _______ _______ _____ _____    ______ ____
ROOT
ATOM      1  C   LIG    1       14.370  33.399  57.453  0.00  0.00    -0.096 C 
ATOM      2  N   LIG    1       15.581  33.911  56.795  0.00  0.00    +0.378 N 
ATOM      3  H   LIG    1       15.341  34.258  55.879  0.00  0.00    -0.082 HD
ATOM      4  C   LIG    1       16.144  35.004  57.595  0.00  0.00    -0.075 C 
ATOM      5  C   LIG    1       17.302  35.654  56.829  0.00  0.00    +0.013 C 
ATOM      6  C   LIG    1       18.293  34.568  56.461  0.00  0.00    -0.065 C 
ATOM      7  C   LIG    1       17.747  33.306  55.826  0.00  0.00    +0.013 C 
ATOM      8  C   LIG    1       19.606  34.720  56.690  0.00  0.00    -0.010 C 
ATOM      9  C   LIG    1       20.116  35.963  57.311  0.00  0.00    -0.004 A 
ATOM     10  C   LIG    1       19.529  37.192  57.017  0.00  0.00    +0.009 A 
ATOM     11  C   LIG    1       20.021  38.343  57.597  0.00  0.00    +0.001 A 
ATOM     12  C   LIG    1       21.096  38.286  58.467  0.00  0.00    +0.001 A 
ATOM     13  C   LIG    1       21.687  37.074  58.769  0.00  0.00    +0.015 A 
ATOM     14  C   LIG    1       21.200  35.908  58.199  0.00  0.00    +0.020 A 
ATOM     15  S   LIG    1       21.927  34.350  58.590  0.00  0.00    -0.088 S 
ATOM     16  C   LIG    1       21.671  33.392  57.133  0.00  0.00    +0.020 A 
ATOM     17  C   LIG    1       22.567  32.392  56.784  0.00  0.00    +0.015 A 
ATOM     18  C   LIG    1       22.350  31.638  55.656  0.00  0.00    +0.001 A 
ATOM     19  C   LIG    1       21.247  31.878  54.857  0.00  0.00    +0.001 A 
ATOM     20  C   LIG    1       20.349  32.874  55.186  0.00  0.00    +0.009 A 
ATOM     21  C   LIG    1       20.555  33.642  56.329  0.00  0.00    -0.004 A 
ATOM     22  C   LIG    1       16.558  32.824  56.663  0.00  0.00    -0.075 C 
ENDROOT
TORSDOF 0
