REMARK VINA RESULT:      -5.5      5.849      8.125
REMARK  Name = ZINC00000627
REMARK                            x       y       z     vdW  Elec       q    Type
REMARK                         _______ _______ _______ _____ _____    ______ ____
ROOT
ATOM      1  C   LIG    1       26.071  32.177  54.382  0.00  0.00    -0.096 C 
ATOM      2  N   LIG    1       24.903  31.977  55.251  0.00  0.00    +0.378 N 
ATOM      3  H   LIG    1       24.456  32.866  55.419  0.00  0.00    -0.082 HD
ATOM      4  C   LIG    1       23.953  31.075  54.590  0.00  0.00    -0.075 C 
ATOM      5  C   LIG    1       22.661  31.002  55.411  0.00  0.00    +0.013 C 
ATOM      6  C   LIG    1       23.024  30.604  56.827  0.00  0.00    -0.065 C 
ATOM      7  C   LIG    1       24.156  31.354  57.499  0.00  0.00    +0.013 C 
ATOM      8  C   LIG    1       22.367  29.622  57.463  0.00  0.00    -0.010 C 
ATOM      9  C   LIG    1       21.264  28.904  56.786  0.00  0.00    -0.004 A 
ATOM     10  C   LIG    1       20.408  29.579  55.919  0.00  0.00    +0.009 A 
ATOM     11  C   LIG    1       19.379  28.898  55.303  0.00  0.00    +0.001 A 
ATOM     12  C   LIG    1       19.189  27.547  55.542  0.00  0.00    +0.001 A 
ATOM     13  C   LIG    1       20.031  26.864  56.398  0.00  0.00    +0.015 A 
ATOM     14  C   LIG    1       21.074  27.534  57.020  0.00  0.00    +0.020 A 
ATOM     15  S   LIG    1       22.172  26.674  58.098  0.00  0.00    -0.088 S 
ATOM     16  C   LIG    1       22.680  27.908  59.249  0.00  0.00    +0.020 A 
ATOM     17  C   LIG    1       23.019  27.560  60.548  0.00  0.00    +0.015 A 
ATOM     18  C   LIG    1       23.431  28.526  61.433  0.00  0.00    +0.001 A 
ATOM     19  C   LIG    1       23.499  29.851  61.040  0.00  0.00    +0.001 A 
ATOM     20  C   LIG    1       23.159  30.216  59.752  0.00  0.00    +0.009 A 
ATOM     21  C   LIG    1       22.744  29.245  58.844  0.00  0.00    -0.004 A 
ATOM     22  C   LIG    1       25.340  31.403  56.529  0.00  0.00    -0.075 C 
ENDROOT
TORSDOF 0
