REMARK VINA RESULT:      -5.6      2.833      4.266
REMARK  Name = ZINC00000627
REMARK                            x       y       z     vdW  Elec       q    Type
REMARK                         _______ _______ _______ _____ _____    ______ ____
ROOT
ATOM      1  C   LIG    1       17.553  26.951  57.873  0.00  0.00    -0.096 C 
ATOM      2  N   LIG    1       17.944  27.980  56.899  0.00  0.00    +0.378 N 
ATOM      3  H   LIG    1       17.452  27.824  56.032  0.00  0.00    -0.082 HD
ATOM      4  C   LIG    1       17.593  29.305  57.423  0.00  0.00    -0.075 C 
ATOM      5  C   LIG    1       17.840  30.363  56.342  0.00  0.00    +0.013 C 
ATOM      6  C   LIG    1       19.274  30.233  55.871  0.00  0.00    -0.065 C 
ATOM      7  C   LIG    1       19.775  28.847  55.521  0.00  0.00    +0.013 C 
ATOM      8  C   LIG    1       20.072  31.307  55.769  0.00  0.00    -0.010 C 
ATOM      9  C   LIG    1       19.559  32.652  56.116  0.00  0.00    -0.004 A 
ATOM     10  C   LIG    1       18.240  32.999  55.838  0.00  0.00    +0.009 A 
ATOM     11  C   LIG    1       17.780  34.259  56.159  0.00  0.00    +0.001 A 
ATOM     12  C   LIG    1       18.622  35.183  56.754  0.00  0.00    +0.001 A 
ATOM     13  C   LIG    1       19.933  34.852  57.039  0.00  0.00    +0.015 A 
ATOM     14  C   LIG    1       20.408  33.586  56.727  0.00  0.00    +0.020 A 
ATOM     15  S   LIG    1       22.071  33.139  57.102  0.00  0.00    -0.088 S 
ATOM     16  C   LIG    1       22.478  31.960  55.857  0.00  0.00    +0.020 A 
ATOM     17  C   LIG    1       23.787  31.825  55.418  0.00  0.00    +0.015 A 
ATOM     18  C   LIG    1       24.098  30.892  54.460  0.00  0.00    +0.001 A 
ATOM     19  C   LIG    1       23.109  30.089  53.919  0.00  0.00    +0.001 A 
ATOM     20  C   LIG    1       21.800  30.214  54.340  0.00  0.00    +0.009 A 
ATOM     21  C   LIG    1       21.473  31.154  55.315  0.00  0.00    -0.004 A 
ATOM     22  C   LIG    1       19.390  27.897  56.659  0.00  0.00    -0.075 C 
ENDROOT
TORSDOF 0
