REMARK VINA RESULT:      -5.3      3.052      5.247
REMARK  Name = ZINC00000627
REMARK                            x       y       z     vdW  Elec       q    Type
REMARK                         _______ _______ _______ _____ _____    ______ ____
ROOT
ATOM      1  C   LIG    1       17.644  34.358  56.458  0.00  0.00    -0.096 C 
ATOM      2  N   LIG    1       19.052  33.974  56.626  0.00  0.00    +0.378 N 
ATOM      3  H   LIG    1       19.630  34.800  56.583  0.00  0.00    -0.082 HD
ATOM      4  C   LIG    1       19.229  33.327  57.931  0.00  0.00    -0.075 C 
ATOM      5  C   LIG    1       20.721  33.083  58.183  0.00  0.00    +0.013 C 
ATOM      6  C   LIG    1       21.275  32.298  57.012  0.00  0.00    -0.065 C 
ATOM      7  C   LIG    1       20.945  32.789  55.617  0.00  0.00    +0.013 C 
ATOM      8  C   LIG    1       22.032  31.207  57.203  0.00  0.00    -0.010 C 
ATOM      9  C   LIG    1       22.342  30.746  58.576  0.00  0.00    -0.004 A 
ATOM     10  C   LIG    1       22.550  31.667  59.599  0.00  0.00    +0.009 A 
ATOM     11  C   LIG    1       22.848  31.223  60.871  0.00  0.00    +0.001 A 
ATOM     12  C   LIG    1       22.944  29.867  61.136  0.00  0.00    +0.001 A 
ATOM     13  C   LIG    1       22.738  28.942  60.131  0.00  0.00    +0.015 A 
ATOM     14  C   LIG    1       22.432  29.374  58.848  0.00  0.00    +0.020 A 
ATOM     15  S   LIG    1       22.145  28.208  57.558  0.00  0.00    -0.088 S 
ATOM     16  C   LIG    1       22.663  29.058  56.104  0.00  0.00    +0.020 A 
ATOM     17  C   LIG    1       23.169  28.353  55.021  0.00  0.00    +0.015 A 
ATOM     18  C   LIG    1       23.553  29.022  53.885  0.00  0.00    +0.001 A 
ATOM     19  C   LIG    1       23.449  30.401  53.817  0.00  0.00    +0.001 A 
ATOM     20  C   LIG    1       22.954  31.118  54.887  0.00  0.00    +0.009 A 
ATOM     21  C   LIG    1       22.556  30.450  56.043  0.00  0.00    -0.004 A 
ATOM     22  C   LIG    1       19.437  33.055  55.548  0.00  0.00    -0.075 C 
ENDROOT
TORSDOF 0
