REMARK VINA RESULT:      -5.6      3.637      6.937
REMARK  Name = ZINC00000627
REMARK                            x       y       z     vdW  Elec       q    Type
REMARK                         _______ _______ _______ _____ _____    ______ ____
ROOT
ATOM      1  C   LIG    1       21.005  29.246  62.316  0.00  0.00    -0.096 C 
ATOM      2  N   LIG    1       21.834  29.859  61.268  0.00  0.00    +0.378 N 
ATOM      3  H   LIG    1       22.745  30.070  61.646  0.00  0.00    -0.082 HD
ATOM      4  C   LIG    1       21.980  28.919  60.151  0.00  0.00    -0.075 C 
ATOM      5  C   LIG    1       22.982  29.482  59.137  0.00  0.00    +0.013 C 
ATOM      6  C   LIG    1       22.521  30.869  58.737  0.00  0.00    -0.065 C 
ATOM      7  C   LIG    1       22.140  31.829  59.845  0.00  0.00    +0.013 C 
ATOM      8  C   LIG    1       22.452  31.233  57.448  0.00  0.00    -0.010 C 
ATOM      9  C   LIG    1       22.831  30.277  56.382  0.00  0.00    -0.004 A 
ATOM     10  C   LIG    1       23.876  29.379  56.578  0.00  0.00    +0.009 A 
ATOM     11  C   LIG    1       24.224  28.501  55.572  0.00  0.00    +0.001 A 
ATOM     12  C   LIG    1       23.541  28.509  54.368  0.00  0.00    +0.001 A 
ATOM     13  C   LIG    1       22.500  29.393  54.160  0.00  0.00    +0.015 A 
ATOM     14  C   LIG    1       22.136  30.278  55.164  0.00  0.00    +0.020 A 
ATOM     15  S   LIG    1       20.796  31.398  54.925  0.00  0.00    -0.088 S 
ATOM     16  C   LIG    1       21.228  32.784  55.925  0.00  0.00    +0.020 A 
ATOM     17  C   LIG    1       20.810  34.060  55.575  0.00  0.00    +0.015 A 
ATOM     18  C   LIG    1       21.135  35.131  56.370  0.00  0.00    +0.001 A 
ATOM     19  C   LIG    1       21.889  34.949  57.516  0.00  0.00    +0.001 A 
ATOM     20  C   LIG    1       22.318  33.687  57.875  0.00  0.00    +0.009 A 
ATOM     21  C   LIG    1       21.991  32.591  57.080  0.00  0.00    -0.004 A 
ATOM     22  C   LIG    1       21.198  31.099  60.809  0.00  0.00    -0.075 C 
ENDROOT
TORSDOF 0
