MODEL 1
REMARK VINA RESULT:      -4.7      0.000      0.000
REMARK  Name = ZINC00000999
REMARK                            x       y       z     vdW  Elec       q    Type
REMARK                         _______ _______ _______ _____ _____    ______ ____
ROOT
ATOM      1  C   LIG    1       20.972  28.929  54.935  0.00  0.00    +0.155 C 
ATOM      2  N   LIG    1       22.044  29.448  55.789  0.00  0.00    -0.280 N 
ATOM      3  C   LIG    1       23.074  30.189  55.232  0.00  0.00    +0.168 A 
ATOM      4  C   LIG    1       24.078  30.671  56.062  0.00  0.00    +0.151 A 
ATOM      5  N   LIG    1       24.954  31.361  55.249  0.00  0.00    -0.323 N 
ATOM      6  C   LIG    1       24.471  31.280  53.993  0.00  0.00    +0.202 A 
ATOM      7  C   LIG    1       24.021  30.391  57.445  0.00  0.00    +0.282 A 
ATOM      8  N   LIG    1       22.991  29.664  57.927  0.00  0.00    -0.262 N 
ATOM      9  C   LIG    1       22.925  29.370  59.361  0.00  0.00    +0.157 C 
ATOM     10  O   LIG    1       24.889  30.803  58.193  0.00  0.00    -0.265 OA
ATOM     11  N   LIG    1       23.362  30.588  53.990  0.00  0.00    -0.218 NA
ATOM     12  C   LIG    1       22.023  29.209  57.114  0.00  0.00    +0.333 A 
ATOM     13  O   LIG    1       21.108  28.561  57.585  0.00  0.00    -0.246 OA
ENDROOT
BRANCH   5  14
ATOM     14  C   LIG    1       26.176  32.051  55.671  0.00  0.00    +0.139 C 
BRANCH  14  15
ATOM     15  C   LIG    1       26.854  32.677  54.451  0.00  0.00    +0.130 C 
ATOM     16 CL   LIG    1       27.419  34.339  54.864  0.00  0.00    -0.124 Cl
ENDBRANCH  14  15
ENDBRANCH   5  14
TORSDOF 2
ENDMDL
MODEL 2
REMARK VINA RESULT:      -4.4      2.527      3.242
REMARK  Name = ZINC00000999
REMARK                            x       y       z     vdW  Elec       q    Type
REMARK                         _______ _______ _______ _____ _____    ______ ____
ROOT
ATOM      1  C   LIG    1       19.531  27.625  55.865  0.00  0.00    +0.155 C 
ATOM      2  N   LIG    1       20.114  28.950  55.632  0.00  0.00    -0.280 N 
ATOM      3  C   LIG    1       21.413  29.061  55.164  0.00  0.00    +0.168 A 
ATOM      4  C   LIG    1       21.942  30.328  54.951  0.00  0.00    +0.151 A 
ATOM      5  N   LIG    1       23.230  30.137  54.491  0.00  0.00    -0.323 N 
ATOM      6  C   LIG    1       23.436  28.805  54.441  0.00  0.00    +0.202 A 
ATOM      7  C   LIG    1       21.143  31.462  55.218  0.00  0.00    +0.282 A 
ATOM      8  N   LIG    1       19.885  31.287  55.673  0.00  0.00    -0.262 N 
ATOM      9  C   LIG    1       19.051  32.458  55.952  0.00  0.00    +0.157 C 
ATOM     10  O   LIG    1       21.585  32.582  55.038  0.00  0.00    -0.265 OA
ATOM     11  N   LIG    1       22.360  28.177  54.839  0.00  0.00    -0.218 NA
ATOM     12  C   LIG    1       19.383  30.056  55.869  0.00  0.00    +0.333 A 
ATOM     13  O   LIG    1       18.243  29.938  56.275  0.00  0.00    -0.246 OA
ENDROOT
BRANCH   5  14
ATOM     14  C   LIG    1       24.189  31.182  54.127  0.00  0.00    +0.139 C 
BRANCH  14  15
ATOM     15  C   LIG    1       25.022  31.559  55.354  0.00  0.00    +0.130 C 
ATOM     16 CL   LIG    1       26.428  32.564  54.840  0.00  0.00    -0.124 Cl
ENDBRANCH  14  15
ENDBRANCH   5  14
TORSDOF 2
ENDMDL
MODEL 3
REMARK VINA RESULT:      -4.3      2.551      4.550
REMARK  Name = ZINC00000999
REMARK                            x       y       z     vdW  Elec       q    Type
REMARK                         _______ _______ _______ _____ _____    ______ ____
ROOT
ATOM      1  C   LIG    1       21.707  30.009  54.098  0.00  0.00    +0.155 C 
ATOM      2  N   LIG    1       22.547  30.194  55.283  0.00  0.00    -0.280 N 
ATOM      3  C   LIG    1       22.161  29.647  56.497  0.00  0.00    +0.168 A 
ATOM      4  C   LIG    1       22.975  29.836  57.606  0.00  0.00    +0.151 A 
ATOM      5  N   LIG    1       22.352  29.193  58.657  0.00  0.00    -0.323 N 
ATOM      6  C   LIG    1       21.218  28.652  58.170  0.00  0.00    +0.202 A 
ATOM      7  C   LIG    1       24.169  30.578  57.466  0.00  0.00    +0.282 A 
ATOM      8  N   LIG    1       24.491  31.084  56.258  0.00  0.00    -0.262 N 
ATOM      9  C   LIG    1       25.728  31.854  56.104  0.00  0.00    +0.157 C 
ATOM     10  O   LIG    1       24.899  30.756  58.424  0.00  0.00    -0.265 OA
ATOM     11  N   LIG    1       21.112  28.924  56.895  0.00  0.00    -0.218 NA
ATOM     12  C   LIG    1       23.697  30.889  55.191  0.00  0.00    +0.333 A 
ATOM     13  O   LIG    1       24.022  31.357  54.116  0.00  0.00    -0.246 OA
ENDROOT
BRANCH   5  14
ATOM     14  C   LIG    1       22.833  29.113  60.039  0.00  0.00    +0.139 C 
BRANCH  14  15
ATOM     15  C   LIG    1       21.990  30.031  60.926  0.00  0.00    +0.130 C 
ATOM     16 CL   LIG    1       22.637  31.711  60.838  0.00  0.00    -0.124 Cl
ENDBRANCH  14  15
ENDBRANCH   5  14
TORSDOF 2
ENDMDL
MODEL 4
REMARK VINA RESULT:      -4.2      3.519      4.678
REMARK  Name = ZINC00000999
REMARK                            x       y       z     vdW  Elec       q    Type
REMARK                         _______ _______ _______ _____ _____    ______ ____
ROOT
ATOM      1  C   LIG    1       17.311  30.864  56.625  0.00  0.00    +0.155 C 
ATOM      2  N   LIG    1       18.679  31.132  56.175  0.00  0.00    -0.280 N 
ATOM      3  C   LIG    1       19.488  30.086  55.760  0.00  0.00    +0.168 A 
ATOM      4  C   LIG    1       20.781  30.365  55.338  0.00  0.00    +0.151 A 
ATOM      5  N   LIG    1       21.345  29.154  54.989  0.00  0.00    -0.323 N 
ATOM      6  C   LIG    1       20.408  28.209  55.203  0.00  0.00    +0.202 A 
ATOM      7  C   LIG    1       21.233  31.704  55.344  0.00  0.00    +0.282 A 
ATOM      8  N   LIG    1       20.397  32.678  55.758  0.00  0.00    -0.262 N 
ATOM      9  C   LIG    1       20.859  34.068  55.767  0.00  0.00    +0.157 C 
ATOM     10  O   LIG    1       22.362  31.974  54.977  0.00  0.00    -0.265 OA
ATOM     11  N   LIG    1       19.315  28.765  55.658  0.00  0.00    -0.218 NA
ATOM     12  C   LIG    1       19.146  32.395  56.159  0.00  0.00    +0.333 A 
ATOM     13  O   LIG    1       18.420  33.300  56.522  0.00  0.00    -0.246 OA
ENDROOT
BRANCH   5  14
ATOM     14  C   LIG    1       22.702  28.938  54.482  0.00  0.00    +0.139 C 
BRANCH  14  15
ATOM     15  C   LIG    1       23.610  28.492  55.630  0.00  0.00    +0.130 C 
ATOM     16 CL   LIG    1       24.831  29.775  55.964  0.00  0.00    -0.124 Cl
ENDBRANCH  14  15
ENDBRANCH   5  14
TORSDOF 2
ENDMDL
MODEL 5
REMARK VINA RESULT:      -4.1      3.304      3.815
REMARK  Name = ZINC00000999
REMARK                            x       y       z     vdW  Elec       q    Type
REMARK                         _______ _______ _______ _____ _____    ______ ____
ROOT
ATOM      1  C   LIG    1       20.812  34.101  57.200  0.00  0.00    +0.155 C 
ATOM      2  N   LIG    1       21.652  32.977  57.622  0.00  0.00    -0.280 N 
ATOM      3  C   LIG    1       22.295  32.199  56.673  0.00  0.00    +0.168 A 
ATOM      4  C   LIG    1       23.086  31.140  57.099  0.00  0.00    +0.151 A 
ATOM      5  N   LIG    1       23.593  30.552  55.957  0.00  0.00    -0.323 N 
ATOM      6  C   LIG    1       23.109  31.248  54.909  0.00  0.00    +0.202 A 
ATOM      7  C   LIG    1       23.212  30.887  58.483  0.00  0.00    +0.282 A 
ATOM      8  N   LIG    1       22.561  31.682  59.358  0.00  0.00    -0.262 N 
ATOM      9  C   LIG    1       22.688  31.426  60.795  0.00  0.00    +0.157 C 
ATOM     10  O   LIG    1       23.901  29.965  58.881  0.00  0.00    -0.265 OA
ATOM     11  N   LIG    1       22.345  32.218  55.339  0.00  0.00    -0.218 NA
ATOM     12  C   LIG    1       21.803  32.707  58.933  0.00  0.00    +0.333 A 
ATOM     13  O   LIG    1       21.236  33.404  59.752  0.00  0.00    -0.246 OA
ENDROOT
BRANCH   5  14
ATOM     14  C   LIG    1       24.485  29.392  55.897  0.00  0.00    +0.139 C 
BRANCH  14  15
ATOM     15  C   LIG    1       23.684  28.153  55.492  0.00  0.00    +0.130 C 
ATOM     16 CL   LIG    1       24.814  26.864  54.931  0.00  0.00    -0.124 Cl
ENDBRANCH  14  15
ENDBRANCH   5  14
TORSDOF 2
ENDMDL
