REMARK VINA RESULT:      -5.1      1.956      3.659
REMARK  Name = ZINC00000523
REMARK                            x       y       z     vdW  Elec       q    Type
REMARK                         _______ _______ _______ _____ _____    ______ ____
ROOT
ATOM      1  C   LIG    1       23.256  29.642  59.261  0.00  0.00    +0.007 C 
ATOM      2  C   LIG    1       23.374  30.950  58.476  0.00  0.00    -0.017 C 
ATOM      3  C   LIG    1       24.293  30.747  57.273  0.00  0.00    -0.060 C 
ATOM      4  C   LIG    1       23.842  29.539  56.471  0.00  0.00    +0.020 C 
ATOM      5  C   LIG    1       22.348  29.508  56.286  0.00  0.00    -0.045 A 
ATOM      6  C   LIG    1       21.831  28.601  55.368  0.00  0.00    +0.007 A 
ATOM      7  C   LIG    1       20.472  28.510  55.161  0.00  0.00    +0.045 A 
ATOM      8  C   LIG    1       19.608  29.327  55.874  0.00  0.00    +0.117 A 
ATOM      9  C   LIG    1       20.123  30.235  56.784  0.00  0.00    +0.049 A 
ATOM     10  C   LIG    1       21.491  30.330  56.983  0.00  0.00    -0.035 A 
ATOM     11  N   LIG    1       24.378  31.945  56.449  0.00  0.00    +0.384 N 
ATOM     12  H   LIG    1       24.783  32.691  56.995  0.00  0.00    -0.081 HD
ATOM     13  C   LIG    1       23.083  32.395  55.980  0.00  0.00    -0.077 C 
ATOM     14  C   LIG    1       22.167  32.684  57.176  0.00  0.00    -0.007 C 
ATOM     15  C   LIG    1       21.994  31.370  57.958  0.00  0.00    -0.007 C 
ATOM     16  C   LIG    1       21.012  31.542  59.119  0.00  0.00    +0.016 C 
ENDROOT
BRANCH   8  17
ATOM     17  O   LIG    1       18.266  29.238  55.680  0.00  0.00    -0.507 OA
ATOM     18  H   LIG    1       17.749  29.852  56.220  0.00  0.00    +0.292 HD
ENDBRANCH   8  17
BRANCH  11  19
ATOM     19  C   LIG    1       25.245  31.672  55.296  0.00  0.00    -0.051 C 
BRANCH  19  20
ATOM     20  C   LIG    1       26.340  32.706  55.236  0.00  0.00    -0.053 C 
ATOM     21  C   LIG    1       27.179  32.715  54.231  0.00  0.00    +0.002 C 
ENDBRANCH  19  20
ENDBRANCH  11  19
TORSDOF 3
