REMARK VINA RESULT:      -5.3      0.000      0.000
REMARK  Name = ZINC00000523
REMARK                            x       y       z     vdW  Elec       q    Type
REMARK                         _______ _______ _______ _____ _____    ______ ____
ROOT
ATOM      1  C   LIG    1       21.065  31.130  55.463  0.00  0.00    +0.007 C 
ATOM      2  C   LIG    1       22.513  30.767  55.127  0.00  0.00    -0.017 C 
ATOM      3  C   LIG    1       23.446  31.884  55.593  0.00  0.00    -0.060 C 
ATOM      4  C   LIG    1       23.172  32.216  57.050  0.00  0.00    +0.020 C 
ATOM      5  C   LIG    1       23.007  30.979  57.891  0.00  0.00    -0.045 A 
ATOM      6  C   LIG    1       23.003  31.136  59.273  0.00  0.00    +0.007 A 
ATOM      7  C   LIG    1       22.840  30.047  60.102  0.00  0.00    +0.045 A 
ATOM      8  C   LIG    1       22.678  28.782  59.557  0.00  0.00    +0.117 A 
ATOM      9  C   LIG    1       22.689  28.625  58.181  0.00  0.00    +0.049 A 
ATOM     10  C   LIG    1       22.861  29.721  57.351  0.00  0.00    -0.035 A 
ATOM     11  N   LIG    1       24.845  31.551  55.365  0.00  0.00    +0.384 N 
ATOM     12  H   LIG    1       24.999  31.445  54.373  0.00  0.00    -0.081 HD
ATOM     13  C   LIG    1       25.238  30.313  56.007  0.00  0.00    -0.077 C 
ATOM     14  C   LIG    1       24.367  29.160  55.493  0.00  0.00    -0.007 C 
ATOM     15  C   LIG    1       22.907  29.479  55.860  0.00  0.00    -0.007 C 
ATOM     16  C   LIG    1       21.974  28.331  55.469  0.00  0.00    +0.016 C 
ENDROOT
BRANCH   8  17
ATOM     17  O   LIG    1       22.510  27.704  60.368  0.00  0.00    -0.507 OA
ATOM     18  H   LIG    1       21.902  27.039  60.017  0.00  0.00    +0.292 HD
ENDBRANCH   8  17
BRANCH  11  19
ATOM     19  C   LIG    1       25.685  32.646  55.865  0.00  0.00    -0.051 C 
BRANCH  19  20
ATOM     20  C   LIG    1       26.728  32.990  54.832  0.00  0.00    -0.053 C 
ATOM     21  C   LIG    1       27.288  34.173  54.835  0.00  0.00    +0.002 C 
ENDBRANCH  19  20
ENDBRANCH  11  19
TORSDOF 3
