REMARK VINA RESULT:      -5.1      1.906      3.223
REMARK  Name = ZINC00000523
REMARK                            x       y       z     vdW  Elec       q    Type
REMARK                         _______ _______ _______ _____ _____    ______ ____
ROOT
ATOM      1  C   LIG    1       23.598  28.092  54.801  0.00  0.00    +0.007 C 
ATOM      2  C   LIG    1       24.161  28.928  55.953  0.00  0.00    -0.017 C 
ATOM      3  C   LIG    1       24.684  30.259  55.414  0.00  0.00    -0.060 C 
ATOM      4  C   LIG    1       23.617  30.935  54.571  0.00  0.00    +0.020 C 
ATOM      5  C   LIG    1       22.260  30.871  55.218  0.00  0.00    -0.045 A 
ATOM      6  C   LIG    1       21.250  31.661  54.679  0.00  0.00    +0.007 A 
ATOM      7  C   LIG    1       19.981  31.639  55.213  0.00  0.00    +0.045 A 
ATOM      8  C   LIG    1       19.701  30.822  56.297  0.00  0.00    +0.117 A 
ATOM      9  C   LIG    1       20.707  30.039  56.839  0.00  0.00    +0.049 A 
ATOM     10  C   LIG    1       21.985  30.071  56.304  0.00  0.00    -0.035 A 
ATOM     11  N   LIG    1       25.161  31.124  56.484  0.00  0.00    +0.384 N 
ATOM     12  H   LIG    1       25.939  30.677  56.945  0.00  0.00    -0.081 HD
ATOM     13  C   LIG    1       24.147  31.389  57.485  0.00  0.00    -0.077 C 
ATOM     14  C   LIG    1       23.664  30.069  58.098  0.00  0.00    -0.007 C 
ATOM     15  C   LIG    1       23.051  29.226  56.966  0.00  0.00    -0.007 C 
ATOM     16  C   LIG    1       22.451  27.926  57.507  0.00  0.00    +0.016 C 
ENDROOT
BRANCH   8  17
ATOM     17  O   LIG    1       18.450  30.789  56.825  0.00  0.00    -0.507 OA
ATOM     18  H   LIG    1       17.807  31.332  56.347  0.00  0.00    +0.292 HD
ENDBRANCH   8  17
BRANCH  11  19
ATOM     19  C   LIG    1       25.616  32.394  55.905  0.00  0.00    -0.051 C 
BRANCH  19  20
ATOM     20  C   LIG    1       26.956  32.194  55.245  0.00  0.00    -0.053 C 
ATOM     21  C   LIG    1       27.197  32.729  54.075  0.00  0.00    +0.002 C 
ENDBRANCH  19  20
ENDBRANCH  11  19
TORSDOF 3
