REMARK VINA RESULT:      -5.0      1.774      2.680
REMARK  Name = ZINC00000523
REMARK                            x       y       z     vdW  Elec       q    Type
REMARK                         _______ _______ _______ _____ _____    ______ ____
ROOT
ATOM      1  C   LIG    1       21.463  32.286  57.977  0.00  0.00    +0.007 C 
ATOM      2  C   LIG    1       22.090  32.291  56.581  0.00  0.00    -0.017 C 
ATOM      3  C   LIG    1       23.576  31.953  56.683  0.00  0.00    -0.060 C 
ATOM      4  C   LIG    1       23.765  30.676  57.483  0.00  0.00    +0.020 C 
ATOM      5  C   LIG    1       22.779  29.609  57.087  0.00  0.00    -0.045 A 
ATOM      6  C   LIG    1       23.001  28.320  57.560  0.00  0.00    +0.007 A 
ATOM      7  C   LIG    1       22.129  27.299  57.248  0.00  0.00    +0.045 A 
ATOM      8  C   LIG    1       21.019  27.556  56.458  0.00  0.00    +0.117 A 
ATOM      9  C   LIG    1       20.801  28.838  55.982  0.00  0.00    +0.049 A 
ATOM     10  C   LIG    1       21.685  29.860  56.291  0.00  0.00    -0.035 A 
ATOM     11  N   LIG    1       24.203  31.870  55.371  0.00  0.00    +0.384 N 
ATOM     12  H   LIG    1       24.146  32.772  54.923  0.00  0.00    -0.081 HD
ATOM     13  C   LIG    1       23.560  30.905  54.502  0.00  0.00    -0.077 C 
ATOM     14  C   LIG    1       22.082  31.272  54.320  0.00  0.00    -0.007 C 
ATOM     15  C   LIG    1       21.416  31.228  55.706  0.00  0.00    -0.007 C 
ATOM     16  C   LIG    1       19.912  31.487  55.606  0.00  0.00    +0.016 C 
ENDROOT
BRANCH   8  17
ATOM     17  O   LIG    1       20.151  26.556  56.152  0.00  0.00    -0.507 OA
ATOM     18  H   LIG    1       19.825  26.582  55.242  0.00  0.00    +0.292 HD
ENDBRANCH   8  17
BRANCH  11  19
ATOM     19  C   LIG    1       25.616  31.509  55.538  0.00  0.00    -0.051 C 
BRANCH  19  20
ATOM     20  C   LIG    1       26.480  32.704  55.228  0.00  0.00    -0.053 C 
ATOM     21  C   LIG    1       27.213  32.719  54.142  0.00  0.00    +0.002 C 
ENDBRANCH  19  20
ENDBRANCH  11  19
TORSDOF 3
