REMARK VINA RESULT:      -5.1      2.697      5.526
REMARK  Name = ZINC00000523
REMARK                            x       y       z     vdW  Elec       q    Type
REMARK                         _______ _______ _______ _____ _____    ______ ____
ROOT
ATOM      1  C   LIG    1       20.241  33.035  55.140  0.00  0.00    +0.007 C 
ATOM      2  C   LIG    1       20.265  31.869  56.131  0.00  0.00    -0.017 C 
ATOM      3  C   LIG    1       20.304  30.546  55.368  0.00  0.00    -0.060 C 
ATOM      4  C   LIG    1       21.429  30.566  54.349  0.00  0.00    +0.020 C 
ATOM      5  C   LIG    1       22.699  31.138  54.920  0.00  0.00    -0.045 A 
ATOM      6  C   LIG    1       23.866  30.984  54.179  0.00  0.00    +0.007 A 
ATOM      7  C   LIG    1       25.060  31.498  54.635  0.00  0.00    +0.045 A 
ATOM      8  C   LIG    1       25.104  32.176  55.844  0.00  0.00    +0.117 A 
ATOM      9  C   LIG    1       23.944  32.324  56.586  0.00  0.00    +0.049 A 
ATOM     10  C   LIG    1       22.746  31.798  56.127  0.00  0.00    -0.035 A 
ATOM     11  N   LIG    1       20.405  29.406  56.268  0.00  0.00    +0.384 N 
ATOM     12  H   LIG    1       19.582  29.375  56.852  0.00  0.00    -0.081 HD
ATOM     13  C   LIG    1       21.561  29.480  57.139  0.00  0.00    -0.077 C 
ATOM     14  C   LIG    1       21.501  30.764  57.975  0.00  0.00    -0.007 C 
ATOM     15  C   LIG    1       21.523  31.955  57.002  0.00  0.00    -0.007 C 
ATOM     16  C   LIG    1       21.566  33.286  57.757  0.00  0.00    +0.016 C 
ENDROOT
BRANCH   8  17
ATOM     17  O   LIG    1       26.276  32.691  56.298  0.00  0.00    -0.507 OA
ATOM     18  H   LIG    1       26.821  32.058  56.786  0.00  0.00    +0.292 HD
ENDBRANCH   8  17
BRANCH  11  19
ATOM     19  C   LIG    1       20.472  28.173  55.473  0.00  0.00    -0.051 C 
BRANCH  19  20
ATOM     20  C   LIG    1       19.221  27.363  55.696  0.00  0.00    -0.053 C 
ATOM     21  C   LIG    1       18.289  27.329  54.777  0.00  0.00    +0.002 C 
ENDBRANCH  19  20
ENDBRANCH  11  19
TORSDOF 3
