MODEL 1
REMARK VINA RESULT:      -5.5      0.000      0.000
REMARK  Name = ZINC00000566
REMARK                            x       y       z     vdW  Elec       q    Type
REMARK                         _______ _______ _______ _____ _____    ______ ____
ROOT
ATOM      1  C   LIG    1       23.472  31.619  55.620  0.00  0.00    +0.041 A 
ATOM      2  C   LIG    1       22.992  30.587  54.830  0.00  0.00    +0.127 A 
ATOM      3  C   LIG    1       21.662  30.573  54.415  0.00  0.00    +0.047 A 
ATOM      4  C   LIG    1       20.813  31.575  54.782  0.00  0.00    +0.015 A 
ATOM      5  C   LIG    1       21.280  32.625  55.580  0.00  0.00    +0.018 A 
ATOM      6  C   LIG    1       20.392  33.716  55.990  0.00  0.00    +0.018 A 
ATOM      7  C   LIG    1       20.901  34.697  56.780  0.00  0.00    +0.092 A 
ATOM      8  C   LIG    1       22.257  34.654  57.165  0.00  0.00    +0.337 A 
ATOM      9  O   LIG    1       22.704  35.545  57.864  0.00  0.00    -0.245 OA
ATOM     10  O   LIG    1       23.068  33.655  56.782  0.00  0.00    -0.422 OA
ATOM     11  C   LIG    1       22.622  32.642  56.008  0.00  0.00    +0.146 A 
ENDROOT
BRANCH   2  12
ATOM     12  O   LIG    1       23.825  29.582  54.457  0.00  0.00    -0.495 OA
ATOM     13  C   LIG    1       23.407  28.248  54.756  0.00  0.00    +0.277 C 
ENDBRANCH   2  12
BRANCH   1  14
ATOM     14  C   LIG    1       24.912  31.624  56.064  0.00  0.00    +0.069 C 
BRANCH  14  18
ATOM     15  C   LIG    1       27.211  33.079  56.805  0.00  0.00    +0.038 C 
ATOM     16  C   LIG    1       26.798  33.004  55.357  0.00  0.00    -0.079 C 
ATOM     17  C   LIG    1       27.579  33.757  54.311  0.00  0.00    +0.038 C 
ATOM     18  C   LIG    1       25.761  32.282  55.008  0.00  0.00    -0.023 C 
ENDBRANCH  14  18
ENDBRANCH   1  14
TORSDOF 3
ENDMDL
MODEL 2
REMARK VINA RESULT:      -5.5      1.734      2.097
REMARK  Name = ZINC00000566
REMARK                            x       y       z     vdW  Elec       q    Type
REMARK                         _______ _______ _______ _____ _____    ______ ____
ROOT
ATOM      1  C   LIG    1       24.001  31.223  56.311  0.00  0.00    +0.041 A 
ATOM      2  C   LIG    1       23.994  29.873  56.624  0.00  0.00    +0.127 A 
ATOM      3  C   LIG    1       23.122  29.376  57.590  0.00  0.00    +0.047 A 
ATOM      4  C   LIG    1       22.263  30.211  58.243  0.00  0.00    +0.015 A 
ATOM      5  C   LIG    1       22.258  31.577  57.940  0.00  0.00    +0.018 A 
ATOM      6  C   LIG    1       21.346  32.498  58.623  0.00  0.00    +0.018 A 
ATOM      7  C   LIG    1       21.402  33.816  58.297  0.00  0.00    +0.092 A 
ATOM      8  C   LIG    1       22.306  34.256  57.309  0.00  0.00    +0.337 A 
ATOM      9  O   LIG    1       22.338  35.439  57.018  0.00  0.00    -0.245 OA
ATOM     10  O   LIG    1       23.135  33.407  56.682  0.00  0.00    -0.422 OA
ATOM     11  C   LIG    1       23.140  32.087  56.968  0.00  0.00    +0.146 A 
ENDROOT
BRANCH   2  12
ATOM     12  O   LIG    1       24.842  29.029  55.984  0.00  0.00    -0.495 OA
ATOM     13  C   LIG    1       24.260  27.912  55.309  0.00  0.00    +0.277 C 
ENDBRANCH   2  12
BRANCH   1  14
ATOM     14  C   LIG    1       24.949  31.751  55.265  0.00  0.00    +0.069 C 
BRANCH  14  18
ATOM     15  C   LIG    1       27.117  32.626  53.689  0.00  0.00    +0.038 C 
ATOM     16  C   LIG    1       27.255  32.549  55.189  0.00  0.00    -0.079 C 
ATOM     17  C   LIG    1       28.571  32.880  55.842  0.00  0.00    +0.038 C 
ATOM     18  C   LIG    1       26.229  32.194  55.923  0.00  0.00    -0.023 C 
ENDBRANCH  14  18
ENDBRANCH   1  14
TORSDOF 3
ENDMDL
MODEL 3
REMARK VINA RESULT:      -5.3      2.796      3.294
REMARK  Name = ZINC00000566
REMARK                            x       y       z     vdW  Elec       q    Type
REMARK                         _______ _______ _______ _____ _____    ______ ____
ROOT
ATOM      1  C   LIG    1       23.954  30.945  56.379  0.00  0.00    +0.041 A 
ATOM      2  C   LIG    1       23.109  31.099  55.292  0.00  0.00    +0.127 A 
ATOM      3  C   LIG    1       21.733  30.932  55.436  0.00  0.00    +0.047 A 
ATOM      4  C   LIG    1       21.198  30.614  56.650  0.00  0.00    +0.015 A 
ATOM      5  C   LIG    1       22.037  30.455  57.759  0.00  0.00    +0.018 A 
ATOM      6  C   LIG    1       21.492  30.114  59.075  0.00  0.00    +0.018 A 
ATOM      7  C   LIG    1       22.360  29.956  60.108  0.00  0.00    +0.092 A 
ATOM      8  C   LIG    1       23.742  30.139  59.897  0.00  0.00    +0.337 A 
ATOM      9  O   LIG    1       24.509  30.005  60.834  0.00  0.00    -0.245 OA
ATOM     10  O   LIG    1       24.236  30.457  58.690  0.00  0.00    -0.422 OA
ATOM     11  C   LIG    1       23.429  30.616  57.618  0.00  0.00    +0.146 A 
ENDROOT
BRANCH   2  12
ATOM     12  O   LIG    1       23.625  31.414  54.077  0.00  0.00    -0.495 OA
ATOM     13  C   LIG    1       23.748  30.352  53.128  0.00  0.00    +0.277 C 
ENDBRANCH   2  12
BRANCH   1  14
ATOM     14  C   LIG    1       25.441  31.127  56.212  0.00  0.00    +0.069 C 
BRANCH  14  18
ATOM     15  C   LIG    1       27.019  32.340  54.215  0.00  0.00    +0.038 C 
ATOM     16  C   LIG    1       26.560  33.142  55.407  0.00  0.00    -0.079 C 
ATOM     17  C   LIG    1       26.997  34.575  55.563  0.00  0.00    +0.038 C 
ATOM     18  C   LIG    1       25.782  32.591  56.306  0.00  0.00    -0.023 C 
ENDBRANCH  14  18
ENDBRANCH   1  14
TORSDOF 3
ENDMDL
MODEL 4
REMARK VINA RESULT:      -5.1      1.751      4.746
REMARK  Name = ZINC00000566
REMARK                            x       y       z     vdW  Elec       q    Type
REMARK                         _______ _______ _______ _____ _____    ______ ____
ROOT
ATOM      1  C   LIG    1       23.793  31.233  56.094  0.00  0.00    +0.041 A 
ATOM      2  C   LIG    1       22.998  32.106  56.818  0.00  0.00    +0.127 A 
ATOM      3  C   LIG    1       22.034  31.620  57.700  0.00  0.00    +0.047 A 
ATOM      4  C   LIG    1       21.860  30.277  57.862  0.00  0.00    +0.015 A 
ATOM      5  C   LIG    1       22.655  29.380  57.139  0.00  0.00    +0.018 A 
ATOM      6  C   LIG    1       22.491  27.932  57.292  0.00  0.00    +0.018 A 
ATOM      7  C   LIG    1       23.281  27.115  56.549  0.00  0.00    +0.092 A 
ATOM      8  C   LIG    1       24.238  27.669  55.674  0.00  0.00    +0.337 A 
ATOM      9  O   LIG    1       24.948  26.925  55.022  0.00  0.00    -0.245 OA
ATOM     10  O   LIG    1       24.388  28.996  55.542  0.00  0.00    -0.422 OA
ATOM     11  C   LIG    1       23.626  29.865  56.242  0.00  0.00    +0.146 A 
ENDROOT
BRANCH   2  12
ATOM     12  O   LIG    1       23.158  33.445  56.668  0.00  0.00    -0.495 OA
ATOM     13  C   LIG    1       22.242  34.291  57.366  0.00  0.00    +0.277 C 
ENDBRANCH   2  12
BRANCH   1  14
ATOM     14  C   LIG    1       24.832  31.769  55.143  0.00  0.00    +0.069 C 
BRANCH  14  18
ATOM     15  C   LIG    1       27.118  32.700  53.781  0.00  0.00    +0.038 C 
ATOM     16  C   LIG    1       27.129  32.584  55.284  0.00  0.00    -0.079 C 
ATOM     17  C   LIG    1       28.383  32.906  56.055  0.00  0.00    +0.038 C 
ATOM     18  C   LIG    1       26.048  32.203  55.919  0.00  0.00    -0.023 C 
ENDBRANCH  14  18
ENDBRANCH   1  14
TORSDOF 3
ENDMDL
MODEL 5
REMARK VINA RESULT:      -5.1      2.945      5.385
REMARK  Name = ZINC00000566
REMARK                            x       y       z     vdW  Elec       q    Type
REMARK                         _______ _______ _______ _____ _____    ______ ____
ROOT
ATOM      1  C   LIG    1       20.164  32.010  55.486  0.00  0.00    +0.041 A 
ATOM      2  C   LIG    1       19.019  31.544  56.111  0.00  0.00    +0.127 A 
ATOM      3  C   LIG    1       18.817  30.177  56.292  0.00  0.00    +0.047 A 
ATOM      4  C   LIG    1       19.745  29.278  55.855  0.00  0.00    +0.015 A 
ATOM      5  C   LIG    1       20.907  29.731  55.221  0.00  0.00    +0.018 A 
ATOM      6  C   LIG    1       21.922  28.788  54.742  0.00  0.00    +0.018 A 
ATOM      7  C   LIG    1       23.020  29.290  54.119  0.00  0.00    +0.092 A 
ATOM      8  C   LIG    1       23.165  30.684  53.968  0.00  0.00    +0.337 A 
ATOM      9  O   LIG    1       24.160  31.121  53.417  0.00  0.00    -0.245 OA
ATOM     10  O   LIG    1       22.235  31.543  54.413  0.00  0.00    -0.422 OA
ATOM     11  C   LIG    1       21.114  31.110  55.030  0.00  0.00    +0.146 A 
ENDROOT
BRANCH   2  12
ATOM     12  O   LIG    1       18.085  32.427  56.551  0.00  0.00    -0.495 OA
ATOM     13  C   LIG    1       16.717  32.104  56.296  0.00  0.00    +0.277 C 
ENDBRANCH   2  12
BRANCH   1  14
ATOM     14  C   LIG    1       20.372  33.490  55.295  0.00  0.00    +0.069 C 
BRANCH  14  18
ATOM     15  C   LIG    1       19.589  35.588  57.008  0.00  0.00    +0.038 C 
ATOM     16  C   LIG    1       20.980  35.015  57.102  0.00  0.00    -0.079 C 
ATOM     17  C   LIG    1       21.974  35.604  58.069  0.00  0.00    +0.038 C 
ATOM     18  C   LIG    1       21.325  34.004  56.342  0.00  0.00    -0.023 C 
ENDBRANCH  14  18
ENDBRANCH   1  14
TORSDOF 3
ENDMDL
