REMARK VINA RESULT:      -5.4      3.968      6.142
REMARK  Name = ZINC00000365
REMARK                            x       y       z     vdW  Elec       q    Type
REMARK                         _______ _______ _______ _____ _____    ______ ____
ROOT
ATOM      1  C   LIG    1       22.352  32.207  58.235  0.00  0.00    +0.050 C 
ATOM      2  C   LIG    1       22.699  32.009  56.758  0.00  0.00    +0.157 C 
ENDROOT
BRANCH   2   3
ATOM      3  O   LIG    1       22.211  33.118  56.001  0.00  0.00    -0.460 OA
BRANCH   3   4
ATOM      4  C   LIG    1       20.986  32.993  55.452  0.00  0.00    +0.339 C 
ATOM      5  O   LIG    1       20.806  32.210  54.542  0.00  0.00    -0.245 OA
BRANCH   4   6
ATOM      6  C   LIG    1       19.863  33.807  55.960  0.00  0.00    +0.059 A 
ATOM      7  C   LIG    1       18.546  33.414  55.716  0.00  0.00    +0.015 A 
ATOM      8  C   LIG    1       17.502  34.179  56.194  0.00  0.00    +0.001 A 
ATOM      9  C   LIG    1       17.758  35.334  56.912  0.00  0.00    +0.000 A 
ATOM     10  C   LIG    1       19.061  35.729  57.158  0.00  0.00    +0.001 A 
ATOM     11  C   LIG    1       20.115  34.970  56.691  0.00  0.00    +0.015 A 
ENDBRANCH   4   6
ENDBRANCH   3   4
ENDBRANCH   2   3
BRANCH   2  12
ATOM     12  C   LIG    1       24.218  31.912  56.599  0.00  0.00    -0.037 C 
BRANCH  12  13
ATOM     13  N   LIG    1       24.556  31.812  55.174  0.00  0.00    +0.383 N 
ATOM     14  H   LIG    1       23.883  32.331  54.630  0.00  0.00    -0.085 HD
ATOM     15  H   LIG    1       24.539  30.843  54.891  0.00  0.00    -0.085 HD
BRANCH  13  16
ATOM     16  C   LIG    1       25.899  32.364  54.949  0.00  0.00    -0.072 C 
ATOM     17  C   LIG    1       26.950  31.309  55.303  0.00  0.00    -0.016 C 
ATOM     18  C   LIG    1       28.348  31.883  55.069  0.00  0.00    -0.002 C 
ATOM     19  C   LIG    1       28.546  33.117  55.952  0.00  0.00    -0.000 C 
ATOM     20  C   LIG    1       27.496  34.172  55.598  0.00  0.00    -0.002 C 
ATOM     21  C   LIG    1       26.098  33.598  55.832  0.00  0.00    -0.016 C 
ENDBRANCH  13  16
ENDBRANCH  12  13
ENDBRANCH   2  12
TORSDOF 6
