REMARK VINA RESULT:      -5.3      3.768      8.032
REMARK  Name = ZINC00000365
REMARK                            x       y       z     vdW  Elec       q    Type
REMARK                         _______ _______ _______ _____ _____    ______ ____
ROOT
ATOM      1  C   LIG    1       23.301  29.556  53.872  0.00  0.00    +0.050 C 
ATOM      2  C   LIG    1       23.268  29.874  55.368  0.00  0.00    +0.157 C 
ENDROOT
BRANCH   2   3
ATOM      3  O   LIG    1       23.759  31.199  55.585  0.00  0.00    -0.460 OA
BRANCH   3   4
ATOM      4  C   LIG    1       24.874  31.323  56.331  0.00  0.00    +0.339 C 
ATOM      5  O   LIG    1       24.964  30.738  57.391  0.00  0.00    -0.245 OA
BRANCH   4   6
ATOM      6  C   LIG    1       25.988  32.171  55.859  0.00  0.00    +0.059 A 
ATOM      7  C   LIG    1       25.915  33.560  55.987  0.00  0.00    +0.015 A 
ATOM      8  C   LIG    1       26.960  34.345  55.545  0.00  0.00    +0.001 A 
ATOM      9  C   LIG    1       28.076  33.760  54.974  0.00  0.00    +0.000 A 
ATOM     10  C   LIG    1       28.154  32.385  54.844  0.00  0.00    +0.001 A 
ATOM     11  C   LIG    1       27.120  31.587  55.288  0.00  0.00    +0.015 A 
ENDBRANCH   4   6
ENDBRANCH   3   4
ENDBRANCH   2   3
BRANCH   2  12
ATOM     12  C   LIG    1       21.829  29.774  55.879  0.00  0.00    -0.037 C 
BRANCH  12  13
ATOM     13  N   LIG    1       21.175  28.607  55.274  0.00  0.00    +0.383 N 
ATOM     14  H   LIG    1       21.695  27.773  55.502  0.00  0.00    -0.085 HD
ATOM     15  H   LIG    1       21.144  28.720  54.272  0.00  0.00    -0.085 HD
BRANCH  13  16
ATOM     16  C   LIG    1       19.805  28.489  55.795  0.00  0.00    -0.072 C 
ATOM     17  C   LIG    1       18.986  27.583  54.873  0.00  0.00    -0.016 C 
ATOM     18  C   LIG    1       17.561  27.459  55.414  0.00  0.00    -0.002 C 
ATOM     19  C   LIG    1       16.916  28.845  55.471  0.00  0.00    -0.000 C 
ATOM     20  C   LIG    1       17.734  29.751  56.393  0.00  0.00    -0.002 C 
ATOM     21  C   LIG    1       19.160  29.875  55.852  0.00  0.00    -0.016 C 
ENDBRANCH  13  16
ENDBRANCH  12  13
ENDBRANCH   2  12
TORSDOF 6
