REMARK VINA RESULT:      -5.3      2.694      4.674
REMARK  Name = ZINC00000365
REMARK                            x       y       z     vdW  Elec       q    Type
REMARK                         _______ _______ _______ _____ _____    ______ ____
ROOT
ATOM      1  C   LIG    1       20.967  31.809  55.860  0.00  0.00    +0.050 C 
ATOM      2  C   LIG    1       22.285  32.123  56.571  0.00  0.00    +0.157 C 
ENDROOT
BRANCH   2   3
ATOM      3  O   LIG    1       23.378  31.844  55.694  0.00  0.00    -0.460 OA
BRANCH   3   4
ATOM      4  C   LIG    1       24.610  31.824  56.239  0.00  0.00    +0.339 C 
ATOM      5  O   LIG    1       24.831  31.137  57.215  0.00  0.00    -0.245 OA
BRANCH   4   6
ATOM      6  C   LIG    1       25.693  32.638  55.649  0.00  0.00    +0.059 A 
ATOM      7  C   LIG    1       25.995  33.894  56.179  0.00  0.00    +0.015 A 
ATOM      8  C   LIG    1       27.008  34.647  55.622  0.00  0.00    +0.001 A 
ATOM      9  C   LIG    1       27.722  34.162  54.542  0.00  0.00    +0.000 A 
ATOM     10  C   LIG    1       27.427  32.919  54.012  0.00  0.00    +0.001 A 
ATOM     11  C   LIG    1       26.422  32.152  54.562  0.00  0.00    +0.015 A 
ENDBRANCH   4   6
ENDBRANCH   3   4
ENDBRANCH   2   3
BRANCH   2  12
ATOM     12  C   LIG    1       22.313  33.601  56.966  0.00  0.00    -0.037 C 
BRANCH  12  13
ATOM     13  N   LIG    1       21.508  34.377  56.015  0.00  0.00    +0.383 N 
ATOM     14  H   LIG    1       20.551  34.057  56.043  0.00  0.00    -0.085 HD
ATOM     15  H   LIG    1       21.875  34.254  55.083  0.00  0.00    -0.085 HD
BRANCH  13  16
ATOM     16  C   LIG    1       21.559  35.801  56.376  0.00  0.00    -0.072 C 
ATOM     17  C   LIG    1       22.729  36.042  57.332  0.00  0.00    -0.016 C 
ATOM     18  C   LIG    1       22.783  37.523  57.709  0.00  0.00    -0.002 C 
ATOM     19  C   LIG    1       21.475  37.923  58.394  0.00  0.00    -0.000 C 
ATOM     20  C   LIG    1       20.304  37.682  57.439  0.00  0.00    -0.002 C 
ATOM     21  C   LIG    1       20.251  36.200  57.061  0.00  0.00    -0.016 C 
ENDBRANCH  13  16
ENDBRANCH  12  13
ENDBRANCH   2  12
TORSDOF 6
