REMARK VINA RESULT:      -5.5      3.778      5.944
REMARK  Name = ZINC00000365
REMARK                            x       y       z     vdW  Elec       q    Type
REMARK                         _______ _______ _______ _____ _____    ______ ____
ROOT
ATOM      1  C   LIG    1       22.684  30.796  54.477  0.00  0.00    +0.050 C 
ATOM      2  C   LIG    1       22.527  31.109  55.966  0.00  0.00    +0.157 C 
ENDROOT
BRANCH   2   3
ATOM      3  O   LIG    1       23.443  32.142  56.335  0.00  0.00    -0.460 OA
BRANCH   3   4
ATOM      4  C   LIG    1       24.741  31.796  56.449  0.00  0.00    +0.339 C 
ATOM      5  O   LIG    1       25.059  30.850  57.141  0.00  0.00    -0.245 OA
BRANCH   4   6
ATOM      6  C   LIG    1       25.777  32.567  55.732  0.00  0.00    +0.059 A 
ATOM      7  C   LIG    1       26.145  33.836  56.185  0.00  0.00    +0.015 A 
ATOM      8  C   LIG    1       27.115  34.550  55.510  0.00  0.00    +0.001 A 
ATOM      9  C   LIG    1       27.719  34.013  54.388  0.00  0.00    +0.000 A 
ATOM     10  C   LIG    1       27.358  32.756  53.934  0.00  0.00    +0.001 A 
ATOM     11  C   LIG    1       26.395  32.029  54.602  0.00  0.00    +0.015 A 
ENDBRANCH   4   6
ENDBRANCH   3   4
ENDBRANCH   2   3
BRANCH   2  12
ATOM     12  C   LIG    1       21.096  31.576  56.242  0.00  0.00    -0.037 C 
BRANCH  12  13
ATOM     13  N   LIG    1       20.524  32.151  55.018  0.00  0.00    +0.383 N 
ATOM     14  H   LIG    1       19.891  31.487  54.598  0.00  0.00    -0.085 HD
ATOM     15  H   LIG    1       21.266  32.366  54.368  0.00  0.00    -0.085 HD
BRANCH  13  16
ATOM     16  C   LIG    1       19.793  33.382  55.351  0.00  0.00    -0.072 C 
ATOM     17  C   LIG    1       20.499  34.098  56.504  0.00  0.00    -0.016 C 
ATOM     18  C   LIG    1       19.739  35.380  56.850  0.00  0.00    -0.002 C 
ATOM     19  C   LIG    1       18.310  35.027  57.267  0.00  0.00    -0.000 C 
ATOM     20  C   LIG    1       17.603  34.311  56.114  0.00  0.00    -0.002 C 
ATOM     21  C   LIG    1       18.364  33.030  55.768  0.00  0.00    -0.016 C 
ENDBRANCH  13  16
ENDBRANCH  12  13
ENDBRANCH   2  12
TORSDOF 6
