REMARK VINA RESULT:      -5.6      0.000      0.000
REMARK  Name = ZINC00000365
REMARK                            x       y       z     vdW  Elec       q    Type
REMARK                         _______ _______ _______ _____ _____    ______ ____
ROOT
ATOM      1  C   LIG    1       27.737  33.042  54.583  0.00  0.00    +0.050 C 
ATOM      2  C   LIG    1       26.443  33.437  55.296  0.00  0.00    +0.157 C 
ENDROOT
BRANCH   2   3
ATOM      3  O   LIG    1       26.010  32.359  56.130  0.00  0.00    -0.460 OA
BRANCH   3   4
ATOM      4  C   LIG    1       24.704  32.033  56.078  0.00  0.00    +0.339 C 
ATOM      5  O   LIG    1       23.870  32.795  56.523  0.00  0.00    -0.245 OA
BRANCH   4   6
ATOM      6  C   LIG    1       24.287  30.749  55.479  0.00  0.00    +0.059 A 
ATOM      7  C   LIG    1       23.654  30.729  54.234  0.00  0.00    +0.015 A 
ATOM      8  C   LIG    1       23.269  29.526  53.680  0.00  0.00    +0.001 A 
ATOM      9  C   LIG    1       23.505  28.342  54.355  0.00  0.00    +0.000 A 
ATOM     10  C   LIG    1       24.131  28.355  55.589  0.00  0.00    +0.001 A 
ATOM     11  C   LIG    1       24.528  29.550  56.152  0.00  0.00    +0.015 A 
ENDBRANCH   4   6
ENDBRANCH   3   4
ENDBRANCH   2   3
BRANCH   2  12
ATOM     12  C   LIG    1       26.692  34.677  56.156  0.00  0.00    -0.037 C 
BRANCH  12  13
ATOM     13  N   LIG    1       25.448  35.447  56.278  0.00  0.00    +0.383 N 
ATOM     14  H   LIG    1       24.844  35.007  56.955  0.00  0.00    -0.085 HD
ATOM     15  H   LIG    1       24.983  35.479  55.383  0.00  0.00    -0.085 HD
BRANCH  13  16
ATOM     16  C   LIG    1       25.759  36.816  56.716  0.00  0.00    -0.072 C 
ATOM     17  C   LIG    1       24.575  37.381  57.503  0.00  0.00    -0.016 C 
ATOM     18  C   LIG    1       24.898  38.804  57.959  0.00  0.00    -0.002 C 
ATOM     19  C   LIG    1       25.163  39.683  56.735  0.00  0.00    -0.000 C 
ATOM     20  C   LIG    1       26.348  39.119  55.948  0.00  0.00    -0.002 C 
ATOM     21  C   LIG    1       26.025  37.695  55.492  0.00  0.00    -0.016 C 
ENDBRANCH  13  16
ENDBRANCH  12  13
ENDBRANCH   2  12
TORSDOF 6
