REMARK VINA RESULT:      -5.3      1.666      2.699
REMARK  Name = ZINC00000393
REMARK                            x       y       z     vdW  Elec       q    Type
REMARK                         _______ _______ _______ _____ _____    ______ ____
ROOT
ATOM      1  N   LIG    1       23.543  29.632  56.824  0.00  0.00    +0.380 N 
ATOM      2  H   LIG    1       23.701  29.628  57.821  0.00  0.00    -0.082 HD
ATOM      3  C   LIG    1       22.276  30.315  56.536  0.00  0.00    -0.079 C 
ATOM      4  C   LIG    1       22.313  31.731  57.113  0.00  0.00    -0.018 C 
ATOM      5  C   LIG    1       23.471  32.507  56.476  0.00  0.00    +0.004 C 
ATOM      6  C   LIG    1       24.777  31.745  56.719  0.00  0.00    +0.002 C 
ATOM      7  C   LIG    1       24.648  30.329  56.157  0.00  0.00    -0.071 C 
ENDROOT
BRANCH   6   8
ATOM      8  C   LIG    1       25.911  32.461  56.032  0.00  0.00    -0.043 A 
ATOM      9  C   LIG    1       26.911  31.733  55.412  0.00  0.00    +0.004 A 
ATOM     10  C   LIG    1       27.954  32.386  54.781  0.00  0.00    +0.004 A 
ATOM     11  C   LIG    1       28.000  33.767  54.770  0.00  0.00    +0.045 A 
ATOM     12  C   LIG    1       26.999  34.499  55.392  0.00  0.00    +0.117 A 
ATOM     13  C   LIG    1       25.950  33.841  56.019  0.00  0.00    +0.049 A 
BRANCH  12  14
ATOM     14  O   LIG    1       27.042  35.857  55.382  0.00  0.00    -0.507 OA
ATOM     15  H   LIG    1       26.344  36.269  54.855  0.00  0.00    +0.292 HD
ENDBRANCH  12  14
ENDBRANCH   6   8
BRANCH   1  16
ATOM     16  C   LIG    1       23.473  28.248  56.336  0.00  0.00    -0.079 C 
BRANCH  16  18
ATOM     17  C   LIG    1       24.186  27.280  54.145  0.00  0.00    +0.002 C 
ATOM     18  C   LIG    1       24.669  27.967  55.424  0.00  0.00    -0.022 C 
ENDBRANCH  16  18
ENDBRANCH   1  16
TORSDOF 4
