REMARK VINA RESULT:      -4.9      2.009      2.842
REMARK  Name = ZINC00000393
REMARK                            x       y       z     vdW  Elec       q    Type
REMARK                         _______ _______ _______ _____ _____    ______ ____
ROOT
ATOM      1  N   LIG    1       22.916  30.432  57.506  0.00  0.00    +0.380 N 
ATOM      2  H   LIG    1       22.224  30.690  56.817  0.00  0.00    -0.082 HD
ATOM      3  C   LIG    1       23.260  29.015  57.342  0.00  0.00    -0.079 C 
ATOM      4  C   LIG    1       23.754  28.768  55.915  0.00  0.00    -0.018 C 
ATOM      5  C   LIG    1       24.993  29.630  55.653  0.00  0.00    +0.004 C 
ATOM      6  C   LIG    1       24.641  31.099  55.900  0.00  0.00    +0.002 C 
ATOM      7  C   LIG    1       24.114  31.260  57.327  0.00  0.00    -0.071 C 
ENDROOT
BRANCH   6   8
ATOM      8  C   LIG    1       25.873  31.949  55.718  0.00  0.00    -0.043 A 
ATOM      9  C   LIG    1       27.074  31.357  55.368  0.00  0.00    +0.004 A 
ATOM     10  C   LIG    1       28.206  32.133  55.201  0.00  0.00    +0.004 A 
ATOM     11  C   LIG    1       28.140  33.501  55.382  0.00  0.00    +0.045 A 
ATOM     12  C   LIG    1       26.937  34.096  55.734  0.00  0.00    +0.117 A 
ATOM     13  C   LIG    1       25.801  33.316  55.895  0.00  0.00    +0.049 A 
BRANCH  12  14
ATOM     14  O   LIG    1       26.870  35.441  55.914  0.00  0.00    -0.507 OA
ATOM     15  H   LIG    1       27.710  35.900  55.772  0.00  0.00    +0.292 HD
ENDBRANCH  12  14
ENDBRANCH   6   8
BRANCH   1  16
ATOM     16  C   LIG    1       22.369  30.649  58.852  0.00  0.00    -0.079 C 
BRANCH  16  18
ATOM     17  C   LIG    1       22.785  29.857  61.186  0.00  0.00    +0.002 C 
ATOM     18  C   LIG    1       23.447  30.346  59.895  0.00  0.00    -0.022 C 
ENDBRANCH  16  18
ENDBRANCH   1  16
TORSDOF 4
