REMARK VINA RESULT:      -5.5      0.000      0.000
REMARK  Name = ZINC00000393
REMARK                            x       y       z     vdW  Elec       q    Type
REMARK                         _______ _______ _______ _____ _____    ______ ____
ROOT
ATOM      1  N   LIG    1       22.588  30.567  55.389  0.00  0.00    +0.380 N 
ATOM      2  H   LIG    1       22.855  29.627  55.134  0.00  0.00    -0.082 HD
ATOM      3  C   LIG    1       22.207  30.596  56.806  0.00  0.00    -0.079 C 
ATOM      4  C   LIG    1       23.366  30.080  57.660  0.00  0.00    -0.018 C 
ATOM      5  C   LIG    1       24.593  30.972  57.441  0.00  0.00    +0.004 C 
ATOM      6  C   LIG    1       24.935  30.992  55.949  0.00  0.00    +0.002 C 
ATOM      7  C   LIG    1       23.718  31.474  55.158  0.00  0.00    -0.071 C 
ENDROOT
BRANCH   6   8
ATOM      8  C   LIG    1       26.094  31.926  55.712  0.00  0.00    -0.043 A 
ATOM      9  C   LIG    1       27.329  31.416  55.353  0.00  0.00    +0.004 A 
ATOM     10  C   LIG    1       28.395  32.270  55.135  0.00  0.00    +0.004 A 
ATOM     11  C   LIG    1       28.229  33.634  55.276  0.00  0.00    +0.045 A 
ATOM     12  C   LIG    1       26.991  34.147  55.637  0.00  0.00    +0.117 A 
ATOM     13  C   LIG    1       25.922  33.289  55.848  0.00  0.00    +0.049 A 
BRANCH  12  14
ATOM     14  O   LIG    1       26.826  35.489  55.776  0.00  0.00    -0.507 OA
ATOM     15  H   LIG    1       27.647  35.972  55.941  0.00  0.00    +0.292 HD
ENDBRANCH  12  14
ENDBRANCH   6   8
BRANCH   1  16
ATOM     16  C   LIG    1       21.446  30.990  54.567  0.00  0.00    -0.079 C 
BRANCH  16  18
ATOM     17  C   LIG    1       20.179  33.097  55.015  0.00  0.00    +0.002 C 
ATOM     18  C   LIG    1       20.392  31.648  55.460  0.00  0.00    -0.022 C 
ENDBRANCH  16  18
ENDBRANCH   1  16
TORSDOF 4
