REMARK VINA RESULT:      -4.7      1.823      2.256
REMARK  Name = ZINC00000393
REMARK                            x       y       z     vdW  Elec       q    Type
REMARK                         _______ _______ _______ _____ _____    ______ ____
ROOT
ATOM      1  N   LIG    1       22.423  29.877  55.840  0.00  0.00    +0.380 N 
ATOM      2  H   LIG    1       22.619  29.436  56.727  0.00  0.00    -0.082 HD
ATOM      3  C   LIG    1       21.446  30.955  56.039  0.00  0.00    -0.079 C 
ATOM      4  C   LIG    1       21.985  31.953  57.065  0.00  0.00    -0.018 C 
ATOM      5  C   LIG    1       23.303  32.543  56.553  0.00  0.00    +0.004 C 
ATOM      6  C   LIG    1       24.288  31.403  56.279  0.00  0.00    +0.002 C 
ATOM      7  C   LIG    1       23.664  30.425  55.282  0.00  0.00    -0.071 C 
ENDROOT
BRANCH   6   8
ATOM      8  C   LIG    1       25.562  31.967  55.704  0.00  0.00    -0.043 A 
ATOM      9  C   LIG    1       25.750  31.990  54.333  0.00  0.00    +0.004 A 
ATOM     10  C   LIG    1       26.917  32.506  53.802  0.00  0.00    +0.004 A 
ATOM     11  C   LIG    1       27.899  32.999  54.639  0.00  0.00    +0.045 A 
ATOM     12  C   LIG    1       27.713  32.977  56.014  0.00  0.00    +0.117 A 
ATOM     13  C   LIG    1       26.538  32.464  56.544  0.00  0.00    +0.049 A 
BRANCH  12  14
ATOM     14  O   LIG    1       28.678  33.462  56.839  0.00  0.00    -0.507 OA
ATOM     15  H   LIG    1       29.353  32.813  57.080  0.00  0.00    +0.292 HD
ENDBRANCH  12  14
ENDBRANCH   6   8
BRANCH   1  16
ATOM     16  C   LIG    1       21.868  28.881  54.913  0.00  0.00    -0.079 C 
BRANCH  16  18
ATOM     17  C   LIG    1       20.091  27.498  55.996  0.00  0.00    +0.002 C 
ATOM     18  C   LIG    1       20.363  28.745  55.151  0.00  0.00    -0.022 C 
ENDBRANCH  16  18
ENDBRANCH   1  16
TORSDOF 4
