REMARK VINA RESULT:      -4.8      2.705      5.806
REMARK  Name = ZINC00000393
REMARK                            x       y       z     vdW  Elec       q    Type
REMARK                         _______ _______ _______ _____ _____    ______ ____
ROOT
ATOM      1  N   LIG    1       25.548  31.131  55.738  0.00  0.00    +0.380 N 
ATOM      2  H   LIG    1       25.923  30.224  55.500  0.00  0.00    -0.082 HD
ATOM      3  C   LIG    1       24.570  31.534  54.721  0.00  0.00    -0.079 C 
ATOM      4  C   LIG    1       23.473  30.473  54.615  0.00  0.00    -0.018 C 
ATOM      5  C   LIG    1       22.774  30.330  55.971  0.00  0.00    +0.004 C 
ATOM      6  C   LIG    1       23.817  29.983  57.036  0.00  0.00    +0.002 C 
ATOM      7  C   LIG    1       24.902  31.062  57.053  0.00  0.00    -0.071 C 
ENDROOT
BRANCH   6   8
ATOM      8  C   LIG    1       23.153  29.914  58.387  0.00  0.00    -0.043 A 
ATOM      9  C   LIG    1       22.472  28.770  58.764  0.00  0.00    +0.004 A 
ATOM     10  C   LIG    1       21.861  28.703  60.002  0.00  0.00    +0.004 A 
ATOM     11  C   LIG    1       21.928  29.780  60.866  0.00  0.00    +0.045 A 
ATOM     12  C   LIG    1       22.609  30.929  60.489  0.00  0.00    +0.117 A 
ATOM     13  C   LIG    1       23.227  30.991  59.249  0.00  0.00    +0.049 A 
BRANCH  12  14
ATOM     14  O   LIG    1       22.675  31.988  61.337  0.00  0.00    -0.507 OA
ATOM     15  H   LIG    1       23.390  32.608  61.138  0.00  0.00    +0.292 HD
ENDBRANCH  12  14
ENDBRANCH   6   8
BRANCH   1  16
ATOM     16  C   LIG    1       26.640  32.113  55.781  0.00  0.00    -0.079 C 
BRANCH  16  18
ATOM     17  C   LIG    1       27.615  33.995  54.455  0.00  0.00    +0.002 C 
ATOM     18  C   LIG    1       26.909  32.639  54.369  0.00  0.00    -0.022 C 
ENDBRANCH  16  18
ENDBRANCH   1  16
TORSDOF 4
