MODEL 1
REMARK VINA RESULT:      -4.7      0.000      0.000
REMARK  Name = ZINC00000061
REMARK                            x       y       z     vdW  Elec       q    Type
REMARK                         _______ _______ _______ _____ _____    ______ ____
ROOT
ATOM      1  C   LIG    1       26.191  32.828  55.960  0.00  0.00    +0.012 C 
ENDROOT
BRANCH   1   8
ATOM      2  C   LIG    1       23.753  32.569  56.465  0.00  0.00    +0.005 A 
ATOM      3  C   LIG    1       22.511  32.020  56.206  0.00  0.00    +0.020 A 
ATOM      4  C   LIG    1       22.353  31.132  55.156  0.00  0.00    +0.041 A 
ATOM      5 CL   LIG    1       20.793  30.443  54.830  0.00  0.00    -0.084 Cl
ATOM      6  C   LIG    1       23.437  30.794  54.368  0.00  0.00    +0.020 A 
ATOM      7  C   LIG    1       24.679  31.343  54.628  0.00  0.00    +0.005 A 
ATOM      8  C   LIG    1       24.837  32.230  55.677  0.00  0.00    -0.045 A 
ENDBRANCH   1   8
BRANCH   1   9
ATOM      9  C   LIG    1       26.040  34.326  56.231  0.00  0.00    -0.078 C 
BRANCH   9  10
ATOM     10  N   LIG    1       26.755  35.085  55.197  0.00  0.00    +0.379 N 
ATOM     11  H   LIG    1       26.521  34.717  54.287  0.00  0.00    -0.090 HD
ATOM     12  H   LIG    1       27.750  35.004  55.347  0.00  0.00    -0.090 HD
ATOM     13  H   LIG    1       26.486  36.056  55.246  0.00  0.00    -0.090 HD
ENDBRANCH   9  10
ENDBRANCH   1   9
BRANCH   1  14
ATOM     14  C   LIG    1       27.104  32.618  54.750  0.00  0.00    +0.126 C 
BRANCH  14  15
ATOM     15  C   LIG    1       28.492  32.273  55.223  0.00  0.00    +0.305 C 
ATOM     16  O   LIG    1       28.890  31.123  55.157  0.00  0.00    -0.251 OA
BRANCH  15  17
ATOM     17  O   LIG    1       29.218  33.144  55.673  0.00  0.00    -0.481 OA
ATOM     18  H   LIG    1       29.273  33.975  55.243  0.00  0.00    +0.295 HD
ENDBRANCH  15  17
ENDBRANCH  14  15
ENDBRANCH   1  14
TORSDOF 6
ENDMDL
MODEL 2
REMARK VINA RESULT:      -4.4      2.349      3.063
REMARK  Name = ZINC00000061
REMARK                            x       y       z     vdW  Elec       q    Type
REMARK                         _______ _______ _______ _____ _____    ______ ____
ROOT
ATOM      1  C   LIG    1       26.435  32.964  55.242  0.00  0.00    +0.012 C 
ENDROOT
BRANCH   1   8
ATOM      2  C   LIG    1       25.605  30.648  55.701  0.00  0.00    +0.005 A 
ATOM      3  C   LIG    1       24.650  29.774  56.188  0.00  0.00    +0.020 A 
ATOM      4  C   LIG    1       23.484  30.266  56.746  0.00  0.00    +0.041 A 
ATOM      5 CL   LIG    1       22.284  29.170  57.358  0.00  0.00    -0.084 Cl
ATOM      6  C   LIG    1       23.273  31.631  56.817  0.00  0.00    +0.020 A 
ATOM      7  C   LIG    1       24.229  32.503  56.330  0.00  0.00    +0.005 A 
ATOM      8  C   LIG    1       25.394  32.012  55.772  0.00  0.00    -0.045 A 
ENDBRANCH   1   8
BRANCH   1   9
ATOM      9  C   LIG    1       27.635  32.169  54.722  0.00  0.00    -0.078 C 
BRANCH   9  10
ATOM     10  N   LIG    1       28.807  32.449  55.561  0.00  0.00    +0.379 N 
ATOM     11  H   LIG    1       28.687  32.013  56.463  0.00  0.00    -0.090 HD
ATOM     12  H   LIG    1       28.906  33.446  55.681  0.00  0.00    -0.090 HD
ATOM     13  H   LIG    1       29.635  32.080  55.118  0.00  0.00    -0.090 HD
ENDBRANCH   9  10
ENDBRANCH   1   9
BRANCH   1  14
ATOM     14  C   LIG    1       26.890  33.899  56.364  0.00  0.00    +0.126 C 
BRANCH  14  15
ATOM     15  C   LIG    1       26.566  35.323  55.993  0.00  0.00    +0.305 C 
ATOM     16  O   LIG    1       26.113  36.083  56.831  0.00  0.00    -0.251 OA
BRANCH  15  17
ATOM     17  O   LIG    1       26.757  35.715  54.854  0.00  0.00    -0.481 OA
ATOM     18  H   LIG    1       27.251  36.497  54.704  0.00  0.00    +0.295 HD
ENDBRANCH  15  17
ENDBRANCH  14  15
ENDBRANCH   1  14
TORSDOF 6
ENDMDL
MODEL 3
REMARK VINA RESULT:      -4.3      4.515      5.884
REMARK  Name = ZINC00000061
REMARK                            x       y       z     vdW  Elec       q    Type
REMARK                         _______ _______ _______ _____ _____    ______ ____
ROOT
ATOM      1  C   LIG    1       23.424  30.039  55.553  0.00  0.00    +0.012 C 
ENDROOT
BRANCH   1   8
ATOM      2  C   LIG    1       25.091  31.430  54.308  0.00  0.00    +0.005 A 
ATOM      3  C   LIG    1       26.189  32.270  54.275  0.00  0.00    +0.020 A 
ATOM      4  C   LIG    1       26.814  32.636  55.453  0.00  0.00    +0.041 A 
ATOM      5 CL   LIG    1       28.192  33.692  55.413  0.00  0.00    -0.084 Cl
ATOM      6  C   LIG    1       26.343  32.161  56.663  0.00  0.00    +0.020 A 
ATOM      7  C   LIG    1       25.246  31.321  56.695  0.00  0.00    +0.005 A 
ATOM      8  C   LIG    1       24.621  30.955  55.518  0.00  0.00    -0.045 A 
ENDBRANCH   1   8
BRANCH   1   9
ATOM      9  C   LIG    1       23.883  28.612  55.860  0.00  0.00    -0.078 C 
BRANCH   9  10
ATOM     10  N   LIG    1       23.565  27.740  54.722  0.00  0.00    +0.379 N 
ATOM     11  H   LIG    1       23.388  26.804  55.055  0.00  0.00    -0.090 HD
ATOM     12  H   LIG    1       24.343  27.727  54.080  0.00  0.00    -0.090 HD
ATOM     13  H   LIG    1       22.745  28.088  54.250  0.00  0.00    -0.090 HD
ENDBRANCH   9  10
ENDBRANCH   1   9
BRANCH   1  14
ATOM     14  C   LIG    1       22.720  30.067  54.195  0.00  0.00    +0.126 C 
BRANCH  14  15
ATOM     15  C   LIG    1       21.320  30.595  54.366  0.00  0.00    +0.305 C 
ATOM     16  O   LIG    1       21.077  31.766  54.129  0.00  0.00    -0.251 OA
BRANCH  15  17
ATOM     17  O   LIG    1       20.429  29.852  54.742  0.00  0.00    -0.481 OA
ATOM     18  H   LIG    1       20.322  29.010  54.344  0.00  0.00    +0.295 HD
ENDBRANCH  15  17
ENDBRANCH  14  15
ENDBRANCH   1  14
TORSDOF 6
ENDMDL
MODEL 4
REMARK VINA RESULT:      -4.1      5.133      6.013
REMARK  Name = ZINC00000061
REMARK                            x       y       z     vdW  Elec       q    Type
REMARK                         _______ _______ _______ _____ _____    ______ ____
ROOT
ATOM      1  C   LIG    1       23.724  38.229  57.195  0.00  0.00    +0.012 C 
ENDROOT
BRANCH   1   8
ATOM      2  C   LIG    1       21.237  38.374  57.436  0.00  0.00    +0.005 A 
ATOM      3  C   LIG    1       19.979  37.800  57.417  0.00  0.00    +0.020 A 
ATOM      4  C   LIG    1       19.839  36.452  57.136  0.00  0.00    +0.041 A 
ATOM      5 CL   LIG    1       18.260  35.730  57.113  0.00  0.00    -0.084 Cl
ATOM      6  C   LIG    1       20.957  35.681  56.875  0.00  0.00    +0.020 A 
ATOM      7  C   LIG    1       22.213  36.256  56.894  0.00  0.00    +0.005 A 
ATOM      8  C   LIG    1       22.353  37.602  57.175  0.00  0.00    -0.045 A 
ENDBRANCH   1   8
BRANCH   1   9
ATOM      9  C   LIG    1       23.599  39.736  56.962  0.00  0.00    -0.078 C 
BRANCH   9  10
ATOM     10  N   LIG    1       23.918  40.042  55.561  0.00  0.00    +0.379 N 
ATOM     11  H   LIG    1       23.245  40.701  55.200  0.00  0.00    -0.090 HD
ATOM     12  H   LIG    1       23.884  39.194  55.015  0.00  0.00    -0.090 HD
ATOM     13  H   LIG    1       24.842  40.441  55.506  0.00  0.00    -0.090 HD
ENDBRANCH   9  10
ENDBRANCH   1   9
BRANCH   1  14
ATOM     14  C   LIG    1       24.583  37.611  56.091  0.00  0.00    +0.126 C 
BRANCH  14  15
ATOM     15  C   LIG    1       25.909  37.184  56.665  0.00  0.00    +0.305 C 
ATOM     16  O   LIG    1       26.320  36.052  56.474  0.00  0.00    -0.251 OA
BRANCH  15  17
ATOM     17  O   LIG    1       26.571  37.970  57.322  0.00  0.00    -0.481 OA
ATOM     18  H   LIG    1       26.366  38.884  57.304  0.00  0.00    +0.295 HD
ENDBRANCH  15  17
ENDBRANCH  14  15
ENDBRANCH   1  14
TORSDOF 6
ENDMDL
MODEL 5
REMARK VINA RESULT:      -4.1      4.491      5.777
REMARK  Name = ZINC00000061
REMARK                            x       y       z     vdW  Elec       q    Type
REMARK                         _______ _______ _______ _____ _____    ______ ____
ROOT
ATOM      1  C   LIG    1       23.275  30.355  56.140  0.00  0.00    +0.012 C 
ENDROOT
BRANCH   1   8
ATOM      2  C   LIG    1       24.867  31.503  54.588  0.00  0.00    +0.005 A 
ATOM      3  C   LIG    1       26.022  32.226  54.349  0.00  0.00    +0.020 A 
ATOM      4  C   LIG    1       26.842  32.588  55.403  0.00  0.00    +0.041 A 
ATOM      5 CL   LIG    1       28.291  33.495  55.103  0.00  0.00    -0.084 Cl
ATOM      6  C   LIG    1       26.507  32.226  56.695  0.00  0.00    +0.020 A 
ATOM      7  C   LIG    1       25.353  31.504  56.933  0.00  0.00    +0.005 A 
ATOM      8  C   LIG    1       24.534  31.142  55.880  0.00  0.00    -0.045 A 
ENDBRANCH   1   8
BRANCH   1   9
ATOM      9  C   LIG    1       23.276  29.855  57.586  0.00  0.00    -0.078 C 
BRANCH   9  10
ATOM     10  N   LIG    1       21.893  29.650  58.034  0.00  0.00    +0.379 N 
ATOM     11  H   LIG    1       21.291  29.547  57.231  0.00  0.00    -0.090 HD
ATOM     12  H   LIG    1       21.593  30.445  58.578  0.00  0.00    -0.090 HD
ATOM     13  H   LIG    1       21.842  28.817  58.600  0.00  0.00    -0.090 HD
ENDBRANCH   9  10
ENDBRANCH   1   9
BRANCH   1  14
ATOM     14  C   LIG    1       23.216  29.159  55.188  0.00  0.00    +0.126 C 
BRANCH  14  15
ATOM     15  C   LIG    1       21.829  29.045  54.610  0.00  0.00    +0.305 C 
ATOM     16  O   LIG    1       20.980  28.387  55.187  0.00  0.00    -0.251 OA
BRANCH  15  17
ATOM     17  O   LIG    1       21.556  29.611  53.565  0.00  0.00    -0.481 OA
ATOM     18  H   LIG    1       22.148  29.568  52.840  0.00  0.00    +0.295 HD
ENDBRANCH  15  17
ENDBRANCH  14  15
ENDBRANCH   1  14
TORSDOF 6
ENDMDL
