MODEL 1
REMARK VINA RESULT:      -5.9      0.000      0.000
REMARK  Name = ZINC00000346
REMARK                            x       y       z     vdW  Elec       q    Type
REMARK                         _______ _______ _______ _____ _____    ______ ____
ROOT
ATOM      1  C   LIG    1       24.607  31.076  55.836  0.00  0.00    +0.190 C 
ENDROOT
BRANCH   1   2
ATOM      2  C   LIG    1       23.734  31.378  57.027  0.00  0.00    -0.005 A 
ATOM      3  C   LIG    1       23.822  30.598  58.164  0.00  0.00    +0.007 A 
ATOM      4  C   LIG    1       23.022  30.875  59.257  0.00  0.00    +0.000 A 
ATOM      5  C   LIG    1       22.133  31.934  59.211  0.00  0.00    +0.000 A 
ATOM      6  C   LIG    1       22.046  32.714  58.074  0.00  0.00    +0.000 A 
ATOM      7  C   LIG    1       22.849  32.440  56.984  0.00  0.00    +0.007 A 
ENDBRANCH   1   2
BRANCH   1   8
ATOM      8  C   LIG    1       25.401  32.327  55.454  0.00  0.00    +0.036 C 
ATOM      9  C   LIG    1       26.270  32.064  54.200  0.00  0.00    +0.007 C 
ATOM     10  C   LIG    1       27.404  33.106  54.302  0.00  0.00    +0.000 C 
ATOM     11  C   LIG    1       27.522  33.484  55.788  0.00  0.00    +0.000 C 
ATOM     12  C   LIG    1       26.455  32.660  56.539  0.00  0.00    +0.007 C 
ENDBRANCH   1   8
BRANCH   1  13
ATOM     13  C   LIG    1       23.743  30.655  54.675  0.00  0.00    +0.344 C 
ATOM     14  O   LIG    1       23.096  31.480  54.073  0.00  0.00    -0.247 OA
BRANCH  13  15
ATOM     15  O   LIG    1       23.692  29.365  54.309  0.00  0.00    -0.461 OA
BRANCH  15  21
ATOM     16  C   LIG    1       19.429  28.144  55.246  0.00  0.00    -0.092 C 
ATOM     17  N   LIG    1       20.518  28.789  55.991  0.00  0.00    +0.379 N 
ATOM     18  C   LIG    1       19.957  29.679  57.016  0.00  0.00    -0.092 C 
ATOM     19  C   LIG    1       21.355  27.760  56.637  0.00  0.00    -0.072 C 
ATOM     20  C   LIG    1       22.779  27.900  56.058  0.00  0.00    +0.025 C 
ATOM     21  C   LIG    1       22.537  28.623  54.707  0.00  0.00    +0.159 C 
ATOM     22  C   LIG    1       21.364  29.569  55.063  0.00  0.00    -0.031 C 
ENDBRANCH  15  21
ENDBRANCH  13  15
ENDBRANCH   1  13
BRANCH   1  23
ATOM     23  O   LIG    1       25.511  30.019  56.163  0.00  0.00    -0.373 OA
ATOM     24  H   LIG    1       26.185  30.264  56.812  0.00  0.00    +0.211 HD
ENDBRANCH   1  23
TORSDOF 6
ENDMDL
MODEL 2
REMARK VINA RESULT:      -5.7      2.085      4.845
REMARK  Name = ZINC00000346
REMARK                            x       y       z     vdW  Elec       q    Type
REMARK                         _______ _______ _______ _____ _____    ______ ____
ROOT
ATOM      1  C   LIG    1       24.921  30.939  56.014  0.00  0.00    +0.190 C 
ENDROOT
BRANCH   1   2
ATOM      2  C   LIG    1       26.028  31.894  55.646  0.00  0.00    -0.005 A 
ATOM      3  C   LIG    1       26.217  32.258  54.327  0.00  0.00    +0.007 A 
ATOM      4  C   LIG    1       27.233  33.134  53.990  0.00  0.00    +0.000 A 
ATOM      5  C   LIG    1       28.059  33.644  54.974  0.00  0.00    +0.000 A 
ATOM      6  C   LIG    1       27.870  33.281  56.294  0.00  0.00    +0.000 A 
ATOM      7  C   LIG    1       26.851  32.409  56.631  0.00  0.00    +0.007 A 
ENDBRANCH   1   2
BRANCH   1   8
ATOM      8  C   LIG    1       23.862  30.937  54.909  0.00  0.00    +0.036 C 
ATOM      9  C   LIG    1       22.528  31.528  55.427  0.00  0.00    +0.007 C 
ATOM     10  C   LIG    1       21.459  30.923  54.493  0.00  0.00    +0.000 C 
ATOM     11  C   LIG    1       22.057  29.626  53.922  0.00  0.00    +0.000 C 
ATOM     12  C   LIG    1       23.470  29.488  54.528  0.00  0.00    +0.007 C 
ENDBRANCH   1   8
BRANCH   1  13
ATOM     13  C   LIG    1       24.292  31.376  57.312  0.00  0.00    +0.344 C 
ATOM     14  O   LIG    1       23.621  32.381  57.350  0.00  0.00    -0.247 OA
BRANCH  13  15
ATOM     15  O   LIG    1       24.476  30.649  58.424  0.00  0.00    -0.461 OA
BRANCH  15  21
ATOM     16  C   LIG    1       21.554  29.236  61.588  0.00  0.00    -0.092 C 
ATOM     17  N   LIG    1       22.559  28.591  60.733  0.00  0.00    +0.379 N 
ATOM     18  C   LIG    1       23.090  27.398  61.405  0.00  0.00    -0.092 C 
ATOM     19  C   LIG    1       21.944  28.201  59.450  0.00  0.00    -0.072 C 
ATOM     20  C   LIG    1       22.689  28.966  58.334  0.00  0.00    +0.025 C 
ATOM     21  C   LIG    1       23.304  30.172  59.090  0.00  0.00    +0.159 C 
ATOM     22  C   LIG    1       23.660  29.538  60.457  0.00  0.00    -0.031 C 
ENDBRANCH  15  21
ENDBRANCH  13  15
ENDBRANCH   1  13
BRANCH   1  23
ATOM     23  O   LIG    1       25.456  29.623  56.164  0.00  0.00    -0.373 OA
ATOM     24  H   LIG    1       26.391  29.604  56.409  0.00  0.00    +0.211 HD
ENDBRANCH   1  23
TORSDOF 6
ENDMDL
MODEL 3
REMARK VINA RESULT:      -5.5      2.239      5.832
REMARK  Name = ZINC00000346
REMARK                            x       y       z     vdW  Elec       q    Type
REMARK                         _______ _______ _______ _____ _____    ______ ____
ROOT
ATOM      1  C   LIG    1       21.841  31.297  55.350  0.00  0.00    +0.190 C 
ENDROOT
BRANCH   1   2
ATOM      2  C   LIG    1       21.628  32.522  56.203  0.00  0.00    -0.005 A 
ATOM      3  C   LIG    1       22.022  32.519  57.528  0.00  0.00    +0.007 A 
ATOM      4  C   LIG    1       21.826  33.641  58.310  0.00  0.00    +0.000 A 
ATOM      5  C   LIG    1       21.236  34.768  57.767  0.00  0.00    +0.000 A 
ATOM      6  C   LIG    1       20.843  34.771  56.442  0.00  0.00    +0.000 A 
ATOM      7  C   LIG    1       21.043  33.650  55.659  0.00  0.00    +0.007 A 
ENDBRANCH   1   2
BRANCH   1   8
ATOM      8  C   LIG    1       21.030  30.131  55.920  0.00  0.00    +0.036 C 
ATOM      9  C   LIG    1       21.004  28.944  54.926  0.00  0.00    +0.007 C 
ATOM     10  C   LIG    1       19.732  28.160  55.308  0.00  0.00    +0.000 C 
ATOM     11  C   LIG    1       18.797  29.156  56.015  0.00  0.00    +0.000 C 
ATOM     12  C   LIG    1       19.534  30.511  56.040  0.00  0.00    +0.007 C 
ENDBRANCH   1   8
BRANCH   1  13
ATOM     13  C   LIG    1       23.305  30.937  55.347  0.00  0.00    +0.344 C 
ATOM     14  O   LIG    1       23.729  30.123  56.134  0.00  0.00    -0.247 OA
BRANCH  13  15
ATOM     15  O   LIG    1       24.137  31.520  54.471  0.00  0.00    -0.461 OA
BRANCH  15  21
ATOM     16  C   LIG    1       27.654  33.197  56.787  0.00  0.00    -0.092 C 
ATOM     17  N   LIG    1       26.873  33.626  55.619  0.00  0.00    +0.379 N 
ATOM     18  C   LIG    1       26.872  35.092  55.535  0.00  0.00    -0.092 C 
ATOM     19  C   LIG    1       27.465  33.062  54.391  0.00  0.00    -0.072 C 
ATOM     20  C   LIG    1       26.394  32.160  53.740  0.00  0.00    +0.025 C 
ATOM     21  C   LIG    1       25.459  31.815  54.928  0.00  0.00    +0.159 C 
ATOM     22  C   LIG    1       25.484  33.134  55.741  0.00  0.00    -0.031 C 
ENDBRANCH  15  21
ENDBRANCH  13  15
ENDBRANCH   1  13
BRANCH   1  23
ATOM     23  O   LIG    1       21.415  31.567  54.014  0.00  0.00    -0.373 OA
ATOM     24  H   LIG    1       21.162  30.779  53.515  0.00  0.00    +0.211 HD
ENDBRANCH   1  23
TORSDOF 6
ENDMDL
MODEL 4
REMARK VINA RESULT:      -5.5      2.527      5.581
REMARK  Name = ZINC00000346
REMARK                            x       y       z     vdW  Elec       q    Type
REMARK                         _______ _______ _______ _____ _____    ______ ____
ROOT
ATOM      1  C   LIG    1       24.412  31.450  56.196  0.00  0.00    +0.190 C 
ENDROOT
BRANCH   1   2
ATOM      2  C   LIG    1       25.508  32.310  55.621  0.00  0.00    -0.005 A 
ATOM      3  C   LIG    1       25.924  33.442  56.294  0.00  0.00    +0.007 A 
ATOM      4  C   LIG    1       26.930  34.231  55.767  0.00  0.00    +0.000 A 
ATOM      5  C   LIG    1       27.518  33.886  54.564  0.00  0.00    +0.000 A 
ATOM      6  C   LIG    1       27.103  32.754  53.890  0.00  0.00    +0.000 A 
ATOM      7  C   LIG    1       26.100  31.963  54.420  0.00  0.00    +0.007 A 
ENDBRANCH   1   2
BRANCH   1   8
ATOM      8  C   LIG    1       24.131  30.281  55.250  0.00  0.00    +0.036 C 
ATOM      9  C   LIG    1       22.644  29.858  55.327  0.00  0.00    +0.007 C 
ATOM     10  C   LIG    1       22.644  28.389  54.855  0.00  0.00    +0.000 C 
ATOM     11  C   LIG    1       24.062  27.847  55.105  0.00  0.00    +0.000 C 
ATOM     12  C   LIG    1       24.875  29.006  55.719  0.00  0.00    +0.007 C 
ENDBRANCH   1   8
BRANCH   1  13
ATOM     13  C   LIG    1       23.161  32.275  56.359  0.00  0.00    +0.344 C 
ATOM     14  O   LIG    1       22.519  32.599  55.388  0.00  0.00    -0.247 OA
BRANCH  13  15
ATOM     15  O   LIG    1       22.760  32.650  57.584  0.00  0.00    -0.461 OA
BRANCH  15  21
ATOM     16  C   LIG    1       20.543  36.593  57.298  0.00  0.00    -0.092 C 
ATOM     17  N   LIG    1       21.393  35.943  58.305  0.00  0.00    +0.379 N 
ATOM     18  C   LIG    1       22.085  36.964  59.101  0.00  0.00    -0.092 C 
ATOM     19  C   LIG    1       20.561  35.107  59.191  0.00  0.00    -0.072 C 
ATOM     20  C   LIG    1       21.052  33.651  59.039  0.00  0.00    +0.025 C 
ATOM     21  C   LIG    1       21.753  33.662  57.656  0.00  0.00    +0.159 C 
ATOM     22  C   LIG    1       22.385  35.076  57.635  0.00  0.00    -0.031 C 
ENDBRANCH  15  21
ENDBRANCH  13  15
ENDBRANCH   1  13
BRANCH   1  23
ATOM     23  O   LIG    1       24.819  30.947  57.469  0.00  0.00    -0.373 OA
ATOM     24  H   LIG    1       24.212  31.162  58.190  0.00  0.00    +0.211 HD
ENDBRANCH   1  23
TORSDOF 6
ENDMDL
MODEL 5
REMARK VINA RESULT:      -5.4      2.634      5.854
REMARK  Name = ZINC00000346
REMARK                            x       y       z     vdW  Elec       q    Type
REMARK                         _______ _______ _______ _____ _____    ______ ____
ROOT
ATOM      1  C   LIG    1       22.435  30.642  57.727  0.00  0.00    +0.190 C 
ENDROOT
BRANCH   1   2
ATOM      2  C   LIG    1       21.854  31.841  57.021  0.00  0.00    -0.005 A 
ATOM      3  C   LIG    1       21.992  33.101  57.570  0.00  0.00    +0.007 A 
ATOM      4  C   LIG    1       21.459  34.200  56.923  0.00  0.00    +0.000 A 
ATOM      5  C   LIG    1       20.787  34.037  55.725  0.00  0.00    +0.000 A 
ATOM      6  C   LIG    1       20.649  32.777  55.175  0.00  0.00    +0.000 A 
ATOM      7  C   LIG    1       21.186  31.679  55.821  0.00  0.00    +0.007 A 
ENDBRANCH   1   2
BRANCH   1   8
ATOM      8  C   LIG    1       22.420  30.884  59.238  0.00  0.00    +0.036 C 
ATOM      9  C   LIG    1       23.420  29.943  59.953  0.00  0.00    +0.007 C 
ATOM     10  C   LIG    1       22.882  29.846  61.396  0.00  0.00    +0.000 C 
ATOM     11  C   LIG    1       21.381  30.177  61.328  0.00  0.00    +0.000 C 
ATOM     12  C   LIG    1       21.059  30.465  59.847  0.00  0.00    +0.007 C 
ENDBRANCH   1   8
BRANCH   1  13
ATOM     13  C   LIG    1       23.854  30.428  57.266  0.00  0.00    +0.344 C 
ATOM     14  O   LIG    1       24.206  29.339  56.878  0.00  0.00    -0.247 OA
BRANCH  13  15
ATOM     15  O   LIG    1       24.726  31.448  57.287  0.00  0.00    -0.461 OA
BRANCH  15  21
ATOM     16  C   LIG    1       28.643  32.104  55.102  0.00  0.00    -0.092 C 
ATOM     17  N   LIG    1       27.378  32.841  55.221  0.00  0.00    +0.379 N 
ATOM     18  C   LIG    1       27.625  34.279  55.061  0.00  0.00    -0.092 C 
ATOM     19  C   LIG    1       26.438  32.384  54.180  0.00  0.00    -0.072 C 
ATOM     20  C   LIG    1       25.207  31.795  54.902  0.00  0.00    +0.025 C 
ATOM     21  C   LIG    1       25.764  31.434  56.304  0.00  0.00    +0.159 C 
ATOM     22  C   LIG    1       26.774  32.583  56.545  0.00  0.00    -0.031 C 
ENDBRANCH  15  21
ENDBRANCH  13  15
ENDBRANCH   1  13
BRANCH   1  23
ATOM     23  O   LIG    1       21.656  29.484  57.421  0.00  0.00    -0.373 OA
ATOM     24  H   LIG    1       21.276  29.489  56.532  0.00  0.00    +0.211 HD
ENDBRANCH   1  23
TORSDOF 6
ENDMDL
