REMARK VINA RESULT:      -5.7      2.132      4.917
REMARK  Name = ZINC00000103
REMARK                            x       y       z     vdW  Elec       q    Type
REMARK                         _______ _______ _______ _____ _____    ______ ____
ROOT
ATOM      1  C   LIG    1       15.738  33.196  57.044  0.00  0.00    +0.105 C 
ATOM      2  N   LIG    1       17.106  33.091  56.517  0.00  0.00    -0.298 NA
ATOM      3  C   LIG    1       17.993  34.060  57.163  0.00  0.00    +0.089 C 
ATOM      4  C   LIG    1       19.332  34.126  56.449  0.00  0.00    +0.051 C 
ATOM      5  C   LIG    1       19.801  32.776  55.987  0.00  0.00    -0.037 A 
ATOM      6  C   LIG    1       21.083  32.676  55.460  0.00  0.00    +0.053 A 
ATOM      7  C   LIG    1       21.586  31.458  55.040  0.00  0.00    +0.167 A 
ATOM      8  C   LIG    1       20.796  30.317  55.136  0.00  0.00    +0.174 A 
ATOM      9  O   LIG    1       21.511  29.250  54.673  0.00  0.00    -0.452 OA
ATOM     10  C   LIG    1       22.591  29.816  53.907  0.00  0.00    +0.466 C 
ATOM     11  C   LIG    1       19.504  30.418  55.644  0.00  0.00    +0.036 A 
ATOM     12  C   LIG    1       18.643  29.215  55.749  0.00  0.00    +0.034 A 
ATOM     13  C   LIG    1       19.197  27.937  55.683  0.00  0.00    +0.167 A 
ATOM     14  C   LIG    1       18.370  26.825  55.802  0.00  0.00    +0.162 A 
ATOM     15  C   LIG    1       17.007  26.993  55.986  0.00  0.00    +0.050 A 
ATOM     16  C   LIG    1       16.460  28.263  56.044  0.00  0.00    +0.008 A 
ATOM     17  C   LIG    1       17.270  29.373  55.920  0.00  0.00    -0.034 A 
ATOM     18  C   LIG    1       16.680  30.756  55.964  0.00  0.00    +0.059 C 
ATOM     19  O   LIG    1       22.793  31.110  54.505  0.00  0.00    -0.453 OA
ATOM     20  C   LIG    1       19.011  31.651  56.081  0.00  0.00    -0.015 A 
ATOM     21  C   LIG    1       17.626  31.724  56.670  0.00  0.00    +0.092 C 
ENDROOT
BRANCH  13  22
ATOM     22  O   LIG    1       20.536  27.779  55.504  0.00  0.00    -0.503 OA
ATOM     23  H   LIG    1       20.860  26.894  55.720  0.00  0.00    +0.292 HD
ENDBRANCH  13  22
BRANCH  14  24
ATOM     24  O   LIG    1       18.899  25.574  55.737  0.00  0.00    -0.491 OA
ATOM     25  C   LIG    1       18.100  24.563  55.121  0.00  0.00    +0.277 C 
ENDBRANCH  14  24
TORSDOF 2
