REMARK VINA RESULT:      -5.8      3.258      5.179
REMARK  Name = ZINC00000103
REMARK                            x       y       z     vdW  Elec       q    Type
REMARK                         _______ _______ _______ _____ _____    ______ ____
ROOT
ATOM      1  C   LIG    1       15.791  34.205  56.904  0.00  0.00    +0.105 C 
ATOM      2  N   LIG    1       16.789  35.278  57.016  0.00  0.00    -0.298 NA
ATOM      3  C   LIG    1       16.445  36.205  58.096  0.00  0.00    +0.089 C 
ATOM      4  C   LIG    1       17.327  37.440  58.048  0.00  0.00    +0.051 C 
ATOM      5  C   LIG    1       18.747  37.115  57.676  0.00  0.00    -0.037 A 
ATOM      6  C   LIG    1       19.690  38.134  57.750  0.00  0.00    +0.053 A 
ATOM      7  C   LIG    1       21.017  37.897  57.445  0.00  0.00    +0.167 A 
ATOM      8  C   LIG    1       21.416  36.624  57.049  0.00  0.00    +0.174 A 
ATOM      9  O   LIG    1       22.761  36.639  56.818  0.00  0.00    -0.452 OA
ATOM     10  C   LIG    1       23.109  38.030  56.672  0.00  0.00    +0.466 C 
ATOM     11  C   LIG    1       20.470  35.607  56.954  0.00  0.00    +0.036 A 
ATOM     12  C   LIG    1       20.872  34.246  56.528  0.00  0.00    +0.034 A 
ATOM     13  C   LIG    1       22.212  33.860  56.554  0.00  0.00    +0.167 A 
ATOM     14  C   LIG    1       22.561  32.571  56.166  0.00  0.00    +0.162 A 
ATOM     15  C   LIG    1       21.581  31.680  55.759  0.00  0.00    +0.050 A 
ATOM     16  C   LIG    1       20.253  32.069  55.727  0.00  0.00    +0.008 A 
ATOM     17  C   LIG    1       19.895  33.348  56.103  0.00  0.00    -0.034 A 
ATOM     18  C   LIG    1       18.456  33.783  56.053  0.00  0.00    +0.059 C 
ATOM     19  O   LIG    1       22.110  38.715  57.450  0.00  0.00    -0.453 OA
ATOM     20  C   LIG    1       19.133  35.854  57.280  0.00  0.00    -0.015 A 
ATOM     21  C   LIG    1       18.137  34.725  57.213  0.00  0.00    +0.092 C 
ENDROOT
BRANCH  13  22
ATOM     22  O   LIG    1       23.170  34.737  56.957  0.00  0.00    -0.503 OA
ATOM     23  H   LIG    1       24.014  34.637  56.496  0.00  0.00    +0.292 HD
ENDBRANCH  13  22
BRANCH  14  24
ATOM     24  O   LIG    1       23.866  32.184  56.186  0.00  0.00    -0.491 OA
ATOM     25  C   LIG    1       24.349  31.473  55.046  0.00  0.00    +0.277 C 
ENDBRANCH  14  24
TORSDOF 2
