REMARK VINA RESULT:      -5.8      1.691      2.804
REMARK  Name = ZINC00000103
REMARK                            x       y       z     vdW  Elec       q    Type
REMARK                         _______ _______ _______ _____ _____    ______ ____
ROOT
ATOM      1  C   LIG    1       23.575  37.487  57.943  0.00  0.00    +0.105 C 
ATOM      2  N   LIG    1       22.132  37.224  57.861  0.00  0.00    -0.298 NA
ATOM      3  C   LIG    1       21.403  38.420  57.437  0.00  0.00    +0.089 C 
ATOM      4  C   LIG    1       19.905  38.224  57.596  0.00  0.00    +0.051 C 
ATOM      5  C   LIG    1       19.469  36.833  57.232  0.00  0.00    -0.037 A 
ATOM      6  C   LIG    1       18.105  36.570  57.183  0.00  0.00    +0.053 A 
ATOM      7  C   LIG    1       17.635  35.318  56.831  0.00  0.00    +0.167 A 
ATOM      8  C   LIG    1       18.538  34.303  56.529  0.00  0.00    +0.174 A 
ATOM      9  O   LIG    1       17.838  33.178  56.204  0.00  0.00    -0.452 OA
ATOM     10  C   LIG    1       16.508  33.393  56.713  0.00  0.00    +0.466 C 
ATOM     11  C   LIG    1       19.905  34.559  56.598  0.00  0.00    +0.036 A 
ATOM     12  C   LIG    1       20.884  33.490  56.287  0.00  0.00    +0.034 A 
ATOM     13  C   LIG    1       20.490  32.344  55.596  0.00  0.00    +0.167 A 
ATOM     14  C   LIG    1       21.433  31.365  55.301  0.00  0.00    +0.162 A 
ATOM     15  C   LIG    1       22.751  31.532  55.692  0.00  0.00    +0.050 A 
ATOM     16  C   LIG    1       23.137  32.667  56.384  0.00  0.00    +0.008 A 
ATOM     17  C   LIG    1       22.209  33.642  56.689  0.00  0.00    -0.034 A 
ATOM     18  C   LIG    1       22.617  34.870  57.457  0.00  0.00    +0.059 C 
ATOM     19  O   LIG    1       16.368  34.826  56.706  0.00  0.00    -0.453 OA
ATOM     20  C   LIG    1       20.369  35.833  56.940  0.00  0.00    -0.015 A 
ATOM     21  C   LIG    1       21.852  36.095  56.961  0.00  0.00    +0.092 C 
ENDROOT
BRANCH  13  22
ATOM     22  O   LIG    1       19.195  32.187  55.212  0.00  0.00    -0.503 OA
ATOM     23  H   LIG    1       18.965  31.281  54.968  0.00  0.00    +0.292 HD
ENDBRANCH  13  22
BRANCH  14  24
ATOM     24  O   LIG    1       21.059  30.243  54.628  0.00  0.00    -0.491 OA
ATOM     25  C   LIG    1       22.049  29.225  54.466  0.00  0.00    +0.277 C 
ENDBRANCH  14  24
TORSDOF 2
