REMARK VINA RESULT:      -5.7      4.576      8.469
REMARK  Name = ZINC00000103
REMARK                            x       y       z     vdW  Elec       q    Type
REMARK                         _______ _______ _______ _____ _____    ______ ____
ROOT
ATOM      1  C   LIG    1       16.421  32.163  56.753  0.00  0.00    +0.105 C 
ATOM      2  N   LIG    1       17.651  32.960  56.852  0.00  0.00    -0.298 NA
ATOM      3  C   LIG    1       18.623  32.556  55.834  0.00  0.00    +0.089 C 
ATOM      4  C   LIG    1       19.975  33.198  56.094  0.00  0.00    +0.051 C 
ATOM      5  C   LIG    1       19.852  34.612  56.586  0.00  0.00    -0.037 A 
ATOM      6  C   LIG    1       21.015  35.363  56.711  0.00  0.00    +0.053 A 
ATOM      7  C   LIG    1       20.970  36.678  57.135  0.00  0.00    +0.167 A 
ATOM      8  C   LIG    1       19.746  37.259  57.450  0.00  0.00    +0.174 A 
ATOM      9  O   LIG    1       19.959  38.553  57.826  0.00  0.00    -0.452 OA
ATOM     10  C   LIG    1       21.363  38.634  58.141  0.00  0.00    +0.466 C 
ATOM     11  C   LIG    1       18.581  36.503  57.345  0.00  0.00    +0.036 A 
ATOM     12  C   LIG    1       17.267  37.101  57.681  0.00  0.00    +0.034 A 
ATOM     13  C   LIG    1       17.115  38.484  57.765  0.00  0.00    +0.167 A 
ATOM     14  C   LIG    1       15.867  39.020  58.064  0.00  0.00    +0.162 A 
ATOM     15  C   LIG    1       14.786  38.180  58.277  0.00  0.00    +0.050 A 
ATOM     16  C   LIG    1       14.942  36.807  58.200  0.00  0.00    +0.008 A 
ATOM     17  C   LIG    1       16.177  36.264  57.911  0.00  0.00    -0.034 A 
ATOM     18  C   LIG    1       16.357  34.772  57.844  0.00  0.00    +0.059 C 
ATOM     19  O   LIG    1       21.955  37.604  57.326  0.00  0.00    -0.453 OA
ATOM     20  C   LIG    1       18.637  35.178  56.901  0.00  0.00    -0.015 A 
ATOM     21  C   LIG    1       17.357  34.397  56.752  0.00  0.00    +0.092 C 
ENDROOT
BRANCH  13  22
ATOM     22  O   LIG    1       18.180  39.304  57.553  0.00  0.00    -0.503 OA
ATOM     23  H   LIG    1       18.108  39.844  56.755  0.00  0.00    +0.292 HD
ENDBRANCH  13  22
BRANCH  14  24
ATOM     24  O   LIG    1       15.709  40.368  58.149  0.00  0.00    -0.491 OA
ATOM     25  C   LIG    1       14.538  40.923  57.547  0.00  0.00    +0.277 C 
ENDBRANCH  14  24
TORSDOF 2
