REMARK VINA RESULT:      -5.9      0.000      0.000
REMARK  Name = ZINC00000103
REMARK                            x       y       z     vdW  Elec       q    Type
REMARK                         _______ _______ _______ _____ _____    ______ ____
ROOT
ATOM      1  C   LIG    1       22.017  36.377  57.479  0.00  0.00    +0.105 C 
ATOM      2  N   LIG    1       20.889  35.439  57.395  0.00  0.00    -0.298 NA
ATOM      3  C   LIG    1       19.652  36.135  57.039  0.00  0.00    +0.089 C 
ATOM      4  C   LIG    1       18.451  35.219  57.198  0.00  0.00    +0.051 C 
ATOM      5  C   LIG    1       18.746  33.810  56.766  0.00  0.00    -0.037 A 
ATOM      6  C   LIG    1       17.689  32.909  56.714  0.00  0.00    +0.053 A 
ATOM      7  C   LIG    1       17.886  31.604  56.301  0.00  0.00    +0.167 A 
ATOM      8  C   LIG    1       19.162  31.182  55.941  0.00  0.00    +0.174 A 
ATOM      9  O   LIG    1       19.098  29.872  55.563  0.00  0.00    -0.452 OA
ATOM     10  C   LIG    1       17.852  29.380  56.092  0.00  0.00    +0.466 C 
ATOM     11  C   LIG    1       20.227  32.076  56.012  0.00  0.00    +0.036 A 
ATOM     12  C   LIG    1       21.595  31.645  55.639  0.00  0.00    +0.034 A 
ATOM     13  C   LIG    1       21.796  30.484  54.893  0.00  0.00    +0.167 A 
ATOM     14  C   LIG    1       23.088  30.111  54.541  0.00  0.00    +0.162 A 
ATOM     15  C   LIG    1       24.164  30.891  54.931  0.00  0.00    +0.050 A 
ATOM     16  C   LIG    1       23.962  32.038  55.677  0.00  0.00    +0.008 A 
ATOM     17  C   LIG    1       22.685  32.415  56.039  0.00  0.00    -0.034 A 
ATOM     18  C   LIG    1       22.459  33.651  56.866  0.00  0.00    +0.059 C 
ATOM     19  O   LIG    1       17.023  30.556  56.161  0.00  0.00    -0.453 OA
ATOM     20  C   LIG    1       20.013  33.398  56.416  0.00  0.00    -0.015 A 
ATOM     21  C   LIG    1       21.174  34.358  56.440  0.00  0.00    +0.092 C 
ENDROOT
BRANCH  13  22
ATOM     22  O   LIG    1       20.735  29.723  54.512  0.00  0.00    -0.503 OA
ATOM     23  H   LIG    1       20.825  29.335  53.631  0.00  0.00    +0.292 HD
ENDBRANCH  13  22
BRANCH  14  24
ATOM     24  O   LIG    1       23.295  28.979  53.815  0.00  0.00    -0.491 OA
ATOM     25  C   LIG    1       23.903  27.877  54.490  0.00  0.00    +0.277 C 
ENDBRANCH  14  24
TORSDOF 2
