REMARK  Name = ZINC01530795
REMARK                            x       y       z     vdW  Elec       q    Type
REMARK                         _______ _______ _______ _____ _____    ______ ____
ROOT
ATOM      1  C   LIG    1        0.948  -2.769   0.080  0.00  0.00    -0.119 C 
ATOM      2  C   LIG    1        0.414  -3.670  -0.451  0.00  0.00    -0.085 C 
ENDROOT
BRANCH   1   3
ATOM      3  C   LIG    1        1.618  -1.641   0.747  0.00  0.00    +0.012 C 
BRANCH   3   7
ATOM      4  C   LIG    1       -0.019   1.536   0.011  0.00  0.00    -0.020 C 
ATOM      5  C   LIG    1        1.468   1.960  -0.001  0.00  0.00    -0.020 C 
ATOM      6  C   LIG    1        2.191   0.705   0.550  0.00  0.00    -0.078 C 
ATOM      7  N   LIG    1        1.421  -0.418  -0.044  0.00  0.00    +0.387 N 
ATOM      8  H   LIG    1        1.708  -0.571  -0.999  0.00  0.00    -0.080 HD
ATOM      9  C   LIG    1        0.002  -0.004   0.002  0.00  0.00    -0.078 C 
ENDBRANCH   3   7
ENDBRANCH   1   3
BRANCH   2  10
ATOM     10  C   LIG    1       -0.256  -4.798  -1.118  0.00  0.00    +0.196 C 
BRANCH  10  11
ATOM     11  N   LIG    1       -0.060  -6.017  -0.329  0.00  0.00    -0.290 N 
ATOM     12  C   LIG    1        1.068  -6.940  -0.498  0.00  0.00    +0.109 C 
ATOM     13  C   LIG    1        1.097  -7.796   0.788  0.00  0.00    +0.028 C 
ATOM     14  C   LIG    1       -0.377  -7.721   1.250  0.00  0.00    +0.097 C 
ATOM     15  C   LIG    1       -0.888  -6.431   0.646  0.00  0.00    +0.216 C 
ATOM     16  O   LIG    1       -1.898  -5.856   0.990  0.00  0.00    -0.276 OA
ENDBRANCH  10  11
ENDBRANCH   2  10
TORSDOF 4
