REMARK  Name = ZINC01430602
REMARK                            x       y       z     vdW  Elec       q    Type
REMARK                         _______ _______ _______ _____ _____    ______ ____
ROOT
ATOM      1  N   LIG    1       -0.017   1.393   0.010  0.00  0.00    -0.245 N 
ATOM      2  C   LIG    1       -1.093   2.196   0.018  0.00  0.00    +0.270 A 
ATOM      3  C   LIG    1       -0.889   3.639   0.030  0.00  0.00    +0.056 A 
ATOM      4  C   LIG    1       -1.837   4.686   0.044  0.00  0.00    +0.017 A 
ATOM      5  C   LIG    1       -1.433   5.985   0.047  0.00  0.00    +0.039 A 
ATOM      6  C   LIG    1       -0.084   6.326   0.035  0.00  0.00    +0.125 A 
ATOM      7  F   LIG    1        0.288   7.625   0.038  0.00  0.00    -0.205 F 
ATOM      8  C   LIG    1        0.873   5.328   0.022  0.00  0.00    +0.055 A 
ATOM      9  C   LIG    1        0.475   4.007   0.019  0.00  0.00    +0.044 A 
ATOM     10  O   LIG    1       -2.218   1.728   0.020  0.00  0.00    -0.266 OA
ATOM     11  S   LIG    1        1.323   2.451   0.003  0.00  0.00    -0.003 S 
ENDROOT
BRANCH   1  18
ATOM     12  C   LIG    1       -0.201  -2.827  -2.504  0.00  0.00    +0.044 C 
ATOM     13  C   LIG    1       -0.086  -2.076  -1.203  0.00  0.00    -0.048 A 
ATOM     14  C   LIG    1        0.039  -2.771  -0.013  0.00  0.00    +0.004 A 
ATOM     15  C   LIG    1        0.145  -2.086   1.183  0.00  0.00    +0.005 A 
ATOM     16  C   LIG    1        0.127  -0.705   1.195  0.00  0.00    -0.026 A 
ATOM     17  C   LIG    1        0.244   0.040   2.499  0.00  0.00    +0.046 C 
ATOM     18  C   LIG    1        0.002  -0.004   0.002  0.00  0.00    +0.060 A 
ATOM     19  C   LIG    1       -0.110  -0.696  -1.198  0.00  0.00    +0.030 A 
ENDBRANCH   1  18
TORSDOF 1
