REMARK  Name = ZINC01536109
REMARK                            x       y       z     vdW  Elec       q    Type
REMARK                         _______ _______ _______ _____ _____    ______ ____
ROOT
ATOM      1  C   UNK A  0        1.102  -6.549   0.659  0.00  0.00    +0.032 C 
ENDROOT
BRANCH   1   2
ATOM      2  C   UNK A  0        0.963  -5.048   0.672  0.00  0.00    -0.043 A 
ATOM      3  C   UNK A  0        1.939  -4.271   1.270  0.00  0.00    +0.004 A 
ATOM      4  C   UNK A  0        1.817  -2.897   1.286  0.00  0.00    +0.013 A 
ATOM      5  C   UNK A  0        0.707  -2.291   0.697  0.00  0.00    +0.037 A 
ATOM      6  C   UNK A  0       -0.276  -3.081   0.099  0.00  0.00    +0.013 A 
ATOM      7  C   UNK A  0       -0.140  -4.454   0.086  0.00  0.00    +0.004 A 
BRANCH   5   8
ATOM      8  C   UNK A  0        0.570  -0.819   0.711  0.00  0.00    +0.245 C 
ATOM      9  N   GLU A  1       -0.503  -0.237   0.141  0.00  0.00    -0.298 N 
ATOM     10  H   GLU A  1       -1.186  -0.783  -0.279  0.00  0.00    +0.150 HD
ATOM     11  O   UNK A  0        1.425  -0.134   1.237  0.00  0.00    -0.270 OA
BRANCH   9  12
ATOM     12  CA  GLU A  1       -0.639   1.222   0.154  0.00  0.00    +0.182 C 
BRANCH  12  13
ATOM     13  C   GLU A  1       -1.274   1.655   1.451  0.00  0.00    +0.325 C 
ATOM     14  O   GLU A  1       -1.581   0.830   2.278  0.00  0.00    -0.249 OA
BRANCH  13  15
ATOM     15  OXT GLU A  1       -1.498   2.957   1.686  0.00  0.00    -0.479 OA
ATOM     16  HXT GLU A  1       -1.259   3.597   1.045  0.00  0.00    +0.295 HD
ENDBRANCH  13  15
ENDBRANCH  12  13
BRANCH  12  17
ATOM     17  CB  GLU A  1       -1.519   1.663  -1.017  0.00  0.00    +0.045 C 
BRANCH  17  18
ATOM     18  CG  GLU A  1       -0.816   1.335  -2.335  0.00  0.00    +0.123 C 
BRANCH  18  19
ATOM     19  CD  GLU A  1       -1.683   1.770  -3.489  0.00  0.00    +0.305 C 
ATOM     20  OE1 GLU A  1       -2.754   2.289  -3.278  0.00  0.00    -0.251 OA
BRANCH  19  21
ATOM     21  OE2 GLU A  1       -1.266   1.580  -4.750  0.00  0.00    -0.481 OA
ATOM     22  HE2 GLU A  1       -0.436   1.177  -4.914  0.00  0.00    +0.295 HD
ENDBRANCH  19  21
ENDBRANCH  18  19
ENDBRANCH  17  18
ENDBRANCH  12  17
ENDBRANCH   9  12
ENDBRANCH   5   8
ENDBRANCH   1   2
BRANCH   1  23
ATOM     23  C   UNK A  0       -0.089  -7.178   1.385  0.00  0.00    +0.096 C 
BRANCH  23  25
ATOM     24  C   UNK A  0        0.271  -9.792   1.570  0.00  0.00    +0.004 C 
ATOM     25  C   UNK A  0        0.111  -8.632   1.488  0.00  0.00    -0.105 C 
ENDBRANCH  23  25
ENDBRANCH   1  23
BRANCH   1  26
ATOM     26  C   UNK A  0        1.138  -7.045  -0.788  0.00  0.00    +0.029 C 
BRANCH  26  27
ATOM     27  C   UNK A  0        2.385  -6.536  -1.463  0.00  0.00    +0.068 C 
ATOM     28  C   UNK A  0        3.583  -7.234  -1.318  0.00  0.00    +0.101 C 
ATOM     29  N   UNK A  0        4.684  -6.812  -1.902  0.00  0.00    -0.298 NA
ATOM     30  H   UNK A  0        5.000  -7.561  -2.517  0.00  0.00    +0.123 HD
ATOM     31  C   UNK A  0        4.655  -5.695  -2.634  0.00  0.00    +0.144 C 
ATOM     32  C   UNK A  0        3.436  -4.986  -2.774  0.00  0.00    +0.117 C 
ATOM     33  C   UNK A  0        3.443  -3.767  -3.584  0.00  0.00    +0.141 C 
ATOM     34  N   UNK A  0        4.591  -3.402  -4.137  0.00  0.00    -0.273 NA
ATOM     35  C   UNK A  0        5.699  -4.116  -3.964  0.00  0.00    +0.194 C 
ATOM     36  H   UNK A  0        4.614  -2.571  -4.693  0.00  0.00    +0.126 HD
ATOM     37  N   UNK A  0        5.813  -5.257  -3.238  0.00  0.00    -0.272 NA
ATOM     38  H   UNK A  0        6.141  -5.994  -3.862  0.00  0.00    +0.126 HD
ATOM     39  N   UNK A  0        2.334  -5.433  -2.179  0.00  0.00    -0.304 NA
ATOM     40  H   UNK A  0        2.011  -4.691  -1.558  0.00  0.00    +0.123 HD
BRANCH  35  41
ATOM     41  N   UNK A  0        6.862  -3.678  -4.568  0.00  0.00    -0.303 NA
ATOM     42  H   UNK A  0        6.855  -2.868  -5.103  0.00  0.00    +0.121 HD
ATOM     43  H   UNK A  0        7.684  -4.179  -4.458  0.00  0.00    +0.121 HD
ENDBRANCH  35  41
BRANCH  33  44
ATOM     44  N   UNK A  0        2.297  -3.025  -3.765  0.00  0.00    -0.314 NA
ATOM     45  H   UNK A  0        2.321  -2.220  -4.305  0.00  0.00    +0.120 HD
ATOM     46  H   UNK A  0        1.466  -3.308  -3.353  0.00  0.00    +0.120 HD
ENDBRANCH  33  44
ENDBRANCH  26  27
ENDBRANCH   1  26
TORSDOF 15
