REMARK  Name = ZINC01485869
REMARK                            x       y       z     vdW  Elec       q    Type
REMARK                         _______ _______ _______ _____ _____    ______ ____
ROOT
ATOM      1  C   LIG    1        2.296   4.555   0.091  0.00  0.00    +0.055 A 
ATOM      2  C   LIG    1        3.166   4.492   1.188  0.00  0.00    +0.135 A 
ATOM      3  F   LIG    1        2.826   3.765   2.275  0.00  0.00    -0.205 F 
ATOM      4  C   LIG    1        4.359   5.158   1.160  0.00  0.00    +0.053 A 
ATOM      5  C   LIG    1        4.708   5.915   0.040  0.00  0.00    +0.052 A 
ATOM      6  C   LIG    1        3.843   5.992  -1.065  0.00  0.00    +0.089 A 
ATOM      7  N   LIG    1        4.192   6.740  -2.171  0.00  0.00    -0.340 N 
ATOM      8  C   LIG    1        5.342   7.419  -2.254  0.00  0.00    +0.105 A 
ATOM      9  C   LIG    1        6.271   7.419  -1.233  0.00  0.00    +0.122 A 
ATOM     10  C   LIG    1        5.987   6.648  -0.012  0.00  0.00    +0.204 A 
ATOM     11  O   LIG    1        6.775   6.617   0.917  0.00  0.00    -0.286 OA
ATOM     12  C   LIG    1        2.632   5.305  -1.031  0.00  0.00    +0.158 A 
ATOM     13  F   LIG    1        1.787   5.366  -2.083  0.00  0.00    -0.203 F 
ENDROOT
BRANCH   1  17
ATOM     14  C   LIG    1       -0.293   0.279   0.258  0.00  0.00    +0.065 C 
ATOM     15  C   LIG    1       -0.245   1.784   0.210  0.00  0.00    +0.039 A 
ATOM     16  C   LIG    1        0.976   2.425   0.175  0.00  0.00    +0.031 A 
ATOM     17  C   LIG    1        1.008   3.823   0.130  0.00  0.00    -0.009 A 
ATOM     18  C   LIG    1       -0.210   4.510   0.123  0.00  0.00    +0.031 A 
ATOM     19  C   LIG    1       -1.386   3.790   0.160  0.00  0.00    +0.039 A 
ATOM     20  C   LIG    1       -2.705   4.519   0.153  0.00  0.00    +0.065 C 
ATOM     21  N   LIG    1       -1.371   2.471   0.197  0.00  0.00    -0.257 NA
ENDBRANCH   1  17
BRANCH   7  22
ATOM     22  C   LIG    1        3.262   6.794  -3.302  0.00  0.00    +0.088 C 
ATOM     23  C   LIG    1        3.675   7.627  -4.517  0.00  0.00    +0.027 C 
ATOM     24  C   LIG    1        2.571   8.130  -3.585  0.00  0.00    +0.027 C 
ENDBRANCH   7  22
BRANCH   9  25
ATOM     25  C   LIG    1        7.523   8.178  -1.363  0.00  0.00    +0.342 C 
ATOM     26  O   LIG    1        8.334   8.171  -0.457  0.00  0.00    -0.245 OA
BRANCH  25  27
ATOM     27  O   LIG    1        7.773   8.880  -2.486  0.00  0.00    -0.477 OA
ATOM     28  H   LIG    1        7.148   8.885  -3.184  0.00  0.00    +0.295 HD
ENDBRANCH  25  27
ENDBRANCH   9  25
TORSDOF 4
