REMARK  Name = ZINC01484929
REMARK                            x       y       z     vdW  Elec       q    Type
REMARK                         _______ _______ _______ _____ _____    ______ ____
ROOT
ATOM      1  C   LIG    1       -0.018   1.464   0.010  0.00  0.00    -0.074 C 
ATOM      2  C   LIG    1        1.416   1.997  -0.001  0.00  0.00    +0.028 C 
ATOM      3  C   LIG    1        2.154   1.488   1.241  0.00  0.00    +0.145 C 
ATOM      4  C   LIG    1        2.104  -0.042   1.261  0.00  0.00    +0.126 C 
ATOM      5  C   LIG    1        0.644  -0.500   1.225  0.00  0.00    -0.048 C 
ATOM      6  N   LIG    1        0.002  -0.004   0.002  0.00  0.00    +0.381 N 
ATOM      7  H   LIG    1        0.518  -0.328  -0.802  0.00  0.00    -0.086 HD
ATOM      8  H   LIG    1       -0.944  -0.352  -0.045  0.00  0.00    -0.086 HD
ENDROOT
BRANCH   3   9
ATOM      9  O   LIG    1        3.514   1.923   1.201  0.00  0.00    -0.389 OA
ATOM     10  H   LIG    1        4.042   1.636   1.958  0.00  0.00    +0.210 HD
ENDBRANCH   3   9
BRANCH   4  11
ATOM     11  O   LIG    1        2.727  -0.525   2.453  0.00  0.00    -0.391 OA
ATOM     12  H   LIG    1        2.732  -1.488   2.532  0.00  0.00    +0.210 HD
ENDBRANCH   4  11
BRANCH   2  13
ATOM     13  C   LIG    1        1.393   3.527   0.009  0.00  0.00    +0.160 C 
BRANCH  13  14
ATOM     14  O   LIG    1        0.804   4.002  -1.203  0.00  0.00    -0.395 OA
ATOM     15  H   LIG    1        0.756   4.966  -1.266  0.00  0.00    +0.209 HD
ENDBRANCH  13  14
ENDBRANCH   2  13
TORSDOF 4
