REMARK  Name = ZINC01532042
REMARK                            x       y       z     vdW  Elec       q    Type
REMARK                         _______ _______ _______ _____ _____    ______ ____
ROOT
ATOM      1  C   LIG    1       -0.019   1.526   0.010  0.00  0.00    +0.011 C 
ATOM      2  C   LIG    1        0.002  -0.004   0.002  0.00  0.00    +0.025 C 
ATOM      3  C   LIG    1       -1.434  -0.577   0.086  0.00  0.00    +0.025 C 
ATOM      4  C   LIG    1       -1.555  -1.846  -0.759  0.00  0.00    +0.011 C 
ATOM      5  C   LIG    1       -1.624  -0.900   1.581  0.00  0.00    +0.152 C 
ATOM      6  O   LIG    1       -0.425  -0.494   2.262  0.00  0.00    -0.364 OA
ATOM      7  C   LIG    1        0.649  -0.556   1.298  0.00  0.00    +0.152 C 
ENDROOT
BRANCH   5   8
ATOM      8  C   LIG    1       -2.807  -0.140   2.123  0.00  0.00    -0.015 A 
ATOM      9  C   LIG    1       -2.673   1.194   2.463  0.00  0.00    +0.010 A 
ATOM     10  C   LIG    1       -3.755   1.895   2.961  0.00  0.00    +0.050 A 
ATOM     11  C   LIG    1       -4.978   1.263   3.120  0.00  0.00    +0.162 A 
ATOM     12  C   LIG    1       -5.113  -0.079   2.777  0.00  0.00    +0.162 A 
ATOM     13  C   LIG    1       -4.025  -0.776   2.274  0.00  0.00    +0.055 A 
BRANCH  11  14
ATOM     14  O   LIG    1       -6.043   1.951   3.610  0.00  0.00    -0.491 OA
ATOM     15  C   LIG    1       -5.831   3.325   3.941  0.00  0.00    +0.277 C 
ENDBRANCH  11  14
BRANCH  12  16
ATOM     16  O   LIG    1       -6.310  -0.705   2.931  0.00  0.00    -0.491 OA
ATOM     17  C   LIG    1       -6.375  -2.083   2.558  0.00  0.00    +0.277 C 
ENDBRANCH  12  16
ENDBRANCH   5   8
BRANCH   7  18
ATOM     18  C   LIG    1        1.800   0.316   1.729  0.00  0.00    -0.015 A 
ATOM     19  C   LIG    1        1.565   1.437   2.503  0.00  0.00    +0.010 A 
ATOM     20  C   LIG    1        2.618   2.240   2.901  0.00  0.00    +0.050 A 
ATOM     21  C   LIG    1        3.913   1.922   2.524  0.00  0.00    +0.162 A 
ATOM     22  C   LIG    1        4.150   0.793   1.744  0.00  0.00    +0.162 A 
ATOM     23  C   LIG    1        3.091  -0.010   1.353  0.00  0.00    +0.055 A 
BRANCH  21  24
ATOM     24  O   LIG    1        4.949   2.711   2.914  0.00  0.00    -0.491 OA
ATOM     25  C   LIG    1        4.631   3.852   3.712  0.00  0.00    +0.277 C 
ENDBRANCH  21  24
BRANCH  22  26
ATOM     26  O   LIG    1        5.419   0.477   1.372  0.00  0.00    -0.491 OA
ATOM     27  C   LIG    1        5.587  -0.695   0.572  0.00  0.00    +0.277 C 
ENDBRANCH  22  26
ENDBRANCH   7  18
TORSDOF 6
