REMARK  Name = ZINC01492230
REMARK                            x       y       z     vdW  Elec       q    Type
REMARK                         _______ _______ _______ _____ _____    ______ ____
ROOT
ATOM      1  CA  THR A  1        2.986   2.474  -1.435  0.00  0.00    -0.014 C 
ATOM      2  N   THR A  1        2.223   3.613  -0.891  0.00  0.00    +0.389 N 
ATOM      3  H1  THR A  1        2.853   4.232  -0.368  0.00  0.00    -0.085 HD
ATOM      4  H2  THR A  1        1.789   4.136  -1.661  0.00  0.00    -0.085 HD
ATOM      5  CA  THR A  1        1.177   3.101   0.007  0.00  0.00    -0.014 C 
ATOM      6  CB  THR A  1        1.286   1.562  -0.002  0.00  0.00    +0.130 C 
ATOM      7  CG2 THR A  1        2.015   1.271  -1.340  0.00  0.00    +0.130 C 
ENDROOT
BRANCH   6   8
ATOM      8  OG1 THR A  1       -0.011   0.963   0.007  0.00  0.00    -0.391 OA
ATOM      9  HG1 THR A  1        0.002  -0.004   0.002  0.00  0.00    +0.210 HD
ENDBRANCH   6   8
BRANCH   7  10
ATOM     10  OG1 THR A  1        2.733   0.038  -1.275  0.00  0.00    -0.391 OA
ATOM     11  HG1 THR A  1        2.174  -0.735  -1.118  0.00  0.00    +0.210 HD
ENDBRANCH   7  10
BRANCH   1  12
ATOM     12  C   THR A  1        3.371   2.734  -2.893  0.00  0.00    +0.143 C 
BRANCH  12  13
ATOM     13  O   THR A  1        4.299   3.819  -2.954  0.00  0.00    -0.397 OA
ATOM     14  H   THR A  1        4.588   4.040  -3.851  0.00  0.00    +0.209 HD
ENDBRANCH  12  13
ENDBRANCH   1  12
BRANCH   5  15
ATOM     15  C   THR A  1        1.397   3.630   1.426  0.00  0.00    +0.143 C 
BRANCH  15  16
ATOM     16  O   THR A  1        1.179   5.042   1.447  0.00  0.00    -0.397 OA
ATOM     17  H   THR A  1        1.301   5.446   2.317  0.00  0.00    +0.209 HD
ENDBRANCH  15  16
ENDBRANCH   5  15
TORSDOF 6
