REMARK  Name = ZINC01490299
REMARK                            x       y       z     vdW  Elec       q    Type
REMARK                         _______ _______ _______ _____ _____    ______ ____
ROOT
ATOM      1  N   LIG    1       -6.026  -1.365  -0.965  0.00  0.00    -0.328 N 
ATOM      2  C   LIG    1       -6.720  -0.450  -0.226  0.00  0.00    +0.067 C 
ATOM      3  C   LIG    1       -7.474   0.308  -1.042  0.00  0.00    -0.006 C 
ATOM      4  C   LIG    1       -7.257  -0.137  -2.367  0.00  0.00    +0.041 C 
ATOM      5  C   LIG    1       -7.766   0.264  -3.672  0.00  0.00    +0.046 C 
ATOM      6  C   LIG    1       -8.690   1.315  -3.833  0.00  0.00    +0.126 C 
ATOM      7  N   LIG    1       -9.100   1.613  -5.059  0.00  0.00    -0.274 NA
ATOM      8  H   LIG    1       -8.857   2.591  -5.216  0.00  0.00    +0.126 HD
ATOM      9  C   LIG    1       -8.655   0.942  -6.117  0.00  0.00    +0.196 C 
ATOM     10  N   LIG    1       -7.776  -0.038  -6.022  0.00  0.00    -0.286 NA
ATOM     11  H   LIG    1       -7.477  -0.496  -6.823  0.00  0.00    +0.125 HD
ATOM     12  C   LIG    1       -7.307  -0.416  -4.824  0.00  0.00    +0.063 C 
ATOM     13  C   LIG    1       -6.385  -1.466  -4.687  0.00  0.00    +0.021 C 
ATOM     14  C   LIG    1       -5.920  -1.835  -3.466  0.00  0.00    +0.024 C 
ATOM     15  C   LIG    1       -6.335  -1.191  -2.297  0.00  0.00    +0.081 C 
ENDROOT
BRANCH   6  16
ATOM     16  N   LIG    1       -9.158   2.019  -2.741  0.00  0.00    -0.315 NA
ATOM     17  H   LIG    1      -10.015   2.471  -2.786  0.00  0.00    +0.120 HD
ATOM     18  H   LIG    1       -8.630   2.061  -1.928  0.00  0.00    +0.120 HD
ENDBRANCH   6  16
BRANCH   9  19
ATOM     19  N   LIG    1       -9.119   1.298  -7.372  0.00  0.00    -0.286 NA
ATOM     20  H   LIG    1       -9.691   2.074  -7.475  0.00  0.00    +0.125 HD
BRANCH  19  21
ATOM     21  C   LIG    1       -8.747   0.501  -8.544  0.00  0.00    +0.056 C 
ATOM     22  C   LIG    1       -8.223   1.252  -9.770  0.00  0.00    +0.020 C 
ATOM     23  C   LIG    1       -9.621   0.631  -9.793  0.00  0.00    +0.020 C 
ENDBRANCH  19  21
ENDBRANCH   9  19
BRANCH   1  24
ATOM     24  C   LIG    1       -5.098  -2.365  -0.430  0.00  0.00    +0.140 C 
BRANCH  24  28
ATOM     25  C   LIG    1       -1.110  -0.843  -0.595  0.00  0.00    -0.045 A 
ATOM     26  C   LIG    1       -1.888  -0.624   0.527  0.00  0.00    +0.004 A 
ATOM     27  C   LIG    1       -3.178  -1.116   0.581  0.00  0.00    +0.005 A 
ATOM     28  C   LIG    1       -3.692  -1.827  -0.488  0.00  0.00    -0.030 A 
ATOM     29  C   LIG    1       -2.914  -2.045  -1.611  0.00  0.00    +0.005 A 
ATOM     30  C   LIG    1       -1.625  -1.549  -1.665  0.00  0.00    +0.004 A 
BRANCH  25  32
ATOM     31  C   LIG    1        0.268   1.217  -0.508  0.00  0.00    +0.012 C 
ATOM     32  C   LIG    1        0.297  -0.306  -0.653  0.00  0.00    +0.013 C 
ATOM     33  C   LIG    1        1.121  -0.911   0.485  0.00  0.00    +0.012 C 
ENDBRANCH  25  32
ENDBRANCH  24  28
ENDBRANCH   1  24
TORSDOF 6
