REMARK  Name = ZINC01494180
REMARK                            x       y       z     vdW  Elec       q    Type
REMARK                         _______ _______ _______ _____ _____    ______ ____
ROOT
ATOM      1  N   LIG    1       -2.424   1.030   0.021  0.00  0.00    -0.234 N 
ATOM      2  C   LIG    1       -3.669   1.440  -0.647  0.00  0.00    +0.163 C 
ATOM      3  C   LIG    1       -4.652   0.299  -0.324  0.00  0.00    +0.213 C 
ATOM      4  O   LIG    1       -3.867  -0.625   0.484  0.00  0.00    -0.444 OA
ATOM      5  C   LIG    1       -2.626  -0.147   0.629  0.00  0.00    +0.408 C 
ATOM      6  O   LIG    1       -1.762  -0.726   1.257  0.00  0.00    -0.226 OA
ENDROOT
BRANCH   1   9
ATOM      7  C   LIG    1        1.072   1.960   0.683  0.00  0.00    +0.025 A 
ATOM      8  C   LIG    1       -0.114   1.253   0.691  0.00  0.00    +0.025 A 
ATOM      9  C   LIG    1       -1.222   1.750   0.018  0.00  0.00    +0.040 A 
ATOM     10  C   LIG    1       -1.142   2.964  -0.652  0.00  0.00    +0.025 A 
ATOM     11  C   LIG    1        0.044   3.671  -0.659  0.00  0.00    +0.025 A 
ATOM     12  C   LIG    1        1.155   3.171   0.008  0.00  0.00    +0.037 A 
BRANCH  12  13
ATOM     13  N   LIG    1        2.358   3.888   0.000  0.00  0.00    -0.267 N 
ATOM     14  C   LIG    1        3.327   3.621  -1.061  0.00  0.00    +0.142 C 
ATOM     15  C   LIG    1        4.321   4.780  -1.161  0.00  0.00    +0.180 C 
ATOM     16  O   LIG    1        4.816   5.076   0.150  0.00  0.00    -0.369 OA
ATOM     17  C   LIG    1        3.819   5.634   1.010  0.00  0.00    +0.256 C 
ATOM     18  C   LIG    1        2.574   4.794   0.961  0.00  0.00    +0.246 C 
ATOM     19  O   LIG    1        1.736   4.940   1.826  0.00  0.00    -0.273 OA
ENDBRANCH  12  13
ENDBRANCH   1   9
BRANCH   3  20
ATOM     20  C   LIG    1       -5.128  -0.380  -1.610  0.00  0.00    +0.150 C 
BRANCH  20  21
ATOM     21  N   LIG    1       -6.149  -1.379  -1.286  0.00  0.00    -0.307 N 
ATOM     22  H   LIG    1       -6.418  -1.517  -0.364  0.00  0.00    +0.149 HD
ATOM     23  C   LIG    1       -6.716  -2.106  -2.269  0.00  0.00    +0.251 C 
ATOM     24  O   LIG    1       -6.379  -1.933  -3.426  0.00  0.00    -0.270 OA
BRANCH  23  25
ATOM     25  C   LIG    1       -7.737  -3.105  -1.946  0.00  0.00    +0.075 A 
ATOM     26  C   LIG    1       -8.440  -3.944  -2.797  0.00  0.00    +0.022 A 
ATOM     27  C   LIG    1       -9.348  -4.797  -2.224  0.00  0.00    +0.028 A 
ATOM     28  C   LIG    1       -9.522  -4.774  -0.875  0.00  0.00    +0.079 A 
ATOM     29 CL   LIG    1      -10.599  -5.733   0.091  0.00  0.00    -0.076 Cl
ATOM     30  S   LIG    1       -8.406  -3.553  -0.354  0.00  0.00    -0.072 S 
ENDBRANCH  23  25
ENDBRANCH  20  21
ENDBRANCH   3  20
TORSDOF 5
