REMARK  Name = ZINC01540245
REMARK                            x       y       z     vdW  Elec       q    Type
REMARK                         _______ _______ _______ _____ _____    ______ ____
ROOT
ATOM      1  N   LIG    1        4.332   4.856  -2.043  0.00  0.00    -0.156 N 
ATOM      2  H   LIG    1        5.129   4.646  -1.532  0.00  0.00    +0.179 HD
ATOM      3  C   LIG    1        3.121   4.478  -1.589  0.00  0.00    +0.239 C 
ATOM      4  O   LIG    1        2.133   4.665  -2.267  0.00  0.00    -0.274 OA
ENDROOT
BRANCH   1   5
ATOM      5  S   LIG    1        4.459   5.680  -3.474  0.00  0.00    +0.210 S 
ATOM      6  O   LIG    1        3.521   5.093  -4.366  0.00  0.00    -0.115 OA
ATOM      7  O   LIG    1        5.846   5.763  -3.773  0.00  0.00    -0.115 OA
BRANCH   5   8
ATOM      8  O   LIG    1        3.984   7.103  -3.218  0.00  0.00    -0.331 OA
BRANCH   8  14
ATOM      9  C   LIG    1        4.901   8.093  -1.258  0.00  0.00    +0.000 A 
ATOM     10  C   LIG    1        5.852   8.900  -0.665  0.00  0.00    +0.007 A 
ATOM     11  C   LIG    1        6.813   9.523  -1.440  0.00  0.00    +0.001 A 
ATOM     12  C   LIG    1        6.827   9.336  -2.809  0.00  0.00    +0.007 A 
ATOM     13  C   LIG    1        5.881   8.527  -3.407  0.00  0.00    +0.000 A 
ATOM     14  C   LIG    1        4.916   7.900  -2.632  0.00  0.00    +0.165 A 
BRANCH   9  16
ATOM     15  C   LIG    1        4.527   6.641   0.717  0.00  0.00    +0.012 C 
ATOM     16  C   LIG    1        3.850   7.420  -0.414  0.00  0.00    +0.017 C 
ATOM     17  C   LIG    1        2.918   8.477   0.181  0.00  0.00    +0.012 C 
ENDBRANCH   9  16
BRANCH  13  18
ATOM     18  C   LIG    1        5.896   8.325  -4.901  0.00  0.00    +0.017 C 
ATOM     19  C   LIG    1        7.230   7.702  -5.317  0.00  0.00    +0.012 C 
ATOM     20  C   LIG    1        5.723   9.674  -5.600  0.00  0.00    +0.012 C 
ENDBRANCH  13  18
ENDBRANCH   8  14
ENDBRANCH   5   8
ENDBRANCH   1   5
BRANCH   3  21
ATOM     21  C   LIG    1        2.994   3.822  -0.238  0.00  0.00    +0.133 C 
BRANCH  21  22
ATOM     22  C   LIG    1        1.586   3.317  -0.055  0.00  0.00    -0.032 A 
ATOM     23  C   LIG    1        1.270   2.015  -0.395  0.00  0.00    -0.041 A 
ATOM     24  C   LIG    1       -0.021   1.550  -0.227  0.00  0.00    +0.008 A 
ATOM     25  C   LIG    1       -0.998   2.390   0.276  0.00  0.00    -0.044 A 
ATOM     26  C   LIG    1       -0.680   3.691   0.620  0.00  0.00    +0.008 A 
ATOM     27  C   LIG    1        0.611   4.155   0.452  0.00  0.00    -0.041 A 
BRANCH  23  28
ATOM     28  C   LIG    1        2.333   1.101  -0.949  0.00  0.00    +0.013 C 
ATOM     29  C   LIG    1        1.859   0.516  -2.281  0.00  0.00    +0.012 C 
ATOM     30  C   LIG    1        2.595  -0.035   0.042  0.00  0.00    +0.012 C 
ENDBRANCH  23  28
BRANCH  25  31
ATOM     31  C   LIG    1       -2.407   1.886   0.454  0.00  0.00    +0.013 C 
ATOM     32  C   LIG    1       -3.361   2.731  -0.392  0.00  0.00    +0.012 C 
ATOM     33  C   LIG    1       -2.804   1.990   1.927  0.00  0.00    +0.012 C 
ENDBRANCH  25  31
BRANCH  27  34
ATOM     34  C   LIG    1        0.956   5.574   0.824  0.00  0.00    +0.013 C 
ATOM     35  C   LIG    1        0.808   5.755   2.336  0.00  0.00    +0.012 C 
ATOM     36  C   LIG    1        0.011   6.535   0.100  0.00  0.00    +0.012 C 
ENDBRANCH  27  34
ENDBRANCH  21  22
ENDBRANCH   3  21
TORSDOF 10
