REMARK  Name = ZINC01594973
REMARK                            x       y       z     vdW  Elec       q    Type
REMARK                         _______ _______ _______ _____ _____    ______ ____
ROOT
ATOM      1  S   LIG    1        2.939   3.732   1.828  0.00  0.00    -0.027 S 
ENDROOT
BRANCH   1   2
ATOM      2  C   LIG    1        2.878   2.027   1.974  0.00  0.00    +0.120 C 
ATOM      3  S   LIG    1        3.728   1.245   3.238  0.00  0.00    -0.027 S 
BRANCH   2   9
ATOM      4  C   LIG    1        1.423   1.950  -0.001  0.00  0.00    +0.134 C 
ATOM      5  C   LIG    1       -0.017   1.425   0.010  0.00  0.00    +0.178 C 
ATOM      6  O   LIG    1        0.002  -0.004   0.002  0.00  0.00    -0.377 OA
ATOM      7  C   LIG    1        0.622  -0.587   1.151  0.00  0.00    +0.178 C 
ATOM      8  C   LIG    1        2.095  -0.166   1.198  0.00  0.00    +0.134 C 
ATOM      9  N   LIG    1        2.162   1.300   1.093  0.00  0.00    -0.314 N 
ENDBRANCH   2   9
ENDBRANCH   1   2
BRANCH   1  10
ATOM     10  S   LIG    1        4.155   4.184   3.428  0.00  0.00    -0.027 S 
BRANCH  10  11
ATOM     11  C   LIG    1        5.691   3.974   2.702  0.00  0.00    +0.120 C 
ATOM     12  S   LIG    1        5.805   3.506   1.059  0.00  0.00    -0.027 S 
BRANCH  11  13
ATOM     13  N   LIG    1        6.811   4.177   3.424  0.00  0.00    -0.314 N 
ATOM     14  C   LIG    1        6.739   4.586   4.836  0.00  0.00    +0.134 C 
ATOM     15  C   LIG    1        7.636   3.643   5.654  0.00  0.00    +0.178 C 
ATOM     16  O   LIG    1        8.940   3.612   5.069  0.00  0.00    -0.377 OA
ATOM     17  C   LIG    1        8.972   3.094   3.737  0.00  0.00    +0.178 C 
ATOM     18  C   LIG    1        8.143   4.003   2.822  0.00  0.00    +0.134 C 
ENDBRANCH  11  13
ENDBRANCH  10  11
ENDBRANCH   1  10
TORSDOF 5
