REMARK  Name = ZINC01455730
REMARK                            x       y       z     vdW  Elec       q    Type
REMARK                         _______ _______ _______ _____ _____    ______ ____
ROOT
ATOM      1  C   LIG    1        0.606  -0.608  -1.057  0.00  0.00    +0.162 A 
ATOM      2  C   LIG    1        1.173   0.159  -2.062  0.00  0.00    +0.055 A 
ATOM      3  C   LIG    1        1.787  -0.455  -3.138  0.00  0.00    -0.017 A 
ATOM      4  C   LIG    1        1.837  -1.836  -3.213  0.00  0.00    +0.048 A 
ATOM      5 CL   LIG    1        2.608  -2.602  -4.566  0.00  0.00    -0.083 Cl
ATOM      6  C   LIG    1        1.272  -2.607  -2.212  0.00  0.00    +0.069 A 
ATOM      7  C   LIG    1        0.662  -1.996  -1.129  0.00  0.00    +0.163 A 
ENDROOT
BRANCH   1   9
ATOM      8  C   LIG    1       -0.017   1.425   0.010  0.00  0.00    +0.277 C 
ATOM      9  O   LIG    1        0.002  -0.004   0.002  0.00  0.00    -0.491 OA
ENDBRANCH   1   9
BRANCH   7  10
ATOM     10  O   LIG    1        0.112  -2.752  -0.141  0.00  0.00    -0.491 OA
ATOM     11  C   LIG    1        0.206  -4.171  -0.282  0.00  0.00    +0.277 C 
ENDBRANCH   7  10
BRANCH   3  12
ATOM     12  C   LIG    1        2.402   0.380  -4.230  0.00  0.00    +0.134 C 
BRANCH  12  13
ATOM     13  C   LIG    1        3.893   0.460  -4.022  0.00  0.00    +0.240 C 
ATOM     14  N   LIG    1        4.657   1.161  -4.884  0.00  0.00    -0.197 N 
ATOM     15  H   LIG    1        4.247   1.613  -5.638  0.00  0.00    +0.182 HD
ATOM     16  O   LIG    1        4.405  -0.106  -3.080  0.00  0.00    -0.273 OA
BRANCH  14  17
ATOM     17  O   LIG    1        6.057   1.236  -4.689  0.00  0.00    -0.295 OA
ATOM     18  H   LIG    1        6.520   1.759  -5.357  0.00  0.00    +0.241 HD
ENDBRANCH  14  17
ENDBRANCH  12  13
ENDBRANCH   3  12
TORSDOF 5
