REMARK  Name = ZINC01647054
REMARK                            x       y       z     vdW  Elec       q    Type
REMARK                         _______ _______ _______ _____ _____    ______ ____
ROOT
ATOM      1  C   LIG    1       -6.870  -5.034   0.039  0.00  0.00    +0.001 A 
ATOM      2  C   LIG    1       -7.088  -3.664   0.049  0.00  0.00    +0.002 A 
ATOM      3  C   LIG    1       -6.028  -2.785   0.045  0.00  0.00    +0.026 A 
ATOM      4  C   LIG    1       -4.722  -3.267   0.030  0.00  0.00    +0.048 A 
ATOM      5  C   LIG    1       -4.503  -4.655   0.020  0.00  0.00    +0.008 A 
ATOM      6  C   LIG    1       -3.046  -4.843   0.005  0.00  0.00    +0.011 A 
ATOM      7  C   LIG    1       -2.205  -5.972  -0.009  0.00  0.00    +0.028 A 
ATOM      8  C   LIG    1       -0.865  -5.811  -0.021  0.00  0.00    +0.092 A 
ATOM      9  N   LIG    1       -0.298  -4.569  -0.020  0.00  0.00    -0.320 N 
ATOM     10  C   LIG    1        1.068  -4.473  -0.033  0.00  0.00    +0.092 A 
ATOM     11  C   LIG    1        1.694  -3.280  -0.031  0.00  0.00    +0.029 A 
ATOM     12  C   LIG    1        0.941  -2.092  -0.018  0.00  0.00    +0.013 A 
ATOM     13  C   LIG    1        1.257  -0.669  -0.013  0.00  0.00    +0.010 A 
ATOM     14  C   LIG    1        2.439   0.075  -0.021  0.00  0.00    +0.010 A 
ATOM     15  C   LIG    1        2.381   1.438  -0.013  0.00  0.00    +0.001 A 
ATOM     16  C   LIG    1        1.154   2.097   0.002  0.00  0.00    +0.002 A 
ATOM     17  C   LIG    1       -0.017   1.401   0.010  0.00  0.00    +0.028 A 
ATOM     18  C   LIG    1        0.002  -0.004   0.002  0.00  0.00    +0.072 A 
ATOM     19  N   LIG    1       -0.967  -0.927   0.006  0.00  0.00    -0.245 NA
ATOM     20  C   LIG    1       -0.474  -2.167  -0.005  0.00  0.00    +0.098 A 
ATOM     21  C   LIG    1       -1.077  -3.450  -0.006  0.00  0.00    +0.096 A 
ATOM     22  C   LIG    1       -2.477  -3.565   0.006  0.00  0.00    +0.074 A 
ATOM     23  N   LIG    1       -3.495  -2.634   0.022  0.00  0.00    -0.352 N 
ATOM     24  H   LIG    1       -3.367  -1.672   0.027  0.00  0.00    +0.166 HD
ATOM     25  C   LIG    1       -5.587  -5.533   0.025  0.00  0.00    +0.010 A 
ENDROOT
TORSDOF 0
