REMARK  Name = ZINC01536779
REMARK                            x       y       z     vdW  Elec       q    Type
REMARK                         _______ _______ _______ _____ _____    ______ ____
ROOT
ATOM      1  C   LIG    1        1.427  -2.492  -2.471  0.00  0.00    +0.208 C 
ENDROOT
BRANCH   1   2
ATOM      2  C   LIG    1        1.792  -3.952  -2.550  0.00  0.00    +0.030 A 
ATOM      3  C   LIG    1        2.917  -4.575  -2.121  0.00  0.00    +0.015 A 
ATOM      4  C   LIG    1        3.038  -5.940  -2.300  0.00  0.00    +0.008 A 
ATOM      5  C   LIG    1        2.027  -6.616  -2.900  0.00  0.00    +0.045 A 
ATOM      6  S   LIG    1        0.853  -5.311  -3.227  0.00  0.00    -0.098 S 
ENDBRANCH   1   2
BRANCH   1   7
ATOM      7  C   LIG    1        0.588  -2.244  -1.216  0.00  0.00    +0.031 C 
BRANCH   7   8
ATOM      8  C   LIG    1        0.321  -0.745  -1.069  0.00  0.00    -0.079 C 
BRANCH   8  10
ATOM      9  C   LIG    1       -0.740   0.933   0.278  0.00  0.00    -0.101 C 
ATOM     10  N   LIG    1       -0.484  -0.507   0.136  0.00  0.00    +0.377 N 
ATOM     11  H   LIG    1       -1.362  -0.998   0.056  0.00  0.00    -0.086 HD
ATOM     12  H   LIG    1        0.015  -0.841   0.947  0.00  0.00    -0.086 HD
ENDBRANCH   8  10
ENDBRANCH   7   8
ENDBRANCH   1   7
BRANCH   1  13
ATOM     13  O   LIG    1        0.672  -2.127  -3.628  0.00  0.00    -0.483 OA
BRANCH  13  14
ATOM     14  C   LIG    1        1.375  -1.798  -4.744  0.00  0.00    +0.129 A 
ATOM     15  C   LIG    1        2.735  -1.931  -4.764  0.00  0.00    +0.046 A 
ATOM     16  C   LIG    1        3.469  -1.598  -5.899  0.00  0.00    +0.004 A 
ATOM     17  C   LIG    1        2.854  -1.132  -7.021  0.00  0.00    +0.009 A 
ATOM     18  C   LIG    1        1.457  -0.982  -7.041  0.00  0.00    -0.014 A 
ATOM     19  C   LIG    1        0.790  -0.503  -8.182  0.00  0.00    +0.008 A 
ATOM     20  C   LIG    1       -0.565  -0.385  -8.169  0.00  0.00    +0.001 A 
ATOM     21  C   LIG    1       -1.304  -0.716  -7.035  0.00  0.00    +0.001 A 
ATOM     22  C   LIG    1       -0.692  -1.178  -5.910  0.00  0.00    +0.012 A 
ATOM     23  C   LIG    1        0.705  -1.324  -5.890  0.00  0.00    +0.024 A 
ENDBRANCH  13  14
ENDBRANCH   1  13
TORSDOF 6
