REMARK  Name = ZINC01626613
REMARK                            x       y       z     vdW  Elec       q    Type
REMARK                         _______ _______ _______ _____ _____    ______ ____
ROOT
ATOM      1  C   LIG    1        6.497  -0.942  -0.845  0.00  0.00    +0.001 A 
ATOM      2  C   LIG    1        5.936  -1.908  -0.026  0.00  0.00    +0.002 A 
ATOM      3  C   LIG    1        4.661  -1.783   0.500  0.00  0.00    +0.026 A 
ATOM      4  C   LIG    1        3.952  -0.630   0.170  0.00  0.00    +0.047 A 
ATOM      5  C   LIG    1        4.533   0.358  -0.668  0.00  0.00    +0.004 A 
ATOM      6  C   LIG    1        3.544   1.406  -0.800  0.00  0.00    -0.006 A 
ATOM      7  C   LIG    1        2.452   1.019  -0.094  0.00  0.00    +0.053 A 
ATOM      8  C   LIG    1        1.192   1.788   0.000  0.00  0.00    +0.020 A 
ATOM      9  C   LIG    1       -0.013   1.076   0.008  0.00  0.00    +0.012 A 
ATOM     10  C   LIG    1       -1.217   1.745   0.017  0.00  0.00    +0.001 A 
ATOM     11  C   LIG    1       -1.236   3.129   0.028  0.00  0.00    +0.002 A 
ATOM     12  C   LIG    1       -0.057   3.841   0.034  0.00  0.00    +0.024 A 
ATOM     13  C   LIG    1        1.175   3.183   0.036  0.00  0.00    +0.043 A 
ATOM     14  N   LIG    1        2.314   3.965   0.098  0.00  0.00    -0.285 N 
ATOM     15  H   LIG    1        2.276   4.715   0.713  0.00  0.00    +0.155 HD
ATOM     16  C   LIG    1        3.455   3.828  -0.574  0.00  0.00    +0.222 C 
ATOM     17  O   LIG    1        4.348   4.628  -0.390  0.00  0.00    -0.275 OA
ATOM     18  C   LIG    1        3.667   2.704  -1.558  0.00  0.00    +0.134 C 
ATOM     19  N   LIG    1        2.701  -0.199   0.507  0.00  0.00    -0.354 N 
ATOM     20  H   LIG    1        2.082  -0.676   1.082  0.00  0.00    +0.166 HD
ATOM     21  C   LIG    1        5.823   0.204  -1.188  0.00  0.00    +0.010 A 
ENDROOT
TORSDOF 0
