REMARK  Name = ZINC01641376
REMARK                            x       y       z     vdW  Elec       q    Type
REMARK                         _______ _______ _______ _____ _____    ______ ____
ROOT
ATOM      1  C   LIG    1       -1.707  -1.858  -0.529  0.00  0.00    +0.021 A 
ATOM      2  C   LIG    1       -0.675  -2.648  -1.051  0.00  0.00    +0.015 A 
ATOM      3  C   LIG    1       -0.955  -3.898  -1.558  0.00  0.00    +0.050 A 
ATOM      4  C   LIG    1       -2.259  -4.377  -1.554  0.00  0.00    +0.158 A 
ATOM      5  C   LIG    1       -3.292  -3.596  -1.036  0.00  0.00    +0.159 A 
ATOM      6  C   LIG    1       -3.020  -2.345  -0.520  0.00  0.00    +0.060 A 
ENDROOT
BRANCH   1   7
ATOM      7  C   LIG    1       -1.412  -0.526   0.013  0.00  0.00    +0.166 C 
ATOM      8  O   LIG    1       -2.306   0.155   0.469  0.00  0.00    -0.292 OA
BRANCH   7  10
ATOM      9  C   LIG    1       -0.019   1.526   0.010  0.00  0.00    +0.015 C 
ATOM     10  C   LIG    1        0.002  -0.004   0.002  0.00  0.00    +0.054 C 
ATOM     11  C   LIG    1        0.742  -0.511   1.242  0.00  0.00    +0.015 C 
ENDBRANCH   7  10
ENDBRANCH   1   7
BRANCH   4  12
ATOM     12  O   LIG    1       -2.528  -5.609  -2.056  0.00  0.00    -0.503 OA
ATOM     13  H   LIG    1       -2.473  -6.321  -1.403  0.00  0.00    +0.292 HD
ENDBRANCH   4  12
BRANCH   5  14
ATOM     14  O   LIG    1       -4.567  -4.070  -1.034  0.00  0.00    -0.503 OA
ATOM     15  H   LIG    1       -4.803  -4.561  -0.236  0.00  0.00    +0.292 HD
ENDBRANCH   5  14
TORSDOF 4
