REMARK  Name = ZINC01612996
REMARK                            x       y       z     vdW  Elec       q    Type
REMARK                         _______ _______ _______ _____ _____    ______ ____
ROOT
ATOM      1  C   LIG    1       -1.513   4.626   0.239  0.00  0.00    -0.031 A 
ATOM      2  C   LIG    1       -2.902   4.405   0.129  0.00  0.00    +0.007 A 
ATOM      3  C   LIG    1       -3.812   5.472   0.147  0.00  0.00    +0.056 A 
ATOM      4  C   LIG    1       -5.151   5.219   0.043  0.00  0.00    +0.134 A 
ATOM      5  C   LIG    1       -5.623   3.908  -0.083  0.00  0.00    +0.048 A 
ATOM      6  C   LIG    1       -4.766   2.853  -0.103  0.00  0.00    +0.032 A 
ATOM      7  C   LIG    1       -3.379   3.075   0.003  0.00  0.00    +0.072 A 
ATOM      8  N   LIG    1       -2.521   2.055  -0.015  0.00  0.00    -0.245 NA
ATOM      9  C   LIG    1       -1.215   2.249   0.081  0.00  0.00    +0.093 A 
ATOM     10  C   LIG    1       -0.086   1.290   0.084  0.00  0.00    +0.071 A 
ATOM     11  C   LIG    1       -0.084  -0.085  -0.014  0.00  0.00    +0.035 A 
ATOM     12  C   LIG    1        1.126  -0.792   0.007  0.00  0.00    +0.008 A 
ATOM     13  C   LIG    1        2.296  -0.111   0.136  0.00  0.00    +0.061 A 
ATOM     14  C   LIG    1        3.632  -0.803   0.193  0.00  0.00    +0.273 C 
ATOM     15  O   LIG    1        3.521  -2.170  -0.284  0.00  0.00    -0.457 OA
ATOM     16  C   LIG    1        2.456  -2.852   0.194  0.00  0.00    +0.344 C 
ATOM     17  O   LIG    1        2.589  -3.859   0.848  0.00  0.00    -0.247 OA
ATOM     18  C   LIG    1        2.266   1.296   0.223  0.00  0.00    +0.259 A 
ATOM     19  O   LIG    1        3.312   1.917   0.321  0.00  0.00    -0.267 OA
ATOM     20  C   LIG    1        1.090  -2.293  -0.131  0.00  0.00    +0.188 C 
ATOM     21  N   LIG    1        1.096   1.964   0.201  0.00  0.00    -0.302 N 
ATOM     22  C   LIG    1        0.810   3.402   0.286  0.00  0.00    +0.163 C 
ATOM     23  C   LIG    1       -0.688   3.546   0.209  0.00  0.00    +0.003 A 
ENDROOT
BRANCH   1  25
ATOM     24  C   LIG    1       -0.688   6.597  -1.020  0.00  0.00    +0.009 C 
ATOM     25  C   LIG    1       -0.959   6.021   0.371  0.00  0.00    +0.033 C 
ENDBRANCH   1  25
BRANCH  20  26
ATOM     26  O   LIG    1        0.125  -2.833   0.774  0.00  0.00    -0.373 OA
ATOM     27  H   LIG    1        0.048  -3.796   0.739  0.00  0.00    +0.211 HD
ENDBRANCH  20  26
BRANCH  20  28
ATOM     28  C   LIG    1        0.712  -2.666  -1.566  0.00  0.00    +0.048 C 
ATOM     29  C   LIG    1        0.675  -4.189  -1.705  0.00  0.00    +0.007 C 
ENDBRANCH  20  28
BRANCH   4  30
ATOM     30  O   LIG    1       -6.033   6.252   0.060  0.00  0.00    -0.411 OA
BRANCH  30  31
ATOM     31  C   LIG    1       -6.814   6.371   1.151  0.00  0.00    +0.408 C 
ATOM     32  N   LIG    1       -7.791   7.298   1.183  0.00  0.00    -0.267 N 
ATOM     33  C   LIG    1       -8.013   8.192   0.037  0.00  0.00    +0.109 C 
ATOM     34  C   LIG    1       -9.488   8.093  -0.381  0.00  0.00    +0.004 C 
ATOM     35  C   LIG    1      -10.376   8.392   0.830  0.00  0.00    -0.066 C 
ATOM     36  C   LIG    1      -10.116   7.354   1.924  0.00  0.00    +0.004 C 
ATOM     37  C   LIG    1       -8.651   7.439   2.366  0.00  0.00    +0.109 C 
ATOM     38  O   LIG    1       -6.638   5.641   2.107  0.00  0.00    -0.226 OA
BRANCH  35  39
ATOM     39  N   LIG    1      -11.803   8.339   0.452  0.00  0.00    +0.382 N 
ATOM     40  H   LIG    1      -12.376   8.495   1.290  0.00  0.00    -0.081 HD
ATOM     41  C   LIG    1      -12.103   9.396  -0.537  0.00  0.00    -0.078 C 
ATOM     42  C   LIG    1      -13.606   9.398  -0.823  0.00  0.00    -0.019 C 
ATOM     43  C   LIG    1      -14.016   8.034  -1.385  0.00  0.00    -0.004 C 
ATOM     44  C   LIG    1      -13.632   6.941  -0.383  0.00  0.00    -0.019 C 
ATOM     45  C   LIG    1      -12.128   7.011  -0.111  0.00  0.00    -0.078 C 
ENDBRANCH  35  39
ENDBRANCH  30  31
ENDBRANCH   4  30
TORSDOF 6
