REMARK  Name = ZINC01587825
REMARK                            x       y       z     vdW  Elec       q    Type
REMARK                         _______ _______ _______ _____ _____    ______ ____
ROOT
ATOM      1  C   LIG    1        0.889  -1.966   1.449  0.00  0.00    +0.228 C 
ATOM      2  O   LIG    1        0.334  -2.757   0.714  0.00  0.00    -0.284 OA
ENDROOT
BRANCH   1   3
ATOM      3  C   LIG    1        1.696  -2.454   2.583  0.00  0.00    +0.025 A 
ATOM      4  C   LIG    1        2.222  -1.550   3.512  0.00  0.00    +0.012 A 
ATOM      5  C   LIG    1        2.975  -2.014   4.569  0.00  0.00    +0.001 A 
ATOM      6  C   LIG    1        3.211  -3.370   4.713  0.00  0.00    +0.000 A 
ATOM      7  C   LIG    1        2.694  -4.272   3.798  0.00  0.00    +0.001 A 
ATOM      8  C   LIG    1        1.933  -3.824   2.739  0.00  0.00    +0.012 A 
ENDBRANCH   1   3
BRANCH   1   9
ATOM      9  C   LIG    1        0.755  -0.504   1.206  0.00  0.00    +0.203 C 
ATOM     10  O   LIG    1        1.228   0.285   1.989  0.00  0.00    -0.289 OA
BRANCH   9  12
ATOM     11  C   LIG    1        0.035   1.523  -0.029  0.00  0.00    +0.012 C 
ATOM     12  C   LIG    1        0.030  -0.007  -0.018  0.00  0.00    +0.080 C 
ENDBRANCH   9  12
ENDBRANCH   1   9
TORSDOF 3
