REMARK  Name = ZINC01489478
REMARK                            x       y       z     vdW  Elec       q    Type
REMARK                         _______ _______ _______ _____ _____    ______ ____
ROOT
ATOM      1  C   LIG    1        1.260   5.623   1.463  0.00  0.00    +0.080 C 
ENDROOT
BRANCH   1   2
ATOM      2  C   LIG    1        1.391   6.110   2.884  0.00  0.00    +0.214 C 
ATOM      3  N   LIG    1        1.296   7.426   3.156  0.00  0.00    -0.292 N 
ATOM      4  C   LIG    1        1.427   7.925   4.534  0.00  0.00    +0.130 C 
ATOM      5  C   LIG    1        2.664   8.826   4.630  0.00  0.00    +0.144 C 
ATOM      6  N   LIG    1        2.678   9.745   3.492  0.00  0.00    -0.305 N 
ATOM      7  C   LIG    1        1.978   9.578   2.342  0.00  0.00    +0.151 A 
ATOM      8  N   LIG    1        2.251  10.582   1.568  0.00  0.00    -0.132 NA
ATOM      9  N   LIG    1        3.075  11.373   2.166  0.00  0.00    -0.125 NA
ATOM     10  C   LIG    1        3.363  10.897   3.351  0.00  0.00    +0.238 A 
ATOM     11  C   LIG    1        1.065   8.409   2.081  0.00  0.00    +0.184 C 
ATOM     12  O   LIG    1        1.582   5.317   3.781  0.00  0.00    -0.276 OA
BRANCH  10  13
ATOM     13  C   LIG    1        4.285  11.521   4.366  0.00  0.00    +0.452 C 
ATOM     14  F   LIG    1        5.491  10.812   4.399  0.00  0.00    -0.163 F 
ATOM     15  F   LIG    1        3.685  11.479   5.629  0.00  0.00    -0.163 F 
ATOM     16  F   LIG    1        4.536  12.852   4.013  0.00  0.00    -0.163 F 
ENDBRANCH  10  13
ENDBRANCH   1   2
BRANCH   1  17
ATOM     17  C   LIG    1        1.405   4.101   1.431  0.00  0.00    -0.062 C 
BRANCH  17  18
ATOM     18  N   LIG    1        2.765   3.729   1.845  0.00  0.00    +0.381 N 
ATOM     19  H   LIG    1        2.934   4.063   2.782  0.00  0.00    -0.090 HD
ATOM     20  H   LIG    1        3.434   4.144   1.214  0.00  0.00    -0.090 HD
ATOM     21  H   LIG    1        2.861   2.725   1.823  0.00  0.00    -0.090 HD
ENDBRANCH  17  18
BRANCH  17  22
ATOM     22  C   LIG    1        1.149   3.594   0.010  0.00  0.00    +0.022 C 
BRANCH  22  24
ATOM     23  C   LIG    1       -0.017   1.379   0.010  0.00  0.00    +0.047 A 
ATOM     24  C   LIG    1        1.171   2.087   0.002  0.00  0.00    -0.011 A 
ATOM     25  C   LIG    1        2.380   1.413  -0.013  0.00  0.00    +0.129 A 
ATOM     26  F   LIG    1        3.539   2.106  -0.021  0.00  0.00    -0.205 F 
ATOM     27  C   LIG    1        2.400   0.029  -0.021  0.00  0.00    +0.080 A 
ATOM     28  C   LIG    1        1.213  -0.681  -0.013  0.00  0.00    +0.161 A 
ATOM     29  F   LIG    1        1.232  -2.031  -0.021  0.00  0.00    -0.202 F 
ATOM     30  C   LIG    1        0.002  -0.004   0.002  0.00  0.00    +0.159 A 
ATOM     31  F   LIG    1       -1.159  -0.696   0.010  0.00  0.00    -0.202 F 
ENDBRANCH  22  24
ENDBRANCH  17  22
ENDBRANCH   1  17
TORSDOF 6
