REMARK  Name = ZINC01535967
REMARK                            x       y       z     vdW  Elec       q    Type
REMARK                         _______ _______ _______ _____ _____    ______ ____
ROOT
ATOM      1  C   LIG    1        0.569  -0.214  -1.110  0.00  0.00    +0.218 C 
ATOM      2  N   LIG    1       -0.651  -0.707  -0.817  0.00  0.00    -0.285 N 
ATOM      3  H   LIG    1       -0.782  -1.665  -0.743  0.00  0.00    +0.155 HD
ATOM      4  O   LIG    1        0.714   0.975  -1.298  0.00  0.00    -0.275 OA
ENDROOT
BRANCH   2   5
ATOM      5  C   LIG    1       -1.726   0.162  -0.624  0.00  0.00    +0.033 A 
ATOM      6  C   LIG    1       -1.516   1.410  -0.048  0.00  0.00    +0.024 A 
ATOM      7  C   LIG    1       -2.575   2.272   0.138  0.00  0.00    +0.017 A 
ATOM      8  C   LIG    1       -3.861   1.887  -0.243  0.00  0.00    +0.061 A 
ATOM      9  C   LIG    1       -4.070   0.631  -0.816  0.00  0.00    +0.017 A 
ATOM     10  C   LIG    1       -3.007  -0.224  -1.004  0.00  0.00    +0.024 A 
BRANCH   8  11
ATOM     11  C   LIG    1       -5.001   2.807  -0.040  0.00  0.00    +0.266 C 
ATOM     12  N   LIG    1       -6.196   2.381  -0.423  0.00  0.00    -0.288 N 
ATOM     13  H   LIG    1       -6.299   1.449  -0.841  0.00  0.00    +0.301 HD
ATOM     14  H   LIG    1       -7.013   2.980  -0.304  0.00  0.00    +0.301 HD
BRANCH  11  15
ATOM     15  N   LIG    1       -4.793   4.047   0.526  0.00  0.00    -0.250 N 
ATOM     16  H   LIG    1       -5.540   4.651   0.659  0.00  0.00    +0.288 HD
ATOM     17  H   LIG    1       -3.900   4.315   0.791  0.00  0.00    +0.288 HD
ENDBRANCH  11  15
ENDBRANCH   8  11
ENDBRANCH   2   5
BRANCH   1  18
ATOM     18  C   LIG    1        1.753  -1.141  -1.205  0.00  0.00    +0.105 C 
BRANCH  18  19
ATOM     19  C   LIG    1        3.007  -0.334  -1.547  0.00  0.00    +0.105 C 
BRANCH  19  22
ATOM     20  N   LIG    1        5.411  -0.769  -1.935  0.00  0.00    -0.301 N 
ATOM     21  H   LIG    1        5.527   0.182  -2.086  0.00  0.00    +0.150 HD
ATOM     22  C   LIG    1        4.191  -1.261  -1.642  0.00  0.00    +0.214 C 
ATOM     23  O   LIG    1        4.047  -2.451  -1.454  0.00  0.00    -0.276 OA
BRANCH  20  24
ATOM     24  C   LIG    1        6.562  -1.670  -2.027  0.00  0.00    +0.159 C 
BRANCH  24  25
ATOM     25  C   LIG    1        7.127  -1.883  -0.685  0.00  0.00    -0.083 C 
ATOM     26  C   LIG    1        7.577  -2.054   0.386  0.00  0.00    +0.006 C 
ENDBRANCH  24  25
BRANCH  24  27
ATOM     27  C   LIG    1        7.626  -1.048  -2.935  0.00  0.00    +0.156 C 
BRANCH  27  28
ATOM     28  C   LIG    1        7.089  -0.943  -4.339  0.00  0.00    +0.310 C 
ATOM     29  O   LIG    1        5.970  -1.326  -4.588  0.00  0.00    -0.251 OA
BRANCH  28  30
ATOM     30  O   LIG    1        7.853  -0.424  -5.313  0.00  0.00    -0.465 OA
BRANCH  30  32
ATOM     31  C   LIG    1        8.282   0.261  -7.610  0.00  0.00    +0.048 C 
ATOM     32  C   LIG    1        7.270  -0.354  -6.641  0.00  0.00    +0.229 C 
ENDBRANCH  30  32
ENDBRANCH  28  30
ENDBRANCH  27  28
ENDBRANCH  24  27
ENDBRANCH  20  24
ENDBRANCH  19  22
ENDBRANCH  18  19
ENDBRANCH   1  18
TORSDOF 12
