REMARK  Name = ZINC01614354
REMARK                            x       y       z     vdW  Elec       q    Type
REMARK                         _______ _______ _______ _____ _____    ______ ____
ROOT
ATOM      1  N   LIG    1        2.705  -6.110   3.790  0.00  0.00    -0.309 N 
ATOM      2  C   LIG    1        1.811  -7.095   3.491  0.00  0.00    +0.202 A 
ATOM      3  N   LIG    1        2.402  -8.254   3.515  0.00  0.00    -0.231 NA
ATOM      4  C   LIG    1        3.709  -8.087   3.831  0.00  0.00    +0.147 A 
ATOM      5  C   LIG    1        4.803  -8.953   3.999  0.00  0.00    +0.147 A 
ATOM      6  N   LIG    1        5.985  -8.427   4.305  0.00  0.00    -0.219 NA
ATOM      7  C   LIG    1        6.134  -7.125   4.463  0.00  0.00    +0.225 A 
ATOM      8  N   LIG    1        5.137  -6.277   4.319  0.00  0.00    -0.216 NA
ATOM      9  C   LIG    1        3.920  -6.709   4.005  0.00  0.00    +0.166 A 
ENDROOT
BRANCH   5  10
ATOM     10  N   LIG    1        4.657 -10.319   3.836  0.00  0.00    -0.341 N 
ATOM     11  H   LIG    1        5.419 -10.906   3.955  0.00  0.00    +0.144 HD
ATOM     12  H   LIG    1        3.791 -10.690   3.602  0.00  0.00    +0.144 HD
ENDBRANCH   5  10
BRANCH   1  13
ATOM     13  C   LIG    1        2.421  -4.674   3.862  0.00  0.00    +0.118 C 
BRANCH  13  14
ATOM     14  C   LIG    1        1.361  -4.417   4.934  0.00  0.00    +0.134 C 
ATOM     15  C   LIG    1        1.845  -4.973   6.275  0.00  0.00    +0.040 C 
BRANCH  14  16
ATOM     16  O   LIG    1        1.137  -3.011   5.055  0.00  0.00    -0.390 OA
ATOM     17  H   LIG    1        0.740  -2.607   4.271  0.00  0.00    +0.210 HD
ENDBRANCH  14  16
ENDBRANCH  13  14
BRANCH  13  18
ATOM     18  C   LIG    1        1.905  -4.188   2.506  0.00  0.00    +0.028 C 
BRANCH  18  19
ATOM     19  C   LIG    1        3.009  -4.332   1.458  0.00  0.00    +0.002 C 
BRANCH  19  20
ATOM     20  C   LIG    1        2.471  -3.911   0.089  0.00  0.00    +0.000 C 
BRANCH  20  21
ATOM     21  C   LIG    1        3.576  -4.055  -0.960  0.00  0.00    -0.000 C 
BRANCH  21  23
ATOM     22  C   LIG    1        4.143  -3.778  -3.377  0.00  0.00    +0.004 C 
ATOM     23  C   LIG    1        3.038  -3.634  -2.329  0.00  0.00    -0.003 C 
ENDBRANCH  21  23
ENDBRANCH  20  21
ENDBRANCH  19  20
ENDBRANCH  18  19
ENDBRANCH  13  18
ENDBRANCH   1  13
TORSDOF 9
