REMARK  Name = ZINC01465336
REMARK                            x       y       z     vdW  Elec       q    Type
REMARK                         _______ _______ _______ _____ _____    ______ ____
ROOT
ATOM      1  C   LIG    1        3.584  -1.891   0.841  0.00  0.00    +0.101 A 
ATOM      2  C   LIG    1        4.032  -3.020   1.571  0.00  0.00    +0.013 A 
ATOM      3  C   LIG    1        3.213  -3.716   2.465  0.00  0.00    +0.011 A 
ATOM      4  C   LIG    1        3.715  -4.795   3.133  0.00  0.00    +0.001 A 
ATOM      5  C   LIG    1        5.029  -5.212   2.937  0.00  0.00    +0.001 A 
ATOM      6  C   LIG    1        5.854  -4.555   2.072  0.00  0.00    +0.012 A 
ATOM      7  C   LIG    1        5.370  -3.445   1.371  0.00  0.00    +0.026 A 
ATOM      8  C   LIG    1        6.163  -2.713   0.457  0.00  0.00    +0.152 A 
ATOM      9  N   LIG    1        5.631  -1.676  -0.165  0.00  0.00    -0.133 NA
ATOM     10  N   LIG    1        4.421  -1.294   0.011  0.00  0.00    -0.147 NA
ENDROOT
BRANCH   8  11
ATOM     11  N   LIG    1        7.478  -3.078   0.218  0.00  0.00    -0.310 N 
ATOM     12  C   LIG    1        7.808  -4.027  -0.854  0.00  0.00    +0.125 C 
ATOM     13  C   LIG    1        8.833  -3.373  -1.789  0.00  0.00    +0.127 C 
ATOM     14  N   LIG    1        9.923  -2.817  -0.975  0.00  0.00    -0.292 N 
ATOM     15  C   LIG    1       11.202  -3.171  -1.207  0.00  0.00    +0.282 C 
ATOM     16  O   LIG    1       12.084  -2.797  -0.456  0.00  0.00    -0.267 OA
ATOM     17  C   LIG    1        9.593  -1.868   0.098  0.00  0.00    +0.127 C 
ATOM     18  C   LIG    1        8.568  -2.517   1.029  0.00  0.00    +0.125 C 
BRANCH  15  19
ATOM     19  C   LIG    1       11.533  -4.008  -2.366  0.00  0.00    +0.189 A 
ATOM     20  C   LIG    1       12.752  -4.559  -2.636  0.00  0.00    +0.054 A 
ATOM     21  C   LIG    1       12.614  -5.276  -3.835  0.00  0.00    +0.042 A 
ATOM     22  C   LIG    1       11.333  -5.132  -4.239  0.00  0.00    +0.196 A 
ATOM     23  O   LIG    1       10.683  -4.371  -3.349  0.00  0.00    -0.458 OA
ENDBRANCH  15  19
ENDBRANCH   8  11
BRANCH   1  27
ATOM     24  C   LIG    1       -0.391  -0.461   1.301  0.00  0.00    +0.000 A 
ATOM     25  C   LIG    1        0.351  -0.803   2.417  0.00  0.00    +0.001 A 
ATOM     26  C   LIG    1        1.643  -1.268   2.274  0.00  0.00    +0.010 A 
ATOM     27  C   LIG    1        2.199  -1.393   1.001  0.00  0.00    +0.003 A 
ATOM     28  C   LIG    1        1.445  -1.047  -0.120  0.00  0.00    +0.010 A 
ATOM     29  C   LIG    1        0.155  -0.583   0.036  0.00  0.00    +0.001 A 
ENDBRANCH   1  27
TORSDOF 3
