REMARK  Name = ZINC01494905
REMARK                            x       y       z     vdW  Elec       q    Type
REMARK                         _______ _______ _______ _____ _____    ______ ____
ROOT
ATOM      1  N   LIG    1        2.520  -0.898  -5.833  0.00  0.00    -0.168 NA
ENDROOT
BRANCH   1   2
ATOM      2  S   LIG    1        1.295  -1.104  -6.929  0.00  0.00    +0.063 S 
ATOM      3  O   LIG    1        0.886  -2.461  -6.829  0.00  0.00    -0.153 OA
ATOM      4  O   LIG    1        1.742  -0.530  -8.150  0.00  0.00    -0.153 OA
BRANCH   2   5
ATOM      5  C   LIG    1       -0.064  -0.126  -6.380  0.00  0.00    +0.123 A 
ATOM      6  C   LIG    1       -1.014  -0.662  -5.523  0.00  0.00    +0.031 A 
ATOM      7  C   LIG    1       -2.066   0.144  -5.118  0.00  0.00    +0.022 A 
ATOM      8  C   LIG    1       -2.133   1.446  -5.578  0.00  0.00    +0.111 A 
ATOM      9  N   LIG    1       -1.212   1.922  -6.393  0.00  0.00    -0.261 NA
ATOM     10  C   LIG    1       -0.194   1.186  -6.795  0.00  0.00    +0.139 A 
ENDBRANCH   2   5
ENDBRANCH   1   2
BRANCH   1  11
ATOM     11  C   LIG    1        2.707  -1.868  -4.752  0.00  0.00    +0.145 C 
BRANCH  11  15
ATOM     12  C   LIG    1        0.707  -0.490  -1.238  0.00  0.00    -0.042 A 
ATOM     13  C   LIG    1        0.036  -1.284  -2.148  0.00  0.00    +0.004 A 
ATOM     14  C   LIG    1        0.683  -1.730  -3.286  0.00  0.00    +0.005 A 
ATOM     15  C   LIG    1        2.001  -1.381  -3.513  0.00  0.00    -0.032 A 
ATOM     16  C   LIG    1        2.672  -0.586  -2.603  0.00  0.00    +0.005 A 
ATOM     17  C   LIG    1        2.024  -0.137  -1.467  0.00  0.00    +0.004 A 
BRANCH  12  19
ATOM     18  C   LIG    1       -0.019   1.526   0.010  0.00  0.00    +0.015 C 
ATOM     19  C   LIG    1        0.002  -0.004   0.002  0.00  0.00    -0.013 C 
ATOM     20  C   LIG    1       -1.433  -0.534   0.013  0.00  0.00    +0.015 C 
ATOM     21  C   LIG    1        0.742  -0.511   1.242  0.00  0.00    +0.015 C 
ENDBRANCH  12  19
ENDBRANCH  11  15
ENDBRANCH   1  11
BRANCH   1  22
ATOM     22  C   LIG    1        3.417   0.255  -5.946  0.00  0.00    +0.145 C 
BRANCH  22  23
ATOM     23  C   LIG    1        4.653  -0.142  -6.711  0.00  0.00    -0.028 A 
ATOM     24  C   LIG    1        5.751  -0.645  -6.037  0.00  0.00    +0.005 A 
ATOM     25  C   LIG    1        6.886  -1.010  -6.737  0.00  0.00    +0.004 A 
ATOM     26  C   LIG    1        6.926  -0.874  -8.111  0.00  0.00    +0.045 A 
ATOM     27  C   LIG    1        5.826  -0.370  -8.789  0.00  0.00    +0.122 A 
ATOM     28  C   LIG    1        4.686  -0.009  -8.086  0.00  0.00    +0.050 A 
BRANCH  27  29
ATOM     29  O   LIG    1        5.863  -0.235 -10.141  0.00  0.00    -0.481 OA
BRANCH  29  30
ATOM     30  C   LIG    1        7.067  -0.631 -10.800  0.00  0.00    +0.349 C 
BRANCH  30  31
ATOM     31  C   LIG    1        6.924  -0.412 -12.284  0.00  0.00    +0.343 C 
ATOM     32  O   LIG    1        5.887   0.043 -12.735  0.00  0.00    -0.247 OA
BRANCH  31  33
ATOM     33  O   LIG    1        7.846  -0.688 -13.033  0.00  0.00    -0.478 OA
ATOM     34  H   LIG    1        8.643  -1.037 -12.686  0.00  0.00    +0.295 HD
ENDBRANCH  31  33
ENDBRANCH  30  31
ENDBRANCH  29  30
ENDBRANCH  27  29
ENDBRANCH  22  23
ENDBRANCH   1  22
TORSDOF 11
