REMARK  Name = ZINC01583409
REMARK                            x       y       z     vdW  Elec       q    Type
REMARK                         _______ _______ _______ _____ _____    ______ ____
ROOT
ATOM      1  C   LIG    1        4.171  -0.963   1.399  0.00  0.00    +0.148 C 
ENDROOT
BRANCH   1   2
ATOM      2  N   LIG    1        4.451   0.315   2.057  0.00  0.00    -0.271 N 
ATOM      3  H   LIG    1        4.689   1.092   1.527  0.00  0.00    +0.153 HD
ATOM      4  C   LIG    1        4.378   0.412   3.400  0.00  0.00    +0.401 C 
ATOM      5  O   LIG    1        4.080  -0.561   4.064  0.00  0.00    -0.226 OA
BRANCH   4   6
ATOM      6  O   LIG    1        4.635   1.587   4.005  0.00  0.00    -0.446 OA
BRANCH   6   7
ATOM      7  C   LIG    1        4.538   1.617   5.430  0.00  0.00    +0.269 C 
BRANCH   7   8
ATOM      8  C   LIG    1        4.858   3.004   5.926  0.00  0.00    -0.010 A 
ATOM      9  C   LIG    1        6.162   3.345   6.232  0.00  0.00    +0.007 A 
ATOM     10  C   LIG    1        6.455   4.617   6.687  0.00  0.00    +0.000 A 
ATOM     11  C   LIG    1        5.444   5.548   6.835  0.00  0.00    +0.000 A 
ATOM     12  C   LIG    1        4.140   5.208   6.527  0.00  0.00    +0.000 A 
ATOM     13  C   LIG    1        3.848   3.937   6.069  0.00  0.00    +0.007 A 
ENDBRANCH   7   8
ENDBRANCH   6   7
ENDBRANCH   4   6
ENDBRANCH   1   2
BRANCH   1  14
ATOM     14  C   LIG    1        5.422  -1.804   1.383  0.00  0.00    +0.168 C 
ATOM     15  O   LIG    1        6.493  -1.298   1.617  0.00  0.00    -0.294 OA
BRANCH  14  16
ATOM     16  C   LIG    1        5.335  -3.277   1.077  0.00  0.00    +0.184 C 
ATOM     17 CL   LIG    1        6.985  -4.001   1.134  0.00  0.00    -0.117 Cl
ENDBRANCH  14  16
ENDBRANCH   1  14
BRANCH   1  18
ATOM     18  C   LIG    1        3.711  -0.707  -0.038  0.00  0.00    +0.065 C 
BRANCH  18  22
ATOM     19  C   LIG    1       -0.017   1.378   0.010  0.00  0.00    +0.000 A 
ATOM     20  C   LIG    1        1.171   2.086   0.002  0.00  0.00    +0.000 A 
ATOM     21  C   LIG    1        2.377   1.411  -0.013  0.00  0.00    +0.004 A 
ATOM     22  C   LIG    1        2.396   0.029  -0.020  0.00  0.00    -0.045 A 
ATOM     23  C   LIG    1        1.208  -0.679  -0.012  0.00  0.00    +0.004 A 
ATOM     24  C   LIG    1        0.002  -0.004   0.002  0.00  0.00    +0.000 A 
ENDBRANCH  18  22
ENDBRANCH   1  18
TORSDOF 8
