REMARK  Name = ZINC01541801
REMARK                            x       y       z     vdW  Elec       q    Type
REMARK                         _______ _______ _______ _____ _____    ______ ____
ROOT
ATOM      1  C   LIG    1        0.813  10.374   0.054  0.00  0.00    +0.066 C 
ATOM      2  C   LIG    1        2.075   9.552   0.036  0.00  0.00    +0.056 A 
ATOM      3  C   LIG    1        3.367  10.037   0.026  0.00  0.00    +0.077 A 
ATOM      4  C   LIG    1        4.233   8.920   0.012  0.00  0.00    +0.148 A 
ATOM      5  N   LIG    1        3.501   7.840   0.019  0.00  0.00    -0.172 NA
ATOM      6  N   LIG    1        2.151   8.207   0.028  0.00  0.00    -0.212 N 
ENDROOT
BRANCH   6   7
ATOM      7  C   LIG    1        1.068   7.330   0.034  0.00  0.00    +0.194 A 
ATOM      8  N   LIG    1        1.063   6.011   0.026  0.00  0.00    -0.221 NA
ATOM      9  C   LIG    1       -0.070   5.327   0.033  0.00  0.00    +0.080 A 
ATOM     10  C   LIG    1       -1.261   6.002   0.043  0.00  0.00    +0.077 A 
ATOM     11  S   LIG    1       -0.682   7.694   0.052  0.00  0.00    -0.056 S 
BRANCH   9  12
ATOM     12  C   LIG    1       -0.050   3.844   0.024  0.00  0.00    +0.001 A 
ATOM     13  C   LIG    1       -1.246   3.128   0.031  0.00  0.00    +0.010 A 
ATOM     14  C   LIG    1       -1.222   1.749   0.017  0.00  0.00    +0.001 A 
ATOM     15  C   LIG    1       -0.013   1.076   0.008  0.00  0.00    +0.012 A 
ATOM     16  C   LIG    1        1.177   1.781   0.000  0.00  0.00    +0.055 A 
ATOM     17  C   LIG    1        1.165   3.161   0.008  0.00  0.00    +0.022 A 
BRANCH  16  18
ATOM     18  C   LIG    1        2.490   1.041  -0.016  0.00  0.00    +0.417 C 
ATOM     19  F   LIG    1        3.231   1.380   1.121  0.00  0.00    -0.166 F 
ATOM     20  F   LIG    1        3.209   1.393  -1.163  0.00  0.00    -0.166 F 
ATOM     21  F   LIG    1        2.248  -0.337  -0.021  0.00  0.00    -0.166 F 
ENDBRANCH  16  18
ENDBRANCH   9  12
ENDBRANCH   6   7
BRANCH   3  22
ATOM     22  C   LIG    1        3.769  11.455   0.031  0.00  0.00    +0.247 C 
ATOM     23  N   LIG    1        5.076  11.786   0.020  0.00  0.00    -0.311 N 
ATOM     24  H   LIG    1        5.752  11.090   0.009  0.00  0.00    +0.149 HD
ATOM     25  O   LIG    1        2.921  12.327   0.045  0.00  0.00    -0.270 OA
BRANCH  23  26
ATOM     26  C   LIG    1        5.475  13.195   0.025  0.00  0.00    +0.107 C 
BRANCH  26  27
ATOM     27  C   LIG    1        7.002  13.293   0.011  0.00  0.00    +0.046 C 
BRANCH  27  28
ATOM     28  C   LIG    1        7.419  14.765   0.016  0.00  0.00    +0.157 C 
BRANCH  28  29
ATOM     29  O   LIG    1        8.845  14.856   0.002  0.00  0.00    -0.395 OA
ATOM     30  H   LIG    1        9.181  15.763   0.004  0.00  0.00    +0.209 HD
ENDBRANCH  28  29
ENDBRANCH  27  28
ENDBRANCH  26  27
ENDBRANCH  23  26
ENDBRANCH   3  22
TORSDOF 8
