REMARK  Name = ZINC01587804
REMARK                            x       y       z     vdW  Elec       q    Type
REMARK                         _______ _______ _______ _____ _____    ______ ____
ROOT
ATOM      1  C   LIG    1       -2.499   1.011   0.024  0.00  0.00    +0.237 C 
ATOM      2  O   LIG    1       -2.778   1.627  -0.986  0.00  0.00    -0.283 OA
ENDROOT
BRANCH   1   5
ATOM      3  C   LIG    1       -1.872   1.685   3.646  0.00  0.00    +0.046 A 
ATOM      4  C   LIG    1       -2.075   1.016   2.475  0.00  0.00    +0.019 A 
ATOM      5  C   LIG    1       -2.286   1.729   1.286  0.00  0.00    +0.067 A 
ATOM      6  C   LIG    1       -2.297   3.137   1.310  0.00  0.00    +0.131 A 
ATOM      7  C   LIG    1       -2.089   3.801   2.506  0.00  0.00    +0.091 A 
ATOM      8  C   LIG    1       -1.877   3.079   3.672  0.00  0.00    +0.120 A 
BRANCH   6   9
ATOM      9  O   LIG    1       -2.505   3.837   0.168  0.00  0.00    -0.506 OA
ATOM     10  H   LIG    1       -1.696   4.046  -0.318  0.00  0.00    +0.292 HD
ENDBRANCH   6   9
BRANCH   8  11
ATOM     11  O   LIG    1       -1.673   3.732   4.843  0.00  0.00    -0.507 OA
ATOM     12  H   LIG    1       -0.745   3.928   5.028  0.00  0.00    +0.292 HD
ENDBRANCH   8  11
ENDBRANCH   1   5
BRANCH   1  13
ATOM     13  C   LIG    1       -2.375  -0.473  -0.020  0.00  0.00    +0.237 C 
ATOM     14  O   LIG    1       -1.276  -0.992   0.003  0.00  0.00    -0.283 OA
BRANCH  13  15
ATOM     15  C   LIG    1       -3.579  -1.309  -0.090  0.00  0.00    +0.067 A 
ATOM     16  C   LIG    1       -4.842  -0.715  -0.225  0.00  0.00    +0.019 A 
ATOM     17  C   LIG    1       -5.960  -1.494  -0.291  0.00  0.00    +0.046 A 
ATOM     18  C   LIG    1       -5.857  -2.882  -0.223  0.00  0.00    +0.120 A 
ATOM     19  C   LIG    1       -4.616  -3.488  -0.089  0.00  0.00    +0.091 A 
ATOM     20  C   LIG    1       -3.472  -2.711  -0.027  0.00  0.00    +0.131 A 
BRANCH  18  21
ATOM     21  O   LIG    1       -6.977  -3.646  -0.290  0.00  0.00    -0.507 OA
ATOM     22  H   LIG    1       -7.223  -3.904  -1.188  0.00  0.00    +0.292 HD
ENDBRANCH  18  21
BRANCH  20  23
ATOM     23  O   LIG    1       -2.256  -3.297   0.098  0.00  0.00    -0.506 OA
ATOM     24  H   LIG    1       -1.977  -3.434   1.014  0.00  0.00    +0.292 HD
ENDBRANCH  20  23
ENDBRANCH  13  15
ENDBRANCH   1  13
TORSDOF 7
