REMARK  Name = ZINC01608243
REMARK                            x       y       z     vdW  Elec       q    Type
REMARK                         _______ _______ _______ _____ _____    ______ ____
ROOT
ATOM      1  C   LIG    1        1.158   3.159   0.007  0.00  0.00    +0.000 A 
ATOM      2  C   LIG    1        1.176   1.776   0.000  0.00  0.00    +0.000 A 
ATOM      3  C   LIG    1       -0.013   1.076   0.008  0.00  0.00    +0.004 A 
ATOM      4  C   LIG    1       -1.228   1.748   0.017  0.00  0.00    -0.045 A 
ATOM      5  C   LIG    1       -1.246   3.125   0.025  0.00  0.00    -0.044 A 
ATOM      6  C   LIG    1       -2.526   3.919   0.029  0.00  0.00    +0.034 C 
ATOM      7  C   LIG    1       -3.698   3.046   0.470  0.00  0.00    +0.003 C 
ATOM      8  C   LIG    1       -3.691   1.764  -0.372  0.00  0.00    +0.032 C 
ATOM      9  C   LIG    1       -2.487   0.921   0.045  0.00  0.00    +0.033 C 
ATOM     10  C   LIG    1       -0.048   3.828   0.018  0.00  0.00    +0.004 A 
ENDROOT
BRANCH   8  11
ATOM     11  N   LIG    1       -3.562   2.119  -1.796  0.00  0.00    +0.389 N 
ATOM     12  H   LIG    1       -2.670   2.608  -1.942  0.00  0.00    -0.088 HD
ATOM     13  H   LIG    1       -4.326   2.733  -2.073  0.00  0.00    -0.088 HD
ATOM     14  H   LIG    1       -3.577   1.277  -2.369  0.00  0.00    -0.088 HD
ENDBRANCH   8  11
BRANCH   8  15
ATOM     15  C   LIG    1       -4.961   0.990  -0.130  0.00  0.00    +0.293 C 
ATOM     16  O   LIG    1       -5.566   1.131   0.906  0.00  0.00    -0.253 OA
BRANCH  15  17
ATOM     17  O   LIG    1       -5.420   0.145  -1.066  0.00  0.00    -0.482 OA
ATOM     18  H   LIG    1       -4.951   0.036  -1.870  0.00  0.00    +0.295 HD
ENDBRANCH  15  17
ENDBRANCH   8  15
TORSDOF 3
