REMARK  Name = ZINC01646573
REMARK                            x       y       z     vdW  Elec       q    Type
REMARK                         _______ _______ _______ _____ _____    ______ ____
ROOT
ATOM      1  C   LIG    1       -0.071  -2.068  -1.121  0.00  0.00    +0.033 A 
ATOM      2  C   LIG    1       -0.152  -2.719   0.103  0.00  0.00    +0.025 A 
ATOM      3  C   LIG    1       -0.222  -4.098   0.147  0.00  0.00    +0.032 A 
ATOM      4  C   LIG    1       -0.211  -4.830  -1.026  0.00  0.00    +0.127 A 
ATOM      5  C   LIG    1       -0.130  -4.185  -2.246  0.00  0.00    +0.032 A 
ATOM      6  C   LIG    1       -0.066  -2.806  -2.297  0.00  0.00    +0.025 A 
ENDROOT
BRANCH   1   9
ATOM      7  C   LIG    1       -0.617   1.507  -2.165  0.00  0.00    +0.109 C 
ATOM      8  C   LIG    1       -0.604  -0.000  -2.169  0.00  0.00    +0.214 C 
ATOM      9  N   LIG    1        0.000  -0.672  -1.169  0.00  0.00    -0.286 N 
ATOM     10  H   LIG    1        0.484  -0.187  -0.482  0.00  0.00    +0.155 HD
ATOM     11  O   LIG    1       -1.137  -0.609  -3.073  0.00  0.00    -0.276 OA
ENDBRANCH   1   9
BRANCH   4  12
ATOM     12  S   LIG    1       -0.300  -6.589  -0.966  0.00  0.00    +0.155 S 
ATOM     13  O   LIG    1        0.182  -6.976   0.314  0.00  0.00    -0.132 OA
ATOM     14  O   LIG    1        0.277  -7.066  -2.173  0.00  0.00    -0.132 OA
BRANCH  12  15
ATOM     15  N   LIG    1       -1.903  -7.000  -1.012  0.00  0.00    +0.061 NA
ATOM     16  C   LIG    1       -2.256  -8.254  -0.980  0.00  0.00    +0.403 C 
BRANCH  16  17
ATOM     17  N   LIG    1       -3.587  -8.595  -1.018  0.00  0.00    -0.288 N 
ATOM     18  H   LIG    1       -3.850  -9.528  -0.994  0.00  0.00    +0.255 HD
ATOM     19  H   LIG    1       -4.264  -7.902  -1.069  0.00  0.00    +0.255 HD
ENDBRANCH  16  17
BRANCH  16  20
ATOM     20  N   LIG    1       -1.297  -9.236  -0.907  0.00  0.00    -0.288 N 
ATOM     21  H   LIG    1       -1.559 -10.169  -0.883  0.00  0.00    +0.255 HD
ATOM     22  H   LIG    1       -0.357  -8.995  -0.880  0.00  0.00    +0.255 HD
ENDBRANCH  16  20
ENDBRANCH  12  15
ENDBRANCH   4  12
TORSDOF 5
