REMARK  Name = ZINC01587666
REMARK                            x       y       z     vdW  Elec       q    Type
REMARK                         _______ _______ _______ _____ _____    ______ ____
ROOT
ATOM      1  C   LIG    1       -1.185  -1.986   0.236  0.00  0.00    +0.045 C 
ENDROOT
BRANCH   1   2
ATOM      2  C   LIG    1       -0.482  -1.996  -1.098  0.00  0.00    -0.034 A 
ATOM      3  C   LIG    1        0.590  -2.843  -1.308  0.00  0.00    +0.004 A 
ATOM      4  C   LIG    1        1.231  -2.856  -2.532  0.00  0.00    +0.000 A 
ATOM      5  C   LIG    1        0.806  -2.014  -3.544  0.00  0.00    +0.000 A 
ATOM      6  C   LIG    1       -0.263  -1.164  -3.332  0.00  0.00    +0.000 A 
ATOM      7  C   LIG    1       -0.907  -1.155  -2.109  0.00  0.00    +0.004 A 
ENDBRANCH   1   2
BRANCH   1   8
ATOM      8  C   LIG    1       -2.627  -2.380   0.047  0.00  0.00    -0.034 A 
ATOM      9  C   LIG    1       -3.104  -2.671  -1.218  0.00  0.00    +0.004 A 
ATOM     10  C   LIG    1       -4.426  -3.038  -1.390  0.00  0.00    +0.000 A 
ATOM     11  C   LIG    1       -5.273  -3.102  -0.300  0.00  0.00    +0.000 A 
ATOM     12  C   LIG    1       -4.797  -2.805   0.964  0.00  0.00    +0.000 A 
ATOM     13  C   LIG    1       -3.474  -2.445   1.137  0.00  0.00    +0.004 A 
ENDBRANCH   1   8
BRANCH   1  14
ATOM     14  C   LIG    1       -1.114  -0.582   0.838  0.00  0.00    +0.129 C 
BRANCH  14  16
ATOM     15  C   LIG    1        0.414   1.303   1.434  0.00  0.00    +0.006 C 
ATOM     16  C   LIG    1        0.348  -0.147   0.949  0.00  0.00    +0.029 C 
ENDBRANCH  14  16
BRANCH  14  17
ATOM     17  O   LIG    1       -1.708  -0.591   2.138  0.00  0.00    -0.391 OA
ATOM     18  H   LIG    1       -1.224  -1.119   2.788  0.00  0.00    +0.210 HD
ENDBRANCH  14  17
ENDBRANCH   1  14
BRANCH   1  19
ATOM     19  C   LIG    1       -0.504  -2.980   1.178  0.00  0.00    +0.003 C 
BRANCH  19  20
ATOM     20  C   LIG    1       -0.644  -4.396   0.614  0.00  0.00    -0.071 C 
ATOM     21  C   LIG    1       -2.106  -4.838   0.704  0.00  0.00    -0.013 C 
BRANCH  20  22
ATOM     22  N   LIG    1        0.184  -5.320   1.418  0.00  0.00    +0.378 N 
ATOM     23  H   LIG    1       -0.220  -5.397   2.359  0.00  0.00    -0.082 HD
ATOM     24  C   LIG    1        1.562  -4.798   1.529  0.00  0.00    -0.096 C 
ATOM     25  C   LIG    1        0.200  -6.659   0.792  0.00  0.00    -0.096 C 
ENDBRANCH  20  22
ENDBRANCH  19  20
ENDBRANCH   1  19
TORSDOF 8
