REMARK  Name = ZINC01617170
REMARK                            x       y       z     vdW  Elec       q    Type
REMARK                         _______ _______ _______ _____ _____    ______ ____
ROOT
ATOM      1  C   LIG    1        2.107  -3.550  -0.045  0.00  0.00    +0.221 A 
ATOM      2  N   LIG    1        2.567  -4.023   1.103  0.00  0.00    -0.199 NA
ATOM      3  C   LIG    1        3.491  -4.979   1.120  0.00  0.00    +0.137 A 
ATOM      4  C   LIG    1        3.972  -5.479  -0.092  0.00  0.00    +0.094 A 
ATOM      5 BR   LIG    1        5.287  -6.837  -0.125  0.00  0.00    -0.044 Br
ATOM      6  C   LIG    1        3.464  -4.957  -1.268  0.00  0.00    +0.150 A 
ATOM      7 CL   LIG    1        4.027  -5.541  -2.803  0.00  0.00    -0.061 Cl
ATOM      8  N   LIG    1        2.540  -4.007  -1.210  0.00  0.00    -0.201 NA
ENDROOT
BRANCH   1  14
ATOM      9  C   LIG    1       -0.018   1.465   0.010  0.00  0.00    -0.096 C 
ATOM     10  N   LIG    1        0.002  -0.004   0.002  0.00  0.00    +0.380 N 
ATOM     11  H   LIG    1       -0.945  -0.352   0.012  0.00  0.00    -0.082 HD
ATOM     12  C   LIG    1        0.680  -0.476  -1.212  0.00  0.00    -0.060 C 
ATOM     13  C   LIG    1        0.601  -2.005  -1.279  0.00  0.00    +0.089 C 
ATOM     14  N   LIG    1        1.144  -2.555  -0.027  0.00  0.00    -0.303 N 
ATOM     15  C   LIG    1        0.635  -2.018   1.245  0.00  0.00    +0.089 C 
ATOM     16  C   LIG    1        0.713  -0.489   1.192  0.00  0.00    -0.060 C 
ENDBRANCH   1  14
BRANCH   3  17
ATOM     17  N   LIG    1        3.971  -5.471   2.323  0.00  0.00    -0.342 N 
ATOM     18  H   LIG    1        4.645  -6.168   2.328  0.00  0.00    +0.144 HD
ATOM     19  H   LIG    1        3.632  -5.119   3.161  0.00  0.00    +0.144 HD
ENDBRANCH   3  17
TORSDOF 2
