REMARK  Name = ZINC01536934
REMARK                            x       y       z     vdW  Elec       q    Type
REMARK                         _______ _______ _______ _____ _____    ______ ____
ROOT
ATOM      1  C   LIG    1       -0.070   5.326   0.031  0.00  0.00    +0.118 C 
ATOM      2  N   LIG    1       -1.164   5.984   0.285  0.00  0.00    -0.084 NA
ENDROOT
BRANCH   1   5
ATOM      3  C   LIG    1        0.649   1.844  -1.188  0.00  0.00    +0.001 A 
ATOM      4  C   LIG    1        0.689   3.218  -1.062  0.00  0.00    +0.010 A 
ATOM      5  C   LIG    1       -0.109   3.851  -0.109  0.00  0.00    +0.005 A 
ATOM      6  C   LIG    1       -0.943   3.091   0.711  0.00  0.00    +0.022 A 
ATOM      7  C   LIG    1       -0.977   1.719   0.572  0.00  0.00    +0.055 A 
ATOM      8  C   LIG    1       -0.179   1.096  -0.371  0.00  0.00    +0.012 A 
BRANCH   7   9
ATOM      9  C   LIG    1       -1.882   0.897   1.453  0.00  0.00    +0.417 C 
ATOM     10  F   LIG    1       -3.210   1.287   1.252  0.00  0.00    -0.166 F 
ATOM     11  F   LIG    1       -1.535   1.097   2.794  0.00  0.00    -0.166 F 
ATOM     12  F   LIG    1       -1.740  -0.458   1.133  0.00  0.00    -0.166 F 
ENDBRANCH   7   9
ENDBRANCH   1   5
BRANCH   1  13
ATOM     13  C   LIG    1        1.213   6.051  -0.116  0.00  0.00    +0.022 A 
ATOM     14  C   LIG    1        1.233   7.444  -0.242  0.00  0.00    +0.013 A 
ATOM     15  C   LIG    1        2.457   8.074  -0.378  0.00  0.00    +0.020 A 
ATOM     16  C   LIG    1        3.613   7.313  -0.384  0.00  0.00    +0.111 A 
ATOM     17  N   LIG    1        3.563   6.000  -0.263  0.00  0.00    -0.263 NA
ATOM     18  C   LIG    1        2.422   5.357  -0.126  0.00  0.00    +0.120 A 
ENDBRANCH   1  13
BRANCH   2  19
ATOM     19  O   LIG    1       -2.409   5.309   0.302  0.00  0.00    -0.393 OA
BRANCH  19  20
ATOM     20  C   LIG    1       -3.524   6.154   0.594  0.00  0.00    +0.263 C 
BRANCH  20  21
ATOM     21  C   LIG    1       -4.809   5.323   0.586  0.00  0.00    +0.044 C 
BRANCH  21  22
ATOM     22  C   LIG    1       -6.003   6.227   0.898  0.00  0.00    +0.014 C 
BRANCH  22  23
ATOM     23  C   LIG    1       -7.288   5.396   0.891  0.00  0.00    +0.120 C 
BRANCH  23  24
ATOM     24  C   LIG    1       -8.464   6.287   1.198  0.00  0.00    +0.305 C 
ATOM     25  O   LIG    1       -8.292   7.465   1.402  0.00  0.00    -0.251 OA
BRANCH  24  26
ATOM     26  O   LIG    1       -9.702   5.771   1.245  0.00  0.00    -0.481 OA
ATOM     27  H   LIG    1       -9.835   4.857   1.087  0.00  0.00    +0.295 HD
ENDBRANCH  24  26
ENDBRANCH  23  24
ENDBRANCH  22  23
ENDBRANCH  21  22
ENDBRANCH  20  21
ENDBRANCH  19  20
ENDBRANCH   2  19
TORSDOF 10
