REMARK  Name = ZINC01661760
REMARK                            x       y       z     vdW  Elec       q    Type
REMARK                         _______ _______ _______ _____ _____    ______ ____
ROOT
ATOM      1  C   LIG    1        3.939  -3.219  -0.055  0.00  0.00    +0.073 A 
ATOM      2  C   LIG    1        4.463  -3.918  -1.243  0.00  0.00    +0.015 A 
ATOM      3  C   LIG    1        4.318  -3.726  -2.615  0.00  0.00    +0.040 A 
ATOM      4  C   LIG    1        4.954  -4.576  -3.495  0.00  0.00    +0.118 A 
ATOM      5  C   LIG    1        5.735  -5.618  -3.018  0.00  0.00    +0.031 A 
ATOM      6  C   LIG    1        5.886  -5.819  -1.661  0.00  0.00    +0.028 A 
ATOM      7  C   LIG    1        5.253  -4.972  -0.759  0.00  0.00    +0.050 A 
ATOM      8  N   LIG    1        5.222  -4.929   0.625  0.00  0.00    -0.325 N 
ATOM      9  H   LIG    1        5.687  -5.550   1.208  0.00  0.00    +0.169 HD
ATOM     10  C   LIG    1        4.454  -3.897   1.053  0.00  0.00    +0.201 A 
ENDROOT
BRANCH   1  17
ATOM     11  C   LIG    1       -0.017   1.381   0.010  0.00  0.00    +0.001 A 
ATOM     12  C   LIG    1        1.170   2.092   0.002  0.00  0.00    +0.002 A 
ATOM     13  C   LIG    1        2.388   1.437  -0.013  0.00  0.00    +0.028 A 
ATOM     14  C   LIG    1        2.432   0.042  -0.022  0.00  0.00    +0.076 A 
ATOM     15  C   LIG    1        1.216  -0.675  -0.014  0.00  0.00    +0.049 A 
ATOM     16  C   LIG    1        1.594  -2.106  -0.026  0.00  0.00    +0.214 C 
ATOM     17  C   LIG    1        3.091  -2.086  -0.041  0.00  0.00    +0.124 C 
ATOM     18  O   LIG    1        0.860  -3.072  -0.024  0.00  0.00    -0.285 OA
ATOM     19  N   LIG    1        3.478  -0.831  -0.037  0.00  0.00    -0.243 NA
ATOM     20  C   LIG    1        0.002  -0.004   0.002  0.00  0.00    +0.014 A 
ENDBRANCH   1  17
BRANCH   4  21
ATOM     21  S   LIG    1        4.774  -4.338  -5.231  0.00  0.00    +0.110 S 
ATOM     22  O   LIG    1        3.462  -3.747  -5.443  0.00  0.00    -0.142 OA
ATOM     23  O   LIG    1        4.886  -5.649  -5.852  0.00  0.00    -0.142 OA
BRANCH  21  24
ATOM     24  O   LIG    1        5.845  -3.446  -5.649  0.00  0.00    -0.250 OA
ATOM     25  H   LIG    1        6.701  -3.874  -5.493  0.00  0.00    +0.245 HD
ENDBRANCH  21  24
ENDBRANCH   4  21
BRANCH  10  26
ATOM     26  O   LIG    1        4.222  -3.576   2.344  0.00  0.00    -0.493 OA
ATOM     27  H   LIG    1        3.677  -2.843   2.554  0.00  0.00    +0.294 HD
ENDBRANCH  10  26
TORSDOF 4
