REMARK  Name = ZINC01532185
REMARK                            x       y       z     vdW  Elec       q    Type
REMARK                         _______ _______ _______ _____ _____    ______ ____
ROOT
ATOM      1  C   LIG    1        0.299  -1.180   3.749  0.00  0.00    -0.006 C 
ENDROOT
BRANCH   1   2
ATOM      2  C   LIG    1       -0.483  -0.799   2.491  0.00  0.00    -0.081 C 
BRANCH   2   3
ATOM      3  N   LIG    1       -0.116  -1.703   1.393  0.00  0.00    +0.381 N 
ATOM      4  H   LIG    1        0.874  -1.625   1.210  0.00  0.00    -0.086 HD
ATOM      5  H   LIG    1       -0.336  -2.654   1.652  0.00  0.00    -0.086 HD
BRANCH   3   7
ATOM      6  C   LIG    1       -0.441   0.056  -0.278  0.00  0.00    -0.013 C 
ATOM      7  C   LIG    1       -0.867  -1.338   0.185  0.00  0.00    -0.071 C 
BRANCH   7   8
ATOM      8  C   LIG    1       -0.579  -2.354  -0.921  0.00  0.00    +0.019 C 
BRANCH   8   9
ATOM      9  C   LIG    1       -1.110  -3.704  -0.515  0.00  0.00    -0.049 A 
ATOM     10  C   LIG    1       -0.305  -4.581   0.188  0.00  0.00    +0.003 A 
ATOM     11  C   LIG    1       -0.792  -5.819   0.561  0.00  0.00    +0.000 A 
ATOM     12  C   LIG    1       -2.085  -6.181   0.232  0.00  0.00    +0.000 A 
ATOM     13  C   LIG    1       -2.891  -5.305  -0.470  0.00  0.00    +0.000 A 
ATOM     14  C   LIG    1       -2.405  -4.064  -0.840  0.00  0.00    +0.003 A 
ENDBRANCH   8   9
ENDBRANCH   7   8
ENDBRANCH   3   7
ENDBRANCH   2   3
ENDBRANCH   1   2
BRANCH   1  15
ATOM     15  C   LIG    1       -0.084  -0.238   4.893  0.00  0.00    +0.047 C 
BRANCH  15  16
ATOM     16  C   LIG    1        0.357   1.163   4.558  0.00  0.00    -0.040 A 
ATOM     17  C   LIG    1        1.663   1.404   4.173  0.00  0.00    +0.004 A 
ATOM     18  C   LIG    1        2.067   2.690   3.866  0.00  0.00    +0.000 A 
ATOM     19  C   LIG    1        1.165   3.735   3.944  0.00  0.00    +0.000 A 
ATOM     20  C   LIG    1       -0.141   3.494   4.328  0.00  0.00    +0.000 A 
ATOM     21  C   LIG    1       -0.546   2.207   4.631  0.00  0.00    +0.004 A 
ENDBRANCH  15  16
BRANCH  15  22
ATOM     22  C   LIG    1        0.593  -0.688   6.162  0.00  0.00    -0.040 A 
ATOM     23  C   LIG    1       -0.152  -0.892   7.308  0.00  0.00    +0.004 A 
ATOM     24  C   LIG    1        0.469  -1.304   8.473  0.00  0.00    +0.000 A 
ATOM     25  C   LIG    1        1.835  -1.514   8.490  0.00  0.00    +0.000 A 
ATOM     26  C   LIG    1        2.580  -1.311   7.344  0.00  0.00    +0.000 A 
ATOM     27  C   LIG    1        1.959  -0.902   6.179  0.00  0.00    +0.004 A 
ENDBRANCH  15  22
ENDBRANCH   1  15
TORSDOF 8
