REMARK  Name = ZINC01481896
REMARK                            x       y       z     vdW  Elec       q    Type
REMARK                         _______ _______ _______ _____ _____    ______ ____
ROOT
ATOM      1  C   LIG    1       -6.181   6.763  -4.059  0.00  0.00    +0.007 C 
ATOM      2  C   LIG    1       -5.947   6.116  -2.693  0.00  0.00    -0.017 C 
ATOM      3  C   LIG    1       -4.591   5.411  -2.682  0.00  0.00    -0.060 C 
ATOM      4  N   LIG    1       -4.315   4.804  -1.363  0.00  0.00    +0.382 N 
ATOM      5  H   LIG    1       -5.046   4.111  -1.161  0.00  0.00    -0.081 HD
ATOM      6  C   LIG    1       -4.328   5.833  -0.293  0.00  0.00    -0.078 C 
ATOM      7  C   LIG    1       -5.709   6.496  -0.252  0.00  0.00    -0.007 C 
ATOM      8  C   LIG    1       -3.509   6.365  -3.158  0.00  0.00    +0.020 C 
ATOM      9  C   LIG    1       -3.647   7.729  -2.536  0.00  0.00    -0.045 A 
ATOM     10  C   LIG    1       -2.591   8.620  -2.699  0.00  0.00    +0.007 A 
ATOM     11  C   LIG    1       -2.658   9.891  -2.171  0.00  0.00    +0.045 A 
ATOM     12  C   LIG    1       -3.787  10.289  -1.470  0.00  0.00    +0.117 A 
ATOM     13  C   LIG    1       -4.837   9.401  -1.304  0.00  0.00    +0.049 A 
ATOM     14  C   LIG    1       -4.762   8.121  -1.833  0.00  0.00    -0.035 A 
ATOM     15  C   LIG    1       -5.934   7.195  -1.605  0.00  0.00    -0.007 C 
ATOM     16  C   LIG    1       -7.254   7.968  -1.599  0.00  0.00    +0.016 C 
ENDROOT
BRANCH  12  17
ATOM     17  O   LIG    1       -3.864  11.543  -0.952  0.00  0.00    -0.507 OA
ATOM     18  H   LIG    1       -4.250  12.194  -1.553  0.00  0.00    +0.292 HD
ENDBRANCH  12  17
BRANCH   4  19
ATOM     19  C   LIG    1       -3.012   4.125  -1.390  0.00  0.00    -0.074 C 
BRANCH  19  20
ATOM     20  C   LIG    1       -2.693   3.618   0.018  0.00  0.00    +0.016 C 
BRANCH  20  21
ATOM     21  C   LIG    1       -1.378   2.882   0.002  0.00  0.00    -0.049 A 
ATOM     22  C   LIG    1       -1.350   1.523  -0.250  0.00  0.00    +0.003 A 
ATOM     23  C   LIG    1       -0.144   0.847  -0.259  0.00  0.00    +0.000 A 
ATOM     24  C   LIG    1        1.034   1.532  -0.028  0.00  0.00    +0.000 A 
ATOM     25  C   LIG    1        1.006   2.893   0.217  0.00  0.00    +0.000 A 
ATOM     26  C   LIG    1       -0.200   3.567   0.232  0.00  0.00    +0.003 A 
ENDBRANCH  20  21
ENDBRANCH  19  20
ENDBRANCH   4  19
TORSDOF 4
