REMARK  Name = ZINC01645454
REMARK                            x       y       z     vdW  Elec       q    Type
REMARK                         _______ _______ _______ _____ _____    ______ ____
ROOT
ATOM      1  C   LIG    1       -1.244   2.108   0.019  0.00  0.00    -0.026 A 
ATOM      2  C   LIG    1       -1.214   3.466   0.045  0.00  0.00    +0.096 A 
ATOM      3  C   LIG    1        0.024   4.140   0.039  0.00  0.00    +0.337 A 
ATOM      4  O   LIG    1        1.183   3.461   0.013  0.00  0.00    -0.422 OA
ATOM      5  C   LIG    1        1.197   2.109  -0.009  0.00  0.00    +0.152 A 
ATOM      6  C   LIG    1        2.412   1.430  -0.039  0.00  0.00    +0.067 A 
ATOM      7  C   LIG    1        3.681   2.235  -0.038  0.00  0.00    +0.158 C 
ATOM      8  C   LIG    1        4.887   1.399  -0.424  0.00  0.00    +0.060 C 
ATOM      9  C   LIG    1        4.949   1.296  -1.950  0.00  0.00    +0.014 C 
ATOM     10  C   LIG    1        4.824   0.001   0.162  0.00  0.00    +0.176 C 
ATOM     11  C   LIG    1        5.005   0.093   1.679  0.00  0.00    +0.052 C 
ATOM     12  O   LIG    1        3.595  -0.640  -0.115  0.00  0.00    -0.488 OA
ATOM     13  C   LIG    1        2.433   0.048  -0.067  0.00  0.00    +0.141 A 
ATOM     14  C   LIG    1        1.226  -0.671  -0.053  0.00  0.00    +0.059 A 
ATOM     15  C   LIG    1        1.222  -2.150  -0.073  0.00  0.00    +0.015 C 
ATOM     16  C   LIG    1        0.085  -2.768  -0.391  0.00  0.00    +0.020 C 
ATOM     17  C   LIG    1       -1.141  -1.962  -0.728  0.00  0.00    +0.124 C 
ATOM     18  C   LIG    1       -1.155  -1.668  -2.229  0.00  0.00    +0.060 C 
ATOM     19  C   LIG    1       -2.390  -2.764  -0.359  0.00  0.00    +0.060 C 
ATOM     20  O   LIG    1       -1.143  -0.729  -0.007  0.00  0.00    -0.481 OA
ATOM     21  C   LIG    1        0.002  -0.004  -0.020  0.00  0.00    +0.143 A 
ATOM     22  O   LIG    1        0.043   5.358   0.058  0.00  0.00    -0.245 OA
ATOM     23  C   LIG    1       -0.017   1.397  -0.001  0.00  0.00    +0.064 A 
ENDROOT
BRANCH   7  24
ATOM     24  O   LIG    1        3.889   2.772   1.269  0.00  0.00    -0.387 OA
ATOM     25  H   LIG    1        3.160   3.321   1.590  0.00  0.00    +0.210 HD
ENDBRANCH   7  24
BRANCH   1  26
ATOM     26  C   LIG    1       -2.558   1.371   0.019  0.00  0.00    +0.036 C 
BRANCH  26  28
ATOM     27  C   LIG    1       -4.206   0.138   1.436  0.00  0.00    +0.004 C 
ATOM     28  C   LIG    1       -2.872   0.886   1.436  0.00  0.00    +0.001 C 
ENDBRANCH  26  28
ENDBRANCH   1  26
TORSDOF 3
