REMARK  Name = ZINC01549287
REMARK                            x       y       z     vdW  Elec       q    Type
REMARK                         _______ _______ _______ _____ _____    ______ ____
ROOT
ATOM      1  C   LIG    1        3.657   2.178  -0.021  0.00  0.00    +0.149 C 
ATOM      2  N   LIG    1        2.402   1.422  -0.013  0.00  0.00    -0.343 N 
ATOM      3  C   LIG    1        2.459   0.080  -0.021  0.00  0.00    +0.103 A 
ATOM      4  C   LIG    1        1.306  -0.676  -0.014  0.00  0.00    +0.100 A 
ATOM      5  C   LIG    1        0.002  -0.004   0.002  0.00  0.00    +0.202 A 
ATOM      6  C   LIG    1       -0.018   1.477   0.010  0.00  0.00    +0.054 A 
ATOM      7  C   LIG    1       -1.162   2.372   0.020  0.00  0.00    +0.025 A 
ATOM      8  C   LIG    1       -0.955   3.698   0.031  0.00  0.00    -0.007 A 
ATOM      9  S   LIG    1        0.822   3.834   0.015  0.00  0.00    -0.075 S 
ATOM     10  O   LIG    1       -1.035  -0.646   0.009  0.00  0.00    -0.286 OA
ATOM     11  C   LIG    1        1.231   2.106   0.002  0.00  0.00    +0.091 A 
ENDROOT
BRANCH   4  12
ATOM     12  C   LIG    1        1.383  -2.145  -0.023  0.00  0.00    +0.249 C 
ATOM     13  N   LIG    1        2.584  -2.757  -0.038  0.00  0.00    -0.307 N 
ATOM     14  H   LIG    1        3.397  -2.229  -0.043  0.00  0.00    +0.149 HD
ATOM     15  O   LIG    1        0.363  -2.808  -0.017  0.00  0.00    -0.270 OA
BRANCH  13  16
ATOM     16  C   LIG    1        2.660  -4.220  -0.047  0.00  0.00    +0.139 C 
BRANCH  16  17
ATOM     17  C   LIG    1        4.105  -4.647  -0.063  0.00  0.00    -0.030 A 
ATOM     18  C   LIG    1        4.755  -4.842  -1.268  0.00  0.00    +0.006 A 
ATOM     19  C   LIG    1        6.082  -5.228  -1.283  0.00  0.00    +0.020 A 
ATOM     20  C   LIG    1        6.757  -5.431  -0.092  0.00  0.00    +0.041 A 
ATOM     21 CL   LIG    1        8.422  -5.923  -0.111  0.00  0.00    -0.084 Cl
ATOM     22  C   LIG    1        6.104  -5.242   1.113  0.00  0.00    +0.020 A 
ATOM     23  C   LIG    1        4.779  -4.850   1.127  0.00  0.00    +0.006 A 
ENDBRANCH  16  17
ENDBRANCH  13  16
ENDBRANCH   4  12
BRANCH   8  24
ATOM     24  C   LIG    1       -1.978   4.804   0.047  0.00  0.00    +0.045 C 
BRANCH  24  25
ATOM     25  C   LIG    1       -2.311   5.171   1.495  0.00  0.00    +0.033 C 
BRANCH  25  26
ATOM     26  C   LIG    1       -3.349   6.294   1.510  0.00  0.00    +0.156 C 
BRANCH  26  27
ATOM     27  O   LIG    1       -3.659   6.637   2.863  0.00  0.00    -0.395 OA
ATOM     28  H   LIG    1       -4.313   7.344   2.949  0.00  0.00    +0.209 HD
ENDBRANCH  26  27
ENDBRANCH  25  26
ENDBRANCH  24  25
ENDBRANCH   8  24
TORSDOF 7
