REMARK  Name = ZINC01608488
REMARK                            x       y       z     vdW  Elec       q    Type
REMARK                         _______ _______ _______ _____ _____    ______ ____
ROOT
ATOM      1  C   LIG    1       -0.918  -2.727  -1.331  0.00  0.00    +0.243 C 
ATOM      2  C   LIG    1       -1.748  -2.219  -2.509  0.00  0.00    +0.067 C 
ATOM      3  C   LIG    1       -1.791  -0.692  -2.525  0.00  0.00    +0.108 C 
ATOM      4  C   LIG    1       -2.383  -0.130  -1.241  0.00  0.00    -0.009 C 
ATOM      5  C   LIG    1       -3.843  -0.625  -1.132  0.00  0.00    +0.013 C 
ATOM      6  C   LIG    1       -2.448   1.397  -1.288  0.00  0.00    +0.009 C 
ATOM      7  C   LIG    1       -1.041   1.985  -1.188  0.00  0.00    +0.016 C 
ATOM      8  C   LIG    1       -0.486   1.631   0.195  0.00  0.00    +0.105 C 
ATOM      9  C   LIG    1        0.869   2.282   0.359  0.00  0.00    +0.311 C 
ATOM     10  O   LIG    1        1.887   1.804  -0.388  0.00  0.00    -0.456 OA
ATOM     11  C   LIG    1        2.107   0.370  -0.292  0.00  0.00    +0.210 C 
ATOM     12  C   LIG    1        0.802  -0.374  -0.596  0.00  0.00    +0.058 C 
ATOM     13  O   LIG    1        1.039   3.200   1.128  0.00  0.00    -0.250 OA
ATOM     14  C   LIG    1       -0.332   0.112   0.299  0.00  0.00    -0.005 C 
ATOM     15  C   LIG    1        0.040  -0.212   1.762  0.00  0.00    +0.013 C 
ATOM     16  C   LIG    1       -1.641  -0.600  -0.001  0.00  0.00    +0.073 C 
ATOM     17  C   LIG    1       -1.425  -2.094  -0.058  0.00  0.00    +0.178 C 
ATOM     18  O   LIG    1       -1.661  -2.787   0.910  0.00  0.00    -0.293 OA
ENDROOT
BRANCH  11  19
ATOM     19  C   LIG    1        3.149  -0.035  -1.302  0.00  0.00    +0.030 A 
ATOM     20  C   LIG    1        4.123  -1.048  -1.148  0.00  0.00    +0.048 A 
ATOM     21  C   LIG    1        4.843  -1.074  -2.284  0.00  0.00    +0.195 A 
ATOM     22  O   LIG    1        4.358  -0.136  -3.114  0.00  0.00    -0.471 OA
ATOM     23  C   LIG    1        3.328   0.494  -2.526  0.00  0.00    +0.202 A 
ENDBRANCH  11  19
BRANCH   3  24
ATOM     24  C   LIG    1       -2.642  -0.271  -3.706  0.00  0.00    +0.311 C 
ATOM     25  O   LIG    1       -3.578  -0.953  -4.049  0.00  0.00    -0.251 OA
BRANCH  24  26
ATOM     26  O   LIG    1       -2.355   0.860  -4.370  0.00  0.00    -0.468 OA
ATOM     27  C   LIG    1       -3.213   1.201  -5.491  0.00  0.00    +0.280 C 
ENDBRANCH  24  26
ENDBRANCH   3  24
BRANCH   1  28
ATOM     28  O   LIG    1       -1.056  -4.174  -1.235  0.00  0.00    -0.454 OA
BRANCH  28  30
ATOM     29  C   LIG    1       -0.088  -6.352  -0.592  0.00  0.00    +0.136 C 
ATOM     30  C   LIG    1       -0.018  -4.852  -0.722  0.00  0.00    +0.305 C 
ATOM     31  O   LIG    1        0.974  -4.260  -0.365  0.00  0.00    -0.251 OA
ENDBRANCH  28  30
ENDBRANCH   1  28
TORSDOF 5
