REMARK  Name = ZINC01530981
REMARK                            x       y       z     vdW  Elec       q    Type
REMARK                         _______ _______ _______ _____ _____    ______ ____
ROOT
ATOM      1  N   LIG    1        3.850  -4.008  -4.430  0.00  0.00    +0.383 N 
ATOM      2  H   LIG    1        3.489  -4.754  -3.854  0.00  0.00    -0.081 HD
ATOM      3  C   LIG    1        4.862  -3.255  -3.678  0.00  0.00    -0.095 C 
ENDROOT
BRANCH   1   4
ATOM      4  C   LIG    1        2.753  -3.109  -4.812  0.00  0.00    -0.050 C 
BRANCH   4   6
ATOM      5  C   LIG    1        1.911  -1.319  -3.353  0.00  0.00    +0.054 C 
ATOM      6  C   LIG    1        2.048  -2.623  -3.572  0.00  0.00    -0.037 C 
BRANCH   5   8
ATOM      7  C   LIG    1        0.691  -0.479  -1.209  0.00  0.00    -0.092 C 
ATOM      8  C   LIG    1        1.241  -0.857  -2.175  0.00  0.00    -0.074 C 
BRANCH   7  10
ATOM      9  C   LIG    1       -0.019   1.526   0.010  0.00  0.00    +0.024 C 
ATOM     10  C   LIG    1        0.002  -0.004   0.002  0.00  0.00    +0.024 C 
ATOM     11  C   LIG    1       -1.433  -0.534   0.013  0.00  0.00    +0.024 C 
ATOM     12  C   LIG    1        0.742  -0.511   1.242  0.00  0.00    +0.024 C 
ENDBRANCH   7  10
ENDBRANCH   5   8
ENDBRANCH   4   6
ENDBRANCH   1   4
BRANCH   1  13
ATOM     13  C   LIG    1        4.461  -4.575  -5.639  0.00  0.00    -0.042 C 
BRANCH  13  14
ATOM     14  C   LIG    1        5.504  -5.590  -5.247  0.00  0.00    -0.056 A 
ATOM     15  C   LIG    1        6.822  -5.251  -5.244  0.00  0.00    +0.002 A 
ATOM     16  C   LIG    1        7.800  -6.176  -4.884  0.00  0.00    +0.001 A 
ATOM     17  C   LIG    1        7.466  -7.446  -4.525  0.00  0.00    +0.008 A 
ATOM     18  C   LIG    1        6.115  -7.833  -4.515  0.00  0.00    -0.018 A 
ATOM     19  C   LIG    1        5.731  -9.134  -4.151  0.00  0.00    +0.008 A 
ATOM     20  C   LIG    1        4.412  -9.468  -4.135  0.00  0.00    +0.001 A 
ATOM     21  C   LIG    1        3.434  -8.543  -4.495  0.00  0.00    +0.001 A 
ATOM     22  C   LIG    1        3.768  -7.275  -4.861  0.00  0.00    +0.009 A 
ATOM     23  C   LIG    1        5.120  -6.890  -4.876  0.00  0.00    -0.017 A 
ENDBRANCH  13  14
ENDBRANCH   1  13
TORSDOF 6
