REMARK  Name = ZINC01595462
REMARK                            x       y       z     vdW  Elec       q    Type
REMARK                         _______ _______ _______ _____ _____    ______ ____
ROOT
ATOM      1  C   LIG    1        2.888   3.188  -2.062  0.00  0.00    +0.104 C 
ATOM      2  C   LIG    1        4.095   2.452  -1.516  0.00  0.00    +0.032 C 
ATOM      3  C   LIG    1        3.818   1.907  -0.118  0.00  0.00    +0.038 C 
ATOM      4  C   LIG    1        2.453   1.271  -0.083  0.00  0.00    -0.032 A 
ATOM      5  C   LIG    1        2.327  -0.103  -0.093  0.00  0.00    +0.054 A 
ATOM      6  C   LIG    1        1.067  -0.686  -0.047  0.00  0.00    +0.165 A 
ATOM      7  C   LIG    1       -0.073   0.107   0.014  0.00  0.00    +0.204 A 
ATOM      8  C   LIG    1        0.046   1.491   0.022  0.00  0.00    +0.173 A 
ATOM      9  C   LIG    1        1.317   2.071  -0.032  0.00  0.00    +0.031 A 
ATOM     10  C   LIG    1        1.451   3.559  -0.050  0.00  0.00    -0.009 A 
ATOM     11  C   LIG    1        0.750   4.253   0.904  0.00  0.00    +0.011 A 
ATOM     12  C   LIG    1        0.670   5.560   1.209  0.00  0.00    +0.027 A 
ATOM     13  C   LIG    1        1.321   6.611   0.635  0.00  0.00    +0.074 A 
ATOM     14  C   LIG    1        2.223   6.521  -0.423  0.00  0.00    +0.200 A 
ATOM     15  O   LIG    1        2.756   7.570  -0.757  0.00  0.00    -0.286 OA
ATOM     16  C   LIG    1        2.589   5.416  -1.135  0.00  0.00    +0.058 A 
ATOM     17  C   LIG    1        2.277   4.112  -1.028  0.00  0.00    -0.016 A 
ENDROOT
BRANCH   1  20
ATOM     18  C   LIG    1        2.815   5.123  -5.364  0.00  0.00    +0.109 C 
ATOM     19  C   LIG    1        2.393   4.309  -4.169  0.00  0.00    +0.210 C 
ATOM     20  N   LIG    1        3.297   3.980  -3.225  0.00  0.00    -0.309 N 
ATOM     21  H   LIG    1        4.219   4.268  -3.315  0.00  0.00    +0.149 HD
ATOM     22  O   LIG    1        1.241   3.949  -4.056  0.00  0.00    -0.276 OA
ENDBRANCH   1  20
BRANCH  13  23
ATOM     23  N   LIG    1        1.067   7.872   1.147  0.00  0.00    -0.344 N 
ATOM     24  H   LIG    1        1.510   8.647   0.769  0.00  0.00    +0.146 HD
ATOM     25  C   LIG    1        0.129   8.035   2.261  0.00  0.00    +0.125 C 
ENDBRANCH  13  23
BRANCH   6  26
ATOM     26  O   LIG    1        0.949  -2.040  -0.060  0.00  0.00    -0.491 OA
ATOM     27  C   LIG    1        2.159  -2.797  -0.123  0.00  0.00    +0.277 C 
ENDBRANCH   6  26
BRANCH   7  28
ATOM     28  O   LIG    1       -1.304  -0.471   0.064  0.00  0.00    -0.488 OA
ATOM     29  C   LIG    1       -1.894  -0.850  -1.181  0.00  0.00    +0.277 C 
ENDBRANCH   7  28
BRANCH   8  30
ATOM     30  O   LIG    1       -1.063   2.274   0.077  0.00  0.00    -0.491 OA
ATOM     31  C   LIG    1       -1.574   2.763  -1.165  0.00  0.00    +0.277 C 
ENDBRANCH   8  30
TORSDOF 5
