REMARK  Name = ZINC01534133
REMARK                            x       y       z     vdW  Elec       q    Type
REMARK                         _______ _______ _______ _____ _____    ______ ____
ROOT
ATOM      1  N   LIG    1       -0.011   0.966   0.007  0.00  0.00    -0.296 N 
ATOM      2  H   LIG    1        0.002  -0.004   0.002  0.00  0.00    +0.150 HD
ATOM      3  C   LIG    1        1.147   1.655   0.000  0.00  0.00    +0.322 C 
ATOM      4  O   LIG    1        1.130   2.869   0.007  0.00  0.00    -0.263 OA
ENDROOT
BRANCH   3   5
ATOM      5  C   LIG    1        2.451   0.926  -0.016  0.00  0.00    +0.392 C 
ATOM      6  O   LIG    1        2.467  -0.286  -0.023  0.00  0.00    -0.240 OA
BRANCH   5   7
ATOM      7  O   LIG    1        3.607   1.615  -0.024  0.00  0.00    -0.474 OA
ATOM      8  H   LIG    1        3.594   2.551  -0.019  0.00  0.00    +0.296 HD
ENDBRANCH   5   7
ENDBRANCH   3   5
BRANCH   1   9
ATOM      9  C   LIG    1       -1.290   1.681   0.017  0.00  0.00    +0.225 C 
BRANCH   9  10
ATOM     10  C   LIG    1       -2.422   0.686   0.017  0.00  0.00    +0.322 C 
ATOM     11  O   LIG    1       -2.185  -0.498   0.010  0.00  0.00    -0.249 OA
BRANCH  10  12
ATOM     12  O   LIG    1       -3.693   1.116   0.026  0.00  0.00    -0.480 OA
ATOM     13  H   LIG    1       -3.877   2.035   0.031  0.00  0.00    +0.295 HD
ENDBRANCH  10  12
ENDBRANCH   9  10
ENDBRANCH   1   9
TORSDOF 5
