REMARK  Name = ZINC01530741
REMARK                            x       y       z     vdW  Elec       q    Type
REMARK                         _______ _______ _______ _____ _____    ______ ____
ROOT
ATOM      1  C   LIG    1       -2.769  -2.564   0.015  0.00  0.00    -0.020 C 
ATOM      2  C   LIG    1       -3.176  -3.414  -0.935  0.00  0.00    -0.014 C 
ATOM      3  C   LIG    1       -2.262  -3.874  -2.016  0.00  0.00    -0.014 A 
ATOM      4  C   LIG    1       -1.050  -4.458  -1.651  0.00  0.00    +0.009 A 
ATOM      5  C   LIG    1       -0.182  -4.925  -2.614  0.00  0.00    +0.001 A 
ATOM      6  C   LIG    1       -0.531  -4.809  -3.948  0.00  0.00    +0.000 A 
ATOM      7  C   LIG    1       -1.722  -4.223  -4.310  0.00  0.00    +0.004 A 
ATOM      8  C   LIG    1       -2.613  -3.726  -3.356  0.00  0.00    -0.039 A 
ATOM      9  C   LIG    1       -3.834  -3.050  -3.930  0.00  0.00    +0.040 C 
ATOM     10  C   LIG    1       -4.757  -2.453  -2.887  0.00  0.00    +0.040 C 
ATOM     11  C   LIG    1       -5.365  -3.499  -1.988  0.00  0.00    -0.039 A 
ATOM     12  C   LIG    1       -6.641  -3.981  -2.149  0.00  0.00    +0.004 A 
ATOM     13  C   LIG    1       -7.120  -4.920  -1.222  0.00  0.00    +0.000 A 
ATOM     14  C   LIG    1       -6.327  -5.341  -0.170  0.00  0.00    +0.001 A 
ATOM     15  C   LIG    1       -5.035  -4.863  -0.027  0.00  0.00    +0.009 A 
ATOM     16  C   LIG    1       -4.561  -3.951  -0.961  0.00  0.00    -0.014 A 
ENDROOT
BRANCH   1  17
ATOM     17  C   LIG    1       -1.355  -2.042   0.004  0.00  0.00    +0.009 C 
BRANCH  17  18
ATOM     18  C   LIG    1       -1.376  -0.512   0.012  0.00  0.00    -0.079 C 
BRANCH  18  20
ATOM     19  C   LIG    1       -0.018   1.465   0.010  0.00  0.00    -0.100 C 
ATOM     20  N   LIG    1        0.002  -0.004   0.002  0.00  0.00    +0.377 N 
ATOM     21  H   LIG    1        0.490  -0.338   0.820  0.00  0.00    -0.086 HD
ATOM     22  H   LIG    1        0.474  -0.330  -0.828  0.00  0.00    -0.086 HD
ENDBRANCH  18  20
ENDBRANCH  17  18
ENDBRANCH   1  17
TORSDOF 3
