REMARK  Name = ZINC01587241
REMARK                            x       y       z     vdW  Elec       q    Type
REMARK                         _______ _______ _______ _____ _____    ______ ____
ROOT
ATOM      1  C   LIG    1       -3.059   3.354   0.194  0.00  0.00    +0.104 C 
ATOM      2  C   LIG    1       -3.767   3.284  -1.156  0.00  0.00    +0.032 C 
ATOM      3  C   LIG    1       -3.405   2.002  -1.901  0.00  0.00    +0.038 C 
ATOM      4  C   LIG    1       -3.448   0.833  -0.950  0.00  0.00    -0.032 A 
ATOM      5  C   LIG    1       -4.504  -0.053  -0.990  0.00  0.00    +0.054 A 
ATOM      6  C   LIG    1       -4.532  -1.142  -0.128  0.00  0.00    +0.165 A 
ATOM      7  C   LIG    1       -3.498  -1.345   0.780  0.00  0.00    +0.202 A 
ATOM      8  C   LIG    1       -2.435  -0.454   0.830  0.00  0.00    +0.173 A 
ATOM      9  C   LIG    1       -2.415   0.642  -0.039  0.00  0.00    +0.031 A 
ATOM     10  C   LIG    1       -1.277   1.609   0.018  0.00  0.00    -0.009 A 
ATOM     11  C   LIG    1       -0.013   1.076   0.008  0.00  0.00    +0.010 A 
ATOM     12  C   LIG    1        1.211   1.631  -0.001  0.00  0.00    +0.019 A 
ATOM     13  C   LIG    1        1.549   2.953  -0.023  0.00  0.00    +0.054 A 
ATOM     14  C   LIG    1        0.647   4.016  -0.035  0.00  0.00    +0.193 A 
ATOM     15  O   LIG    1        1.143   5.132  -0.112  0.00  0.00    -0.287 OA
ATOM     16  C   LIG    1       -0.715   3.976   0.029  0.00  0.00    +0.058 A 
ATOM     17  C   LIG    1       -1.601   2.963   0.071  0.00  0.00    -0.016 A 
ENDROOT
BRANCH   1  20
ATOM     18  C   LIG    1       -3.192   6.353   2.570  0.00  0.00    +0.109 C 
ATOM     19  C   LIG    1       -3.103   4.946   2.039  0.00  0.00    +0.210 C 
ATOM     20  N   LIG    1       -3.146   4.722   0.710  0.00  0.00    -0.309 N 
ATOM     21  H   LIG    1       -3.235   5.468   0.096  0.00  0.00    +0.149 HD
ATOM     22  O   LIG    1       -2.992   4.014   2.807  0.00  0.00    -0.276 OA
ENDBRANCH   1  20
BRANCH   6  23
ATOM     23  O   LIG    1       -5.574  -2.013  -0.172  0.00  0.00    -0.491 OA
ATOM     24  C   LIG    1       -6.602  -1.747  -1.128  0.00  0.00    +0.277 C 
ENDBRANCH   6  23
BRANCH   7  25
ATOM     25  O   LIG    1       -3.530  -2.416   1.620  0.00  0.00    -0.501 OA
ATOM     26  H   LIG    1       -3.971  -2.243   2.462  0.00  0.00    +0.292 HD
ENDBRANCH   7  25
BRANCH   8  27
ATOM     27  O   LIG    1       -1.422  -0.644   1.716  0.00  0.00    -0.491 OA
ATOM     28  C   LIG    1       -1.562  -0.039   3.002  0.00  0.00    +0.277 C 
ENDBRANCH   8  27
BRANCH  13  29
ATOM     29  S   LIG    1        3.265   3.349  -0.038  0.00  0.00    -0.125 S 
ATOM     30  C   LIG    1        3.973   1.683  -0.017  0.00  0.00    +0.090 C 
ENDBRANCH  13  29
TORSDOF 5
