REMARK  Name = ZINC01604208
REMARK                            x       y       z     vdW  Elec       q    Type
REMARK                         _______ _______ _______ _____ _____    ______ ____
ROOT
ATOM      1  N   LIG    1       -2.538   1.344   0.021  0.00  0.00    -0.330 N 
ATOM      2  C   LIG    1       -1.227   1.758   0.017  0.00  0.00    +0.050 A 
ATOM      3  C   LIG    1       -0.013   1.076   0.008  0.00  0.00    +0.026 A 
ATOM      4  C   LIG    1        1.169   1.782   0.001  0.00  0.00    +0.002 A 
ATOM      5  C   LIG    1        1.164   3.172   0.008  0.00  0.00    +0.001 A 
ATOM      6  C   LIG    1       -0.013   3.862   0.023  0.00  0.00    +0.010 A 
ATOM      7  C   LIG    1       -1.229   3.166   0.030  0.00  0.00    +0.001 A 
ATOM      8  C   LIG    1       -2.584   3.577   0.045  0.00  0.00    +0.043 A 
ATOM      9  C   LIG    1       -3.356   2.458   0.031  0.00  0.00    +0.128 A 
ENDROOT
BRANCH   9  10
ATOM     10  C   LIG    1       -4.824   2.436   0.038  0.00  0.00    +0.353 C 
ATOM     11  O   LIG    1       -5.448   3.479   0.046  0.00  0.00    -0.243 OA
BRANCH  10  12
ATOM     12  O   LIG    1       -5.481   1.258   0.034  0.00  0.00    -0.476 OA
ATOM     13  H   LIG    1       -5.000   0.453   0.027  0.00  0.00    +0.295 HD
ENDBRANCH  10  12
ENDBRANCH   9  10
BRANCH   1  14
ATOM     14  C   LIG    1       -2.993  -0.049   0.016  0.00  0.00    +0.157 C 
BRANCH  14  18
ATOM     15  C   LIG    1       -3.417  -1.423   4.038  0.00  0.00    +0.000 A 
ATOM     16  C   LIG    1       -4.486  -0.829   3.395  0.00  0.00    +0.000 A 
ATOM     17  C   LIG    1       -4.348  -0.384   2.093  0.00  0.00    +0.005 A 
ATOM     18  C   LIG    1       -3.142  -0.533   1.435  0.00  0.00    -0.028 A 
ATOM     19  C   LIG    1       -2.074  -1.133   2.077  0.00  0.00    +0.005 A 
ATOM     20  C   LIG    1       -2.210  -1.573   3.380  0.00  0.00    +0.000 A 
ENDBRANCH  14  18
ENDBRANCH   1  14
TORSDOF 4
