REMARK  Name = ZINC01554291
REMARK                            x       y       z     vdW  Elec       q    Type
REMARK                         _______ _______ _______ _____ _____    ______ ____
ROOT
ATOM      1  C   LIG    1        3.261  -1.625  -0.039  0.00  0.00    +0.134 A 
ATOM      2  N   LIG    1        4.017  -0.542  -0.040  0.00  0.00    -0.215 NA
ATOM      3  C   LIG    1        3.479   0.673  -0.028  0.00  0.00    +0.148 A 
ATOM      4  C   LIG    1        2.078   0.785  -0.014  0.00  0.00    +0.149 A 
ATOM      5  C   LIG    1        1.318  -0.397  -0.013  0.00  0.00    +0.167 A 
ATOM      6  N   LIG    1        0.002  -0.004   0.002  0.00  0.00    -0.295 N 
ATOM      7  C   LIG    1       -1.167  -0.887   0.009  0.00  0.00    +0.154 C 
ATOM      8  C   LIG    1       -0.017   1.363   0.009  0.00  0.00    +0.252 A 
ATOM      9  N   LIG    1        1.207   1.823   0.000  0.00  0.00    -0.204 NA
ATOM     10  N   LIG    1        1.946  -1.568  -0.026  0.00  0.00    -0.213 NA
ENDROOT
BRANCH   8  11
ATOM     11  N   LIG    1       -1.167   2.148   0.019  0.00  0.00    -0.114 N 
ATOM     12  N   LIG    1       -2.494   1.691   0.017  0.00  0.00    -0.153 NA
ATOM     13  C   LIG    1       -3.274   2.744   0.033  0.00  0.00    +0.156 A 
ATOM     14  C   LIG    1       -2.489   3.893   0.035  0.00  0.00    +0.156 A 
ATOM     15  N   LIG    1       -1.224   3.550   0.027  0.00  0.00    -0.153 NA
ENDBRANCH   8  11
BRANCH   3  16
ATOM     16  N   LIG    1        4.280   1.802  -0.029  0.00  0.00    -0.341 N 
ATOM     17  H   LIG    1        3.875   2.684  -0.019  0.00  0.00    +0.144 HD
ATOM     18  H   LIG    1        4.865   1.796   0.783  0.00  0.00    +0.144 HD
ENDBRANCH   3  16
BRANCH   1  19
ATOM     19  C   LIG    1        3.929  -2.976  -0.053  0.00  0.00    +0.076 C 
BRANCH  19  20
ATOM     20  C   LIG    1        4.140  -3.425  -1.501  0.00  0.00    +0.007 C 
BRANCH  20  22
ATOM     21  C   LIG    1        5.029  -5.245  -2.962  0.00  0.00    +0.004 C 
ATOM     22  C   LIG    1        4.818  -4.796  -1.515  0.00  0.00    -0.003 C 
ENDBRANCH  20  22
ENDBRANCH  19  20
ENDBRANCH   1  19
TORSDOF 5
