REMARK  Name = ZINC01544567
REMARK                            x       y       z     vdW  Elec       q    Type
REMARK                         _______ _______ _______ _____ _____    ______ ____
ROOT
ATOM      1  C   LIG    1       -1.174   2.094  -0.043  0.00  0.00    +0.115 C 
ENDROOT
BRANCH   1   2
ATOM      2  N   LIG    1        0.192   1.581  -0.181  0.00  0.00    -0.304 N 
ATOM      3  H   LIG    1        0.939   2.197  -0.226  0.00  0.00    +0.149 HD
ATOM      4  C   LIG    1        0.408   0.253  -0.253  0.00  0.00    +0.261 C 
ATOM      5  O   LIG    1       -0.529  -0.520  -0.196  0.00  0.00    -0.269 OA
BRANCH   4   6
ATOM      6  C   LIG    1        1.778  -0.262  -0.398  0.00  0.00    +0.103 A 
ATOM      7  C   LIG    1        2.122  -1.574  -0.480  0.00  0.00    +0.041 A 
ATOM      8  C   LIG    1        3.530  -1.644  -0.612  0.00  0.00    +0.002 A 
ATOM      9  C   LIG    1        4.433  -2.708  -0.737  0.00  0.00    +0.030 A 
ATOM     10  C   LIG    1        5.770  -2.454  -0.849  0.00  0.00    +0.042 A 
ATOM     11 CL   LIG    1        6.886  -3.774  -1.003  0.00  0.00    -0.084 Cl
ATOM     12  C   LIG    1        6.245  -1.147  -0.842  0.00  0.00    +0.022 A 
ATOM     13  C   LIG    1        5.376  -0.085  -0.722  0.00  0.00    +0.027 A 
ATOM     14  C   LIG    1        4.009  -0.319  -0.605  0.00  0.00    +0.047 A 
ATOM     15  N   LIG    1        2.920   0.511  -0.479  0.00  0.00    -0.351 N 
ATOM     16  H   LIG    1        2.949   1.480  -0.450  0.00  0.00    +0.166 HD
ENDBRANCH   4   6
ENDBRANCH   1   2
BRANCH   1  17
ATOM     17  C   LIG    1       -1.818   2.211  -1.425  0.00  0.00    +0.220 C 
BRANCH  17  20
ATOM     18  C   LIG    1       -2.818  -1.399  -2.208  0.00  0.00    +0.131 C 
ATOM     19  N   LIG    1       -2.814  -0.041  -1.659  0.00  0.00    -0.305 N 
ATOM     20  C   LIG    1       -1.886   0.848  -2.065  0.00  0.00    +0.246 C 
ATOM     21  O   LIG    1       -1.106   0.551  -2.945  0.00  0.00    -0.273 OA
ATOM     22  C   LIG    1       -3.820   0.351  -0.668  0.00  0.00    +0.131 C 
ENDBRANCH  17  20
BRANCH  17  23
ATOM     23  O   LIG    1       -1.034   3.082  -2.244  0.00  0.00    -0.381 OA
ATOM     24  H   LIG    1       -0.124   2.784  -2.377  0.00  0.00    +0.211 HD
ENDBRANCH  17  23
ENDBRANCH   1  17
BRANCH   1  25
ATOM     25  C   LIG    1       -1.135   3.472   0.621  0.00  0.00    +0.060 C 
BRANCH  25  26
ATOM     26  C   LIG    1       -0.615   3.338   2.029  0.00  0.00    -0.046 A 
ATOM     27  C   LIG    1       -1.494   3.122   3.073  0.00  0.00    +0.004 A 
ATOM     28  C   LIG    1       -1.016   2.994   4.364  0.00  0.00    +0.000 A 
ATOM     29  C   LIG    1        0.341   3.093   4.611  0.00  0.00    +0.000 A 
ATOM     30  C   LIG    1        1.219   3.314   3.567  0.00  0.00    +0.000 A 
ATOM     31  C   LIG    1        0.742   3.437   2.276  0.00  0.00    +0.004 A 
ENDBRANCH  25  26
ENDBRANCH   1  25
TORSDOF 7
