REMARK  Name = ZINC01663731
REMARK                            x       y       z     vdW  Elec       q    Type
REMARK                         _______ _______ _______ _____ _____    ______ ____
ROOT
ATOM      1  C   LIG    1        0.002  -0.004   0.002  0.00  0.00    +0.162 A 
ATOM      2  C   LIG    1        1.211  -0.684  -0.013  0.00  0.00    +0.050 A 
ATOM      3  C   LIG    1        2.399   0.016  -0.021  0.00  0.00    +0.014 A 
ATOM      4  C   LIG    1        2.387   1.411  -0.014  0.00  0.00    +0.011 A 
ATOM      5  C   LIG    1        1.171   2.096   0.002  0.00  0.00    +0.060 A 
ATOM      6  C   LIG    1       -0.017   1.389   0.010  0.00  0.00    +0.162 A 
ENDROOT
BRANCH   4   7
ATOM      7  C   LIG    1        3.660   2.163  -0.022  0.00  0.00    +0.110 A 
ATOM      8  N   LIG    1        3.850   3.465  -0.023  0.00  0.00    -0.239 NA
ATOM      9  C   LIG    1        5.079   4.017  -0.027  0.00  0.00    +0.082 A 
ATOM     10  C   LIG    1        5.418   5.392  -0.024  0.00  0.00    +0.067 A 
ATOM     11  C   LIG    1        6.731   5.789  -0.035  0.00  0.00    +0.125 A 
ATOM     12  F   LIG    1        7.022   7.108  -0.031  0.00  0.00    -0.205 F 
ATOM     13  C   LIG    1        7.769   4.864  -0.049  0.00  0.00    +0.039 A 
ATOM     14  C   LIG    1        7.473   3.514  -0.052  0.00  0.00    +0.020 A 
ATOM     15  C   LIG    1        6.161   3.107  -0.042  0.00  0.00    +0.040 A 
ATOM     16  S   LIG    1        5.333   1.535  -0.042  0.00  0.00    -0.067 S 
ENDBRANCH   4   7
BRANCH   1  18
ATOM     17  C   LIG    1       -1.074  -2.124   0.001  0.00  0.00    +0.277 C 
ATOM     18  O   LIG    1       -1.166  -0.698   0.009  0.00  0.00    -0.491 OA
ENDBRANCH   1  18
BRANCH   6  19
ATOM     19  O   LIG    1       -1.204   2.053   0.019  0.00  0.00    -0.491 OA
ATOM     20  C   LIG    1       -1.148   3.481   0.026  0.00  0.00    +0.277 C 
ENDBRANCH   6  19
TORSDOF 3
