REMARK  Name = ZINC01537834
REMARK                            x       y       z     vdW  Elec       q    Type
REMARK                         _______ _______ _______ _____ _____    ______ ____
ROOT
ATOM      1  C   LIG    1        1.743   3.202   0.003  0.00  0.00    +0.042 C 
ATOM      2  C   LIG    1        0.775   4.063  -0.813  0.00  0.00    +0.029 C 
ATOM      3  C   LIG    1        1.280   5.509  -0.836  0.00  0.00    +0.108 C 
ATOM      4  N   LIG    1        1.474   5.964   0.547  0.00  0.00    -0.301 N 
ATOM      5  C   LIG    1        0.893   7.099   0.984  0.00  0.00    +0.216 C 
ATOM      6  O   LIG    1        0.202   7.755   0.234  0.00  0.00    -0.276 OA
ATOM      7  C   LIG    1        2.315   5.160   1.444  0.00  0.00    +0.108 C 
ATOM      8  C   LIG    1        1.798   3.717   1.442  0.00  0.00    +0.029 C 
ENDROOT
BRANCH   1  10
ATOM      9  C   LIG    1       -0.017   1.365   0.009  0.00  0.00    +0.107 A 
ATOM     10  C   LIG    1        1.267   1.772  -0.001  0.00  0.00    +0.062 A 
ATOM     11  N   LIG    1        2.048   0.681  -0.014  0.00  0.00    -0.241 NA
ATOM     12  C   LIG    1        1.297  -0.386  -0.012  0.00  0.00    +0.196 A 
ATOM     13  N   LIG    1        0.002  -0.004   0.002  0.00  0.00    -0.351 N 
ATOM     14  H   LIG    1       -0.771  -0.590   0.006  0.00  0.00    +0.166 HD
ENDBRANCH   1  10
BRANCH   5  15
ATOM     15  C   LIG    1        1.102   7.553   2.406  0.00  0.00    +0.096 C 
BRANCH  15  16
ATOM     16  C   LIG    1        0.339   8.858   2.642  0.00  0.00    +0.009 C 
BRANCH  16  17
ATOM     17  C   LIG    1        0.551   9.319   4.085  0.00  0.00    +0.001 C 
BRANCH  17  18
ATOM     18  C   LIG    1       -0.212  10.624   4.321  0.00  0.00    +0.003 C 
BRANCH  18  19
ATOM     19  C   LIG    1        0.000  11.085   5.765  0.00  0.00    -0.011 C 
ATOM     20  C   LIG    1       -0.628  10.070   6.722  0.00  0.00    +0.003 C 
ATOM     21  C   LIG    1       -0.416  10.531   8.165  0.00  0.00    +0.000 C 
ATOM     22  C   LIG    1       -1.075  11.897   8.366  0.00  0.00    +0.000 C 
ATOM     23  C   LIG    1       -0.447  12.912   7.409  0.00  0.00    +0.000 C 
ATOM     24  C   LIG    1       -0.659  12.451   5.966  0.00  0.00    +0.003 C 
ENDBRANCH  18  19
ENDBRANCH  17  18
ENDBRANCH  16  17
ENDBRANCH  15  16
ENDBRANCH   5  15
TORSDOF 6
