REMARK  Name = ZINC01538191
REMARK                            x       y       z     vdW  Elec       q    Type
REMARK                         _______ _______ _______ _____ _____    ______ ____
ROOT
ATOM      1  C   LIG    1        4.341  -1.386  -1.202  0.00  0.00    +0.041 C 
ATOM      2  C   LIG    1        4.005  -0.525   0.017  0.00  0.00    +0.108 C 
ATOM      3  C   LIG    1        4.475  -1.209   1.303  0.00  0.00    +0.041 C 
ATOM      4  C   LIG    1        2.518  -0.238   0.079  0.00  0.00    +0.249 C 
ATOM      5  N   LIG    1        2.402   1.101  -0.015  0.00  0.00    -0.220 N 
ATOM      6  C   LIG    1        3.596   1.695  -0.119  0.00  0.00    +0.147 C 
ATOM      7  S   LIG    1        3.809   3.388  -0.251  0.00  0.00    -0.018 S 
ATOM      8  O   LIG    1        1.621  -1.045   0.189  0.00  0.00    -0.273 OA
ATOM      9  N   LIG    1        4.611   0.812  -0.109  0.00  0.00    -0.298 N 
ENDROOT
BRANCH   5  10
ATOM     10  C   LIG    1        1.183   1.787   0.000  0.00  0.00    +0.044 A 
ATOM     11  C   LIG    1        0.296   1.649  -1.062  0.00  0.00    +0.025 A 
ATOM     12  C   LIG    1       -0.902   2.326  -1.053  0.00  0.00    +0.021 A 
ATOM     13  C   LIG    1       -1.232   3.146   0.030  0.00  0.00    +0.064 A 
ATOM     14  C   LIG    1       -0.339   3.281   1.096  0.00  0.00    +0.074 A 
ATOM     15  C   LIG    1        0.861   2.604   1.077  0.00  0.00    +0.037 A 
BRANCH  14  16
ATOM     16  C   LIG    1       -0.687   4.167   2.264  0.00  0.00    +0.419 C 
ATOM     17  F   LIG    1       -1.863   3.705   2.866  0.00  0.00    -0.166 F 
ATOM     18  F   LIG    1       -0.878   5.478   1.815  0.00  0.00    -0.166 F 
ATOM     19  F   LIG    1        0.355   4.141   3.197  0.00  0.00    -0.166 F 
ENDBRANCH  14  16
BRANCH  13  20
ATOM     20  C   LIG    1       -2.480   3.848   0.046  0.00  0.00    +0.100 C 
ATOM     21  N   LIG    1       -3.470   4.405   0.058  0.00  0.00    -0.191 NA
ENDBRANCH  13  20
ENDBRANCH   5  10
BRANCH   9  22
ATOM     22  C   LIG    1        6.040   1.120  -0.206  0.00  0.00    +0.108 C 
BRANCH  22  23
ATOM     23  C   LIG    1        6.613   1.329   1.197  0.00  0.00    +0.021 C 
BRANCH  23  24
ATOM     24  C   LIG    1        8.105   1.651   1.096  0.00  0.00    +0.029 C 
BRANCH  24  25
ATOM     25  C   LIG    1        8.678   1.860   2.499  0.00  0.00    +0.156 C 
BRANCH  25  26
ATOM     26  O   LIG    1       10.072   2.160   2.405  0.00  0.00    -0.395 OA
ATOM     27  H   LIG    1       10.502   2.305   3.259  0.00  0.00    +0.209 HD
ENDBRANCH  25  26
ENDBRANCH  24  25
ENDBRANCH  23  24
ENDBRANCH  22  23
ENDBRANCH   9  22
TORSDOF 8
