REMARK  Name = ZINC01606736
REMARK                            x       y       z     vdW  Elec       q    Type
REMARK                         _______ _______ _______ _____ _____    ______ ____
ROOT
ATOM      1  S   LIG    1        3.017  -2.298   1.549  0.00  0.00    -0.027 S 
ENDROOT
BRANCH   1   2
ATOM      2  C   LIG    1        3.149  -0.646   1.466  0.00  0.00    +0.120 C 
ATOM      3  S   LIG    1        4.691   0.095   1.548  0.00  0.00    -0.027 S 
BRANCH   2   7
ATOM      4  C   LIG    1       -0.019   1.526   0.010  0.00  0.00    +0.003 C 
ATOM      5  C   LIG    1        1.417   2.058  -0.000  0.00  0.00    +0.019 C 
ATOM      6  C   LIG    1        2.144   1.577   1.259  0.00  0.00    +0.106 C 
ATOM      7  N   LIG    1        2.043   0.113   1.334  0.00  0.00    -0.318 N 
ATOM      8  C   LIG    1        0.714  -0.508   1.262  0.00  0.00    +0.106 C 
ATOM      9  C   LIG    1        0.002  -0.004   0.002  0.00  0.00    +0.019 C 
ENDBRANCH   2   7
ENDBRANCH   1   2
BRANCH   1  10
ATOM     10  S   LIG    1        4.954  -2.942   1.742  0.00  0.00    -0.027 S 
BRANCH  10  11
ATOM     11  C   LIG    1        5.250  -2.844   3.372  0.00  0.00    +0.120 C 
ATOM     12  S   LIG    1        4.024  -2.292   4.433  0.00  0.00    -0.027 S 
BRANCH  11  13
ATOM     13  N   LIG    1        6.454  -3.199   3.861  0.00  0.00    -0.318 N 
ATOM     14  C   LIG    1        7.518  -3.668   2.963  0.00  0.00    +0.106 C 
ATOM     15  C   LIG    1        8.776  -2.829   3.208  0.00  0.00    +0.019 C 
ATOM     16  C   LIG    1        9.139  -2.881   4.693  0.00  0.00    +0.003 C 
ATOM     17  C   LIG    1        7.995  -2.290   5.521  0.00  0.00    +0.019 C 
ATOM     18  C   LIG    1        6.731  -3.118   5.302  0.00  0.00    +0.106 C 
ENDBRANCH  11  13
ENDBRANCH  10  11
ENDBRANCH   1  10
TORSDOF 5
