REMARK  Name = ZINC01538900
REMARK                            x       y       z     vdW  Elec       q    Type
REMARK                         _______ _______ _______ _____ _____    ______ ____
ROOT
ATOM      1  N   LIG    1       -1.145   5.812   0.935  0.00  0.00    +0.383 N 
ATOM      2  H   LIG    1       -2.037   5.829   0.426  0.00  0.00    -0.085 HD
ATOM      3  H   LIG    1       -1.218   5.167   1.731  0.00  0.00    -0.085 HD
ENDROOT
BRANCH   1   5
ATOM      4  C   LIG    1       -0.348   5.863  -1.385  0.00  0.00    -0.009 C 
ATOM      5  C   LIG    1       -0.076   5.351   0.030  0.00  0.00    -0.044 C 
BRANCH   5   6
ATOM      6  C   LIG    1       -0.051   3.844   0.022  0.00  0.00    -0.058 A 
ATOM      7  C   LIG    1       -1.237   3.133   0.029  0.00  0.00    +0.002 A 
ATOM      8  C   LIG    1       -1.218   1.751   0.017  0.00  0.00    +0.004 A 
ATOM      9  C   LIG    1       -0.013   1.076   0.008  0.00  0.00    +0.045 A 
ATOM     10  C   LIG    1        1.179   1.786   0.000  0.00  0.00    +0.120 A 
ATOM     11  C   LIG    1        1.157   3.174   0.008  0.00  0.00    +0.047 A 
BRANCH  10  12
ATOM     12  O   LIG    1        2.366   1.125  -0.014  0.00  0.00    -0.495 OA
ATOM     13  C   LIG    1        2.312  -0.303  -0.020  0.00  0.00    +0.277 C 
ENDBRANCH  10  12
ENDBRANCH   5   6
ENDBRANCH   1   5
BRANCH   1  14
ATOM     14  C   LIG    1       -0.844   7.168   1.433  0.00  0.00    -0.081 C 
BRANCH  14  15
ATOM     15  C   LIG    1       -1.968   7.620   2.368  0.00  0.00    -0.014 C 
BRANCH  15  16
ATOM     16  C   LIG    1       -1.664   9.025   2.889  0.00  0.00    +0.035 C 
BRANCH  16  17
ATOM     17  C   LIG    1       -2.772   9.470   3.810  0.00  0.00    -0.029 A 
ATOM     18  C   LIG    1       -3.810  10.240   3.320  0.00  0.00    +0.005 A 
ATOM     19  C   LIG    1       -4.828  10.645   4.163  0.00  0.00    +0.000 A 
ATOM     20  C   LIG    1       -4.803  10.287   5.499  0.00  0.00    +0.001 A 
ATOM     21  C   LIG    1       -3.763   9.522   5.990  0.00  0.00    +0.020 A 
ATOM     22  C   LIG    1       -2.746   9.113   5.146  0.00  0.00    +0.044 A 
ATOM     23 CL   LIG    1       -1.439   8.152   5.763  0.00  0.00    -0.083 Cl
ENDBRANCH  16  17
ENDBRANCH  15  16
ENDBRANCH  14  15
ENDBRANCH   1  14
TORSDOF 7
