REMARK  Name = ZINC01655706
REMARK                            x       y       z     vdW  Elec       q    Type
REMARK                         _______ _______ _______ _____ _____    ______ ____
ROOT
ATOM      1  C   LIG    1       -4.230   1.027   5.933  0.00  0.00    +0.000 C 
ENDROOT
BRANCH   1   2
ATOM      2  C   LIG    1       -4.474   0.263   4.630  0.00  0.00    +0.000 C 
BRANCH   2   3
ATOM      3  C   LIG    1       -3.178  -0.420   4.188  0.00  0.00    +0.001 C 
BRANCH   3   4
ATOM      4  C   LIG    1       -3.422  -1.184   2.885  0.00  0.00    +0.015 C 
BRANCH   4   5
ATOM      5  C   LIG    1       -2.126  -1.867   2.444  0.00  0.00    +0.085 C 
BRANCH   5  16
ATOM      6  C   LIG    1       -1.727  -0.545   0.055  0.00  0.00    +0.024 C 
ATOM      7  C   LIG    1       -2.175  -1.984   0.051  0.00  0.00    +0.055 C 
ATOM      8  C   LIG    1       -2.374  -2.625  -1.164  0.00  0.00    +0.037 C 
ATOM      9  C   LIG    1       -2.786  -3.948  -1.183  0.00  0.00    +0.057 C 
ATOM     10  C   LIG    1       -2.987  -4.597   0.059  0.00  0.00    +0.023 C 
ATOM     11  C   LIG    1       -3.402  -5.934   0.125  0.00  0.00    +0.006 C 
ATOM     12  C   LIG    1       -3.585  -6.524   1.339  0.00  0.00    +0.000 C 
ATOM     13  C   LIG    1       -3.364  -5.814   2.517  0.00  0.00    +0.002 C 
ATOM     14  C   LIG    1       -2.961  -4.514   2.488  0.00  0.00    +0.019 C 
ATOM     15  C   LIG    1       -2.761  -3.873   1.254  0.00  0.00    +0.061 C 
ATOM     16  N   LIG    1       -2.360  -2.598   1.196  0.00  0.00    -0.296 NA
BRANCH   9  17
ATOM     17  N   LIG    1       -2.994  -4.615  -2.381  0.00  0.00    -0.327 NA
ATOM     18  H   LIG    1       -3.282  -5.542  -2.376  0.00  0.00    +0.118 HD
ATOM     19  H   LIG    1       -2.852  -4.156  -3.223  0.00  0.00    +0.118 HD
ENDBRANCH   9  17
ENDBRANCH   5  16
ENDBRANCH   4   5
ENDBRANCH   3   4
ENDBRANCH   2   3
ENDBRANCH   1   2
BRANCH   1  20
ATOM     20  C   LIG    1       -5.526   1.710   6.374  0.00  0.00    +0.000 C 
BRANCH  20  21
ATOM     21  C   LIG    1       -5.282   2.474   7.677  0.00  0.00    +0.000 C 
BRANCH  21  22
ATOM     22  C   LIG    1       -6.579   3.157   8.118  0.00  0.00    +0.001 C 
BRANCH  22  23
ATOM     23  C   LIG    1       -6.335   3.921   9.421  0.00  0.00    +0.015 C 
BRANCH  23  24
ATOM     24  C   LIG    1       -7.631   4.604   9.862  0.00  0.00    +0.085 C 
BRANCH  24  25
ATOM     25  N   LIG    1       -7.397   5.335  11.110  0.00  0.00    -0.296 NA
ATOM     26  C   LIG    1       -7.107   6.614  11.057  0.00  0.00    +0.055 C 
ATOM     27  C   LIG    1       -7.022   7.291   9.713  0.00  0.00    +0.024 C 
ATOM     28  C   LIG    1       -6.875   7.361  12.204  0.00  0.00    +0.037 C 
ATOM     29  C   LIG    1       -6.949   6.752  13.446  0.00  0.00    +0.057 C 
ATOM     30  C   LIG    1       -7.262   5.372  13.490  0.00  0.00    +0.023 C 
ATOM     31  C   LIG    1       -7.355   4.683  14.707  0.00  0.00    +0.006 C 
ATOM     32  C   LIG    1       -7.677   3.359  14.708  0.00  0.00    +0.000 C 
ATOM     33  C   LIG    1       -7.896   2.677  13.514  0.00  0.00    +0.002 C 
ATOM     34  C   LIG    1       -7.807   3.315  12.315  0.00  0.00    +0.019 C 
ATOM     35  C   LIG    1       -7.490   4.684  12.275  0.00  0.00    +0.061 C 
BRANCH  29  36
ATOM     36  N   LIG    1       -6.722   7.471  14.610  0.00  0.00    -0.327 NA
ATOM     37  H   LIG    1       -6.777   7.029  15.472  0.00  0.00    +0.118 HD
ATOM     38  H   LIG    1       -6.508   8.416  14.562  0.00  0.00    +0.118 HD
ENDBRANCH  29  36
ENDBRANCH  24  25
ENDBRANCH  23  24
ENDBRANCH  22  23
ENDBRANCH  21  22
ENDBRANCH  20  21
ENDBRANCH   1  20
TORSDOF 13
