REMARK  Name = ZINC01621007
REMARK                            x       y       z     vdW  Elec       q    Type
REMARK                         _______ _______ _______ _____ _____    ______ ____
ROOT
ATOM      1  C   LIG    1       -2.639   1.402  -3.033  0.00  0.00    +0.047 A 
ATOM      2  C   LIG    1       -1.906   1.038  -1.923  0.00  0.00    +0.053 A 
ATOM      3  C   LIG    1       -0.983   1.915  -1.363  0.00  0.00    +0.119 A 
ATOM      4  C   LIG    1       -0.770   3.149  -1.898  0.00  0.00    +0.038 A 
ATOM      5  C   LIG    1       -1.493   3.555  -3.033  0.00  0.00    -0.009 A 
ATOM      6  C   LIG    1       -1.292   4.823  -3.606  0.00  0.00    +0.038 A 
ATOM      7  C   LIG    1       -2.005   5.192  -4.705  0.00  0.00    +0.121 A 
ATOM      8  C   LIG    1       -2.938   4.332  -5.278  0.00  0.00    +0.075 A 
ATOM      9  C   LIG    1       -3.162   3.082  -4.746  0.00  0.00    +0.128 A 
ATOM     10  C   LIG    1       -2.439   2.673  -3.608  0.00  0.00    +0.045 A 
ENDROOT
BRANCH   1  13
ATOM     11  C   LIG    1       -4.269  -1.753  -4.272  0.00  0.00    +0.109 C 
ATOM     12  C   LIG    1       -3.316  -0.807  -3.588  0.00  0.00    +0.214 C 
ATOM     13  N   LIG    1       -3.567   0.517  -3.585  0.00  0.00    -0.285 N 
ATOM     14  H   LIG    1       -4.392   0.855  -3.967  0.00  0.00    +0.155 HD
ATOM     15  O   LIG    1       -2.323  -1.237  -3.040  0.00  0.00    -0.276 OA
ENDBRANCH   1  13
BRANCH   3  16
ATOM     16  S   LIG    1       -0.069   1.418   0.060  0.00  0.00    +0.110 S 
ATOM     17  O   LIG    1        1.123   2.192   0.068  0.00  0.00    -0.142 OA
ATOM     18  O   LIG    1       -0.054  -0.003   0.057  0.00  0.00    -0.142 OA
BRANCH  16  19
ATOM     19  O   LIG    1       -0.872   1.843   1.281  0.00  0.00    -0.250 OA
ATOM     20  H   LIG    1       -1.699   1.337   1.316  0.00  0.00    +0.245 HD
ENDBRANCH  16  19
ENDBRANCH   3  16
BRANCH   7  21
ATOM     21  S   LIG    1       -1.744   6.784  -5.414  0.00  0.00    +0.110 S 
ATOM     22  O   LIG    1       -1.222   7.608  -4.381  0.00  0.00    -0.142 OA
ATOM     23  O   LIG    1       -2.930   7.112  -6.124  0.00  0.00    -0.142 OA
BRANCH  21  24
ATOM     24  O   LIG    1       -0.641   6.638  -6.453  0.00  0.00    -0.250 OA
ATOM     25  H   LIG    1       -0.955   6.080  -7.181  0.00  0.00    +0.245 HD
ENDBRANCH  21  24
ENDBRANCH   7  21
BRANCH   9  26
ATOM     26  O   LIG    1       -4.074   2.250  -5.312  0.00  0.00    -0.506 OA
ATOM     27  H   LIG    1       -3.709   1.675  -5.998  0.00  0.00    +0.292 HD
ENDBRANCH   9  26
TORSDOF 6
