REMARK  Name = ZINC01485772
REMARK                            x       y       z     vdW  Elec       q    Type
REMARK                         _______ _______ _______ _____ _____    ______ ____
ROOT
ATOM      1  C   LIG    1        0.030   2.130   6.186  0.00  0.00    +0.251 C 
ATOM      2  N   LIG    1       -0.911   1.865   7.114  0.00  0.00    -0.267 N 
ATOM      3  C   LIG    1       -1.915   0.802   7.013  0.00  0.00    +0.119 C 
ATOM      4  C   LIG    1       -2.744   0.906   8.303  0.00  0.00    +0.056 C 
ATOM      5  C   LIG    1       -2.125   2.059   9.063  0.00  0.00    -0.021 A 
ATOM      6  C   LIG    1       -2.449   2.613  10.284  0.00  0.00    +0.051 A 
ATOM      7  C   LIG    1       -1.714   3.680  10.793  0.00  0.00    +0.125 A 
ATOM      8  O   LIG    1       -1.873   4.377  11.954  0.00  0.00    -0.491 OA
ATOM      9  C   LIG    1       -0.660   5.093  12.247  0.00  0.00    +0.240 C 
ATOM     10  C   LIG    1       -0.049   5.307  10.850  0.00  0.00    +0.030 C 
ATOM     11  C   LIG    1       -0.466   6.658  10.285  0.00  0.00    -0.004 C 
ATOM     12  C   LIG    1        0.189   7.774  11.104  0.00  0.00    -0.078 C 
ATOM     13  N   LIG    1        1.648   7.625  11.059  0.00  0.00    +0.378 N 
ATOM     14  H   LIG    1        1.955   7.623  10.098  0.00  0.00    -0.082 HD
ATOM     15  C   LIG    1        2.276   8.748  11.767  0.00  0.00    -0.096 C 
ATOM     16  C   LIG    1        2.042   6.364  11.699  0.00  0.00    -0.078 C 
ATOM     17  C   LIG    1        1.469   5.186  10.906  0.00  0.00    -0.004 C 
ATOM     18  C   LIG    1       -0.651   4.178  10.047  0.00  0.00    +0.005 A 
ATOM     19  C   LIG    1       -0.332   3.630   8.827  0.00  0.00    +0.031 A 
ATOM     20  C   LIG    1       -1.068   2.559   8.319  0.00  0.00    +0.040 A 
ATOM     21  O   LIG    1        0.879   2.972   6.405  0.00  0.00    -0.270 OA
ENDROOT
BRANCH   1  25
ATOM     22  C   LIG    1        0.028   0.021   2.496  0.00  0.00    -0.018 A 
ATOM     23  C   LIG    1       -0.192  -0.665   3.692  0.00  0.00    +0.009 A 
ATOM     24  C   LIG    1       -0.191   0.017   4.887  0.00  0.00    +0.013 A 
ATOM     25  C   LIG    1        0.029   1.397   4.904  0.00  0.00    +0.037 A 
ATOM     26  C   LIG    1        0.249   2.083   3.707  0.00  0.00    +0.013 A 
ATOM     27  C   LIG    1        0.254   1.398   2.513  0.00  0.00    +0.009 A 
BRANCH  22  34
ATOM     28  C   LIG    1        1.616  -2.377   2.223  0.00  0.00    +0.044 C 
ATOM     29  C   LIG    1        0.791  -1.873   1.068  0.00  0.00    -0.042 A 
ATOM     30  C   LIG    1        0.786  -2.559  -0.127  0.00  0.00    +0.015 A 
ATOM     31  C   LIG    1        0.022  -2.092  -1.196  0.00  0.00    +0.023 A 
ATOM     32  C   LIG    1       -0.738  -0.931  -1.056  0.00  0.00    +0.012 A 
ATOM     33  C   LIG    1       -0.734  -0.245   0.138  0.00  0.00    +0.009 A 
ATOM     34  C   LIG    1        0.027  -0.714   1.210  0.00  0.00    -0.015 A 
BRANCH  31  35
ATOM     35  C   LIG    1        0.017  -2.831  -2.482  0.00  0.00    +0.202 A 
ATOM     36  N   LIG    1       -0.670  -2.482  -3.585  0.00  0.00    -0.192 NA
ATOM     37  C   LIG    1       -0.453  -3.344  -4.537  0.00  0.00    +0.225 A 
ATOM     38  C   LIG    1       -1.046  -3.295  -5.922  0.00  0.00    +0.112 C 
ATOM     39  O   LIG    1        0.386  -4.282  -4.078  0.00  0.00    -0.338 OA
ATOM     40  N   LIG    1        0.687  -3.929  -2.736  0.00  0.00    -0.056 NA
ENDBRANCH  31  35
ENDBRANCH  22  34
ENDBRANCH   1  25
TORSDOF 3
