REMARK  Name = ZINC01530621
REMARK                            x       y       z     vdW  Elec       q    Type
REMARK                         _______ _______ _______ _____ _____    ______ ____
ROOT
ATOM      1  C   LIG    1        0.617  -1.943  -1.137  0.00  0.00    -0.037 C 
ATOM      2  C   LIG    1        1.232  -2.528  -2.398  0.00  0.00    +0.015 C 
ATOM      3  C   LIG    1        1.096  -4.058  -2.420  0.00  0.00    +0.132 C 
ATOM      4  C   LIG    1       -0.338  -4.461  -2.071  0.00  0.00    +0.032 C 
ATOM      5  S   LIG    1        2.254  -4.707  -1.165  0.00  0.00    +0.006 S 
ATOM      6  C   LIG    1        2.027  -3.580   0.161  0.00  0.00    +0.129 A 
ATOM      7  S   LIG    1        2.632  -3.683   1.819  0.00  0.00    -0.050 S 
ATOM      8  C   LIG    1        1.953  -2.143   2.410  0.00  0.00    +0.144 A 
ATOM      9  C   LIG    1        1.315  -1.679   1.312  0.00  0.00    +0.040 A 
ATOM     10  O   LIG    1        1.804  -5.962  -0.673  0.00  0.00    -0.169 OA
ATOM     11  O   LIG    1        3.599  -4.524  -1.585  0.00  0.00    -0.169 OA
ATOM     12  C   LIG    1        1.332  -2.413   0.121  0.00  0.00    -0.027 A 
ENDROOT
BRANCH   1  13
ATOM     13  N   LIG    1        0.690  -0.478  -1.207  0.00  0.00    +0.384 N 
ATOM     14  H   LIG    1        0.333  -0.082  -0.349  0.00  0.00    -0.085 HD
ATOM     15  H   LIG    1        1.650  -0.194  -1.334  0.00  0.00    -0.085 HD
BRANCH  13  17
ATOM     16  C   LIG    1       -0.149   1.529  -2.332  0.00  0.00    -0.017 C 
ATOM     17  C   LIG    1       -0.116  -0.001  -2.338  0.00  0.00    -0.085 C 
ENDBRANCH  13  17
ENDBRANCH   1  13
BRANCH   8  18
ATOM     18  S   LIG    1        2.078  -1.417   4.011  0.00  0.00    +0.062 S 
ATOM     19  O   LIG    1        1.881  -0.020   3.840  0.00  0.00    -0.153 OA
ATOM     20  O   LIG    1        3.250  -1.953   4.609  0.00  0.00    -0.153 OA
BRANCH  18  21
ATOM     21  N   LIG    1        0.797  -1.970   4.901  0.00  0.00    -0.203 NA
ATOM     22  H   LIG    1        0.866  -2.987   4.917  0.00  0.00    +0.144 HD
ATOM     23  H   LIG    1        0.685  -1.683   5.821  0.00  0.00    +0.144 HD
ENDBRANCH  18  21
ENDBRANCH   8  18
TORSDOF 4
