REMARK  Name = ZINC01554888
REMARK                            x       y       z     vdW  Elec       q    Type
REMARK                         _______ _______ _______ _____ _____    ______ ____
ROOT
ATOM      1  C   LIG    1        5.740  -1.842  -1.483  0.00  0.00    +0.168 A 
ATOM      2  N   LIG    1        6.566  -2.310  -2.459  0.00  0.00    -0.332 N 
ATOM      3  C   LIG    1        7.643  -2.907  -1.831  0.00  0.00    +0.075 A 
ATOM      4  C   LIG    1        7.419  -2.782  -0.474  0.00  0.00    +0.098 A 
ATOM      5  H   LIG    1        6.421  -2.236  -3.446  0.00  0.00    +0.168 HD
ATOM      6  N   LIG    1        6.252  -2.129  -0.310  0.00  0.00    -0.221 NA
ENDROOT
BRANCH   3   7
ATOM      7  C   LIG    1        8.799  -3.555  -2.481  0.00  0.00    +0.000 A 
ATOM      8  C   LIG    1       10.095  -3.297  -2.026  0.00  0.00    +0.010 A 
ATOM      9  C   LIG    1       11.170  -3.911  -2.635  0.00  0.00    +0.001 A 
ATOM     10  C   LIG    1       10.968  -4.771  -3.701  0.00  0.00    +0.000 A 
ATOM     11  C   LIG    1        9.688  -5.025  -4.160  0.00  0.00    +0.001 A 
ATOM     12  C   LIG    1        8.603  -4.424  -3.557  0.00  0.00    +0.010 A 
ENDBRANCH   3   7
BRANCH   4  13
ATOM     13  C   LIG    1        8.304  -3.277   0.607  0.00  0.00    +0.002 A 
ATOM     14  C   LIG    1        9.009  -4.469   0.444  0.00  0.00    +0.010 A 
ATOM     15  C   LIG    1        9.835  -4.922   1.452  0.00  0.00    +0.001 A 
ATOM     16  C   LIG    1        9.956  -4.201   2.627  0.00  0.00    +0.000 A 
ATOM     17  C   LIG    1        9.255  -3.020   2.796  0.00  0.00    +0.001 A 
ATOM     18  C   LIG    1        8.430  -2.555   1.793  0.00  0.00    +0.010 A 
ENDBRANCH   4  13
BRANCH   1  19
ATOM     19  S   LIG    1        4.220  -0.992  -1.753  0.00  0.00    -0.083 S 
BRANCH  19  20
ATOM     20  C   LIG    1        3.711  -0.707  -0.039  0.00  0.00    +0.112 C 
BRANCH  20  24
ATOM     21  C   LIG    1       -0.017   1.378   0.010  0.00  0.00    +0.000 A 
ATOM     22  C   LIG    1        1.171   2.086   0.002  0.00  0.00    +0.000 A 
ATOM     23  C   LIG    1        2.377   1.411  -0.014  0.00  0.00    +0.004 A 
ATOM     24  C   LIG    1        2.396   0.029  -0.022  0.00  0.00    -0.037 A 
ATOM     25  C   LIG    1        1.208  -0.679  -0.014  0.00  0.00    +0.004 A 
ATOM     26  C   LIG    1        0.002  -0.004   0.002  0.00  0.00    +0.000 A 
ENDBRANCH  20  24
ENDBRANCH  19  20
ENDBRANCH   1  19
TORSDOF 5
