REMARK  Name = ZINC01552042
REMARK                            x       y       z     vdW  Elec       q    Type
REMARK                         _______ _______ _______ _____ _____    ______ ____
ROOT
ATOM      1  C   LIG    1        4.847   5.295   0.178  0.00  0.00    -0.028 A 
ATOM      2  C   LIG    1        3.708   5.512  -0.576  0.00  0.00    +0.006 A 
ATOM      3  C   LIG    1        2.599   4.709  -0.404  0.00  0.00    +0.009 A 
ATOM      4  C   LIG    1        2.629   3.677   0.533  0.00  0.00    -0.017 A 
ATOM      5  C   LIG    1        3.778   3.466   1.295  0.00  0.00    +0.009 A 
ATOM      6  C   LIG    1        4.882   4.273   1.109  0.00  0.00    +0.006 A 
ENDROOT
BRANCH   4   7
ATOM      7  C   LIG    1        1.442   2.810   0.723  0.00  0.00    -0.007 A 
ATOM      8  C   LIG    1        0.185   3.377   0.915  0.00  0.00    +0.009 A 
ATOM      9  C   LIG    1       -0.919   2.567   1.092  0.00  0.00    +0.001 A 
ATOM     10  C   LIG    1       -0.786   1.188   1.074  0.00  0.00    +0.001 A 
ATOM     11  C   LIG    1        0.453   0.609   0.891  0.00  0.00    +0.012 A 
ATOM     12  C   LIG    1        1.578   1.412   0.711  0.00  0.00    +0.028 A 
BRANCH  12  13
ATOM     13  C   LIG    1        2.906   0.796   0.507  0.00  0.00    +0.180 A 
ATOM     14  N   LIG    1        3.202  -0.511   0.475  0.00  0.00    -0.239 N 
ATOM     15  H   LIG    1        2.569  -1.257   0.584  0.00  0.00    +0.192 HD
ATOM     16  N   LIG    1        4.570  -0.613   0.258  0.00  0.00    -0.046 NA
ATOM     17  N   LIG    1        5.009   0.596   0.182  0.00  0.00    -0.023 NA
ATOM     18  N   LIG    1        4.045   1.432   0.327  0.00  0.00    -0.108 NA
ENDBRANCH  12  13
ENDBRANCH   4   7
BRANCH   1  19
ATOM     19  C   LIG    1        6.055   6.176  -0.015  0.00  0.00    +0.158 C 
BRANCH  19  25
ATOM     20  C   LIG    1        6.231   7.559   2.070  0.00  0.00    +0.112 A 
ATOM     21  N   LIG    1        5.955   8.783   2.444  0.00  0.00    -0.220 NA
ATOM     22  C   LIG    1        5.430   9.460   1.424  0.00  0.00    +0.158 A 
ATOM     23 CL   LIG    1        4.904  11.115   1.452  0.00  0.00    -0.060 Cl
ATOM     24  C   LIG    1        5.379   8.604   0.338  0.00  0.00    +0.120 A 
ATOM     25  N   LIG    1        5.900   7.398   0.778  0.00  0.00    -0.320 N 
BRANCH  24  26
ATOM     26  C   LIG    1        4.895   8.900  -0.956  0.00  0.00    +0.279 C 
ATOM     27  O   LIG    1        4.910   8.046  -1.820  0.00  0.00    -0.294 OA
ENDBRANCH  24  26
BRANCH  20  28
ATOM     28  C   LIG    1        6.831   6.495   2.953  0.00  0.00    +0.074 C 
BRANCH  28  29
ATOM     29  C   LIG    1        8.354   6.643   2.966  0.00  0.00    +0.007 C 
BRANCH  29  31
ATOM     30  C   LIG    1       10.478   5.789   3.967  0.00  0.00    +0.004 C 
ATOM     31  C   LIG    1        8.955   5.641   3.954  0.00  0.00    -0.003 C 
ENDBRANCH  29  31
ENDBRANCH  28  29
ENDBRANCH  20  28
ENDBRANCH  19  25
ENDBRANCH   1  19
TORSDOF 8
