REMARK  Name = ZINC01572556
REMARK                            x       y       z     vdW  Elec       q    Type
REMARK                         _______ _______ _______ _____ _____    ______ ____
ROOT
ATOM      1  C   LIG    1        3.711  -0.707  -0.038  0.00  0.00    +0.032 C 
ATOM      2  C   LIG    1        3.792  -1.560  -1.303  0.00  0.00    -0.070 C 
ATOM      3  N   LIG    1        5.192  -1.617  -1.737  0.00  0.00    +0.380 N 
ATOM      4  H   LIG    1        5.527  -0.680  -1.906  0.00  0.00    -0.086 HD
ATOM      5  H   LIG    1        5.255  -2.151  -2.591  0.00  0.00    -0.086 HD
ATOM      6  C   LIG    1        6.019  -2.248  -0.708  0.00  0.00    -0.078 C 
ATOM      7  C   LIG    1        5.168  -3.313  -0.009  0.00  0.00    +0.016 C 
ATOM      8  C   LIG    1        4.516  -2.748   1.226  0.00  0.00    -0.042 A 
ATOM      9  C   LIG    1        4.625  -3.465   2.410  0.00  0.00    +0.053 A 
ATOM     10  C   LIG    1        4.010  -3.013   3.562  0.00  0.00    +0.158 A 
ATOM     11  C   LIG    1        3.277  -1.831   3.531  0.00  0.00    +0.159 A 
ATOM     12  C   LIG    1        3.185  -1.111   2.353  0.00  0.00    +0.053 A 
ATOM     13  C   LIG    1        3.817  -1.562   1.202  0.00  0.00    -0.035 A 
ENDROOT
BRANCH   1  17
ATOM     14  C   LIG    1       -0.017   1.378   0.010  0.00  0.00    +0.000 A 
ATOM     15  C   LIG    1        1.171   2.086   0.002  0.00  0.00    +0.000 A 
ATOM     16  C   LIG    1        2.377   1.411  -0.013  0.00  0.00    +0.004 A 
ATOM     17  C   LIG    1        2.396   0.029  -0.020  0.00  0.00    -0.042 A 
ATOM     18  C   LIG    1        1.208  -0.679  -0.012  0.00  0.00    +0.004 A 
ATOM     19  C   LIG    1        0.002  -0.004   0.002  0.00  0.00    +0.000 A 
ENDBRANCH   1  17
BRANCH  10  20
ATOM     20  O   LIG    1        4.122  -3.719   4.719  0.00  0.00    -0.503 OA
ATOM     21  H   LIG    1        3.427  -4.379   4.845  0.00  0.00    +0.292 HD
ENDBRANCH  10  20
BRANCH  11  22
ATOM     22  O   LIG    1        2.653  -1.384   4.654  0.00  0.00    -0.503 OA
ATOM     23  H   LIG    1        1.749  -1.710   4.758  0.00  0.00    +0.292 HD
ENDBRANCH  11  22
TORSDOF 3
