REMARK  Name = ZINC01504345
REMARK                            x       y       z     vdW  Elec       q    Type
REMARK                         _______ _______ _______ _____ _____    ______ ____
ROOT
ATOM      1  C   LIG    1        3.698  -0.687  -0.038  0.00  0.00    -0.018 A 
ATOM      2  C   LIG    1        4.896   0.032  -0.041  0.00  0.00    +0.009 A 
ATOM      3  C   LIG    1        6.090  -0.630  -0.057  0.00  0.00    +0.009 A 
ATOM      4  C   LIG    1        6.113  -2.030  -0.070  0.00  0.00    -0.014 A 
ATOM      5  C   LIG    1        4.911  -2.749  -0.068  0.00  0.00    +0.009 A 
ATOM      6  C   LIG    1        3.719  -2.083  -0.046  0.00  0.00    +0.009 A 
ENDROOT
BRANCH   4   7
ATOM      7  C   LIG    1        7.401  -2.747  -0.088  0.00  0.00    +0.032 C 
ATOM      8  C   LIG    1        8.245  -2.659   0.973  0.00  0.00    +0.063 C 
ATOM      9  C   LIG    1        9.524  -3.374   0.950  0.00  0.00    +0.180 C 
ATOM     10  C   LIG    1        9.899  -4.190  -0.223  0.00  0.00    +0.054 C 
ATOM     11  C   LIG    1        9.073  -4.282  -1.274  0.00  0.00    +0.055 C 
ATOM     12  O   LIG    1       10.279  -3.296   1.900  0.00  0.00    -0.288 OA
ATOM     13  C   LIG    1        7.780  -3.573  -1.263  0.00  0.00    +0.187 C 
ATOM     14  O   LIG    1        7.029  -3.660  -2.213  0.00  0.00    -0.287 OA
ENDBRANCH   4   7
BRANCH   1  18
ATOM     15  C   LIG    1       -0.017   1.379   0.010  0.00  0.00    +0.000 A 
ATOM     16  C   LIG    1        1.169   2.093   0.002  0.00  0.00    +0.001 A 
ATOM     17  C   LIG    1        2.377   1.428  -0.013  0.00  0.00    +0.008 A 
ATOM     18  C   LIG    1        2.403   0.034  -0.021  0.00  0.00    -0.018 A 
ATOM     19  C   LIG    1        1.204  -0.680  -0.013  0.00  0.00    +0.008 A 
ATOM     20  C   LIG    1        0.002  -0.004   0.002  0.00  0.00    +0.001 A 
ENDBRANCH   1  18
TORSDOF 2
