REMARK  Name = ZINC01546076
REMARK                            x       y       z     vdW  Elec       q    Type
REMARK                         _______ _______ _______ _____ _____    ______ ____
ROOT
ATOM      1  C   LIG    1        1.172   1.786   0.001  0.00  0.00    +0.004 A 
ATOM      2  C   LIG    1       -0.013   1.076   0.008  0.00  0.00    +0.013 A 
ATOM      3  C   LIG    1       -1.226   1.759   0.017  0.00  0.00    +0.043 A 
ATOM      4  C   LIG    1       -1.242   3.155   0.032  0.00  0.00    +0.008 A 
ATOM      5  C   LIG    1       -2.564   3.875   0.049  0.00  0.00    +0.058 C 
ATOM      6  C   LIG    1       -3.598   3.083  -0.748  0.00  0.00    +0.109 C 
ATOM      7  N   LIG    1       -3.639   1.689  -0.314  0.00  0.00    -0.311 N 
ATOM      8  H   LIG    1       -4.491   1.227  -0.273  0.00  0.00    +0.149 HD
ATOM      9  C   LIG    1       -0.051   3.857   0.024  0.00  0.00    +0.124 A 
ATOM     10  C   LIG    1       -2.513   1.031   0.029  0.00  0.00    +0.244 C 
ATOM     11  O   LIG    1       -2.556  -0.143   0.341  0.00  0.00    -0.270 OA
ATOM     12  C   LIG    1        1.156   3.168   0.008  0.00  0.00    +0.046 A 
ENDROOT
BRANCH   9  13
ATOM     13  O   LIG    1       -0.060   5.216   0.032  0.00  0.00    -0.492 OA
BRANCH  13  14
ATOM     14  C   LIG    1        1.208   5.873   0.023  0.00  0.00    +0.229 C 
BRANCH  14  15
ATOM     15  C   LIG    1        0.997   7.389   0.034  0.00  0.00    +0.039 C 
BRANCH  15  16
ATOM     16  C   LIG    1        2.356   8.093   0.025  0.00  0.00    -0.015 C 
BRANCH  16  17
ATOM     17  C   LIG    1        2.145   9.608   0.036  0.00  0.00    -0.079 C 
BRANCH  17  18
ATOM     18  N   LIG    1        3.464  10.272   0.004  0.00  0.00    +0.380 N 
ATOM     19  H   LIG    1        4.012   9.889  -0.775  0.00  0.00    -0.082 HD
ATOM     20  C   LIG    1        3.293  11.726  -0.202  0.00  0.00    -0.079 C 
ATOM     21  C   LIG    1        4.672  12.373  -0.349  0.00  0.00    -0.019 C 
ATOM     22  C   LIG    1        5.486  12.124   0.923  0.00  0.00    -0.004 C 
ATOM     23  C   LIG    1        5.593  10.616   1.164  0.00  0.00    -0.019 C 
ATOM     24  C   LIG    1        4.187  10.020   1.268  0.00  0.00    -0.079 C 
ENDBRANCH  17  18
ENDBRANCH  16  17
ENDBRANCH  15  16
ENDBRANCH  14  15
ENDBRANCH  13  14
ENDBRANCH   9  13
TORSDOF 6
