REMARK  Name = ZINC01567835
REMARK                            x       y       z     vdW  Elec       q    Type
REMARK                         _______ _______ _______ _____ _____    ______ ____
ROOT
ATOM      1  C   LIG    1       -3.282   4.815   0.056  0.00  0.00    +0.130 A 
ATOM      2  C   LIG    1       -4.665   4.876   0.069  0.00  0.00    +0.046 A 
ATOM      3  C   LIG    1       -5.413   3.711   0.070  0.00  0.00    +0.006 A 
ATOM      4  C   LIG    1       -4.795   2.479   0.058  0.00  0.00    +0.026 A 
ATOM      5  C   LIG    1       -3.405   2.394   0.045  0.00  0.00    +0.051 A 
ATOM      6  N   LIG    1       -2.539   1.316   0.032  0.00  0.00    -0.354 N 
ATOM      7  H   LIG    1       -2.813   0.385   0.029  0.00  0.00    +0.166 HD
ATOM      8  C   LIG    1       -1.227   1.755   0.017  0.00  0.00    +0.048 A 
ATOM      9  C   LIG    1       -0.013   1.076   0.008  0.00  0.00    +0.026 A 
ATOM     10  C   LIG    1        1.172   1.781   0.000  0.00  0.00    +0.002 A 
ATOM     11  C   LIG    1        1.167   3.167   0.007  0.00  0.00    +0.001 A 
ATOM     12  C   LIG    1       -0.026   3.857   0.022  0.00  0.00    +0.011 A 
ATOM     13  C   LIG    1       -1.230   3.157   0.030  0.00  0.00    +0.011 A 
ATOM     14  C   LIG    1       -2.645   3.572   0.044  0.00  0.00    +0.049 A 
ENDROOT
BRANCH   1  15
ATOM     15  O   LIG    1       -2.548   5.958   0.055  0.00  0.00    -0.489 OA
BRANCH  15  16
ATOM     16  C   LIG    1       -3.269   7.192   0.068  0.00  0.00    +0.258 C 
BRANCH  16  17
ATOM     17  C   LIG    1       -2.281   8.360   0.065  0.00  0.00    +0.135 C 
BRANCH  17  18
ATOM     18  O   LIG    1       -1.550   8.362  -1.163  0.00  0.00    -0.390 OA
ATOM     19  H   LIG    1       -2.104   8.455  -1.951  0.00  0.00    +0.210 HD
ENDBRANCH  17  18
BRANCH  17  20
ATOM     20  C   LIG    1       -3.048   9.677   0.204  0.00  0.00    -0.047 C 
BRANCH  20  21
ATOM     21  N   LIG    1       -2.089  10.798   0.200  0.00  0.00    +0.382 N 
ATOM     22  H   LIG    1       -1.564  10.791  -0.683  0.00  0.00    -0.085 HD
ATOM     23  H   LIG    1       -1.437  10.689   0.986  0.00  0.00    -0.085 HD
BRANCH  21  25
ATOM     24  C   LIG    1       -3.047  12.380   1.813  0.00  0.00    -0.014 C 
ATOM     25  C   LIG    1       -2.801  12.082   0.333  0.00  0.00    -0.078 C 
ATOM     26  C   LIG    1       -1.947  13.196  -0.276  0.00  0.00    -0.014 C 
ENDBRANCH  21  25
ENDBRANCH  20  21
ENDBRANCH  17  20
ENDBRANCH  16  17
ENDBRANCH  15  16
ENDBRANCH   1  15
TORSDOF 7
