REMARK  Name = ZINC01539133
REMARK                            x       y       z     vdW  Elec       q    Type
REMARK                         _______ _______ _______ _____ _____    ______ ____
ROOT
ATOM      1  C   LIG    1        1.306   2.079   0.593  0.00  0.00    +0.134 A 
ATOM      2  C   LIG    1        2.535   1.537   0.997  0.00  0.00    +0.062 A 
ATOM      3  C   LIG    1        3.896   2.052   1.145  0.00  0.00    -0.020 A 
ATOM      4  C   LIG    1        4.358   3.459   0.865  0.00  0.00    +0.046 C 
ATOM      5  C   LIG    1        4.654   1.032   1.579  0.00  0.00    +0.097 A 
ATOM      6  N   LIG    1        3.881  -0.094   1.719  0.00  0.00    -0.300 N 
ATOM      7  C   LIG    1        2.585   0.182   1.372  0.00  0.00    +0.151 A 
ATOM      8  N   LIG    1        1.462  -0.533   1.328  0.00  0.00    -0.214 NA
ATOM      9  C   LIG    1        0.331   0.017   0.942  0.00  0.00    +0.130 A 
ATOM     10  C   LIG    1       -0.912  -0.835   0.909  0.00  0.00    +0.088 C 
ATOM     11  N   LIG    1        0.239   1.285   0.582  0.00  0.00    -0.217 NA
ENDROOT
BRANCH   6  12
ATOM     12  C   LIG    1        4.349  -1.341   2.153  0.00  0.00    +0.054 A 
ATOM     13  C   LIG    1        4.816  -2.269   1.231  0.00  0.00    -0.026 A 
ATOM     14  C   LIG    1        4.819  -1.936  -0.238  0.00  0.00    +0.046 C 
ATOM     15  C   LIG    1        5.282  -3.495   1.663  0.00  0.00    +0.008 A 
ATOM     16  C   LIG    1        5.274  -3.804   3.011  0.00  0.00    -0.050 A 
ATOM     17  C   LIG    1        5.778  -5.145   3.478  0.00  0.00    +0.044 C 
ATOM     18  C   LIG    1        4.805  -2.885   3.931  0.00  0.00    +0.008 A 
ATOM     19  C   LIG    1        4.343  -1.654   3.506  0.00  0.00    -0.026 A 
ATOM     20  C   LIG    1        3.832  -0.653   4.510  0.00  0.00    +0.046 C 
ENDBRANCH   6  12
BRANCH   1  21
ATOM     21  N   LIG    1        1.206   3.406   0.215  0.00  0.00    -0.315 N 
BRANCH  21  22
ATOM     22  C   LIG    1        0.703   3.525  -1.160  0.00  0.00    +0.103 C 
ATOM     23  C   LIG    1        1.817   3.161  -2.144  0.00  0.00    +0.024 C 
ENDBRANCH  21  22
BRANCH  21  24
ATOM     24  C   LIG    1        0.360   4.157   1.151  0.00  0.00    +0.106 C 
BRANCH  24  25
ATOM     25  C   LIG    1        0.590   5.657   0.956  0.00  0.00    +0.019 C 
BRANCH  25  27
ATOM     26  C   LIG    1        0.040   7.936   1.821  0.00  0.00    +0.004 C 
ATOM     27  C   LIG    1       -0.190   6.436   2.017  0.00  0.00    -0.002 C 
ENDBRANCH  25  27
ENDBRANCH  24  25
ENDBRANCH  21  24
ENDBRANCH   1  21
TORSDOF 6
