REMARK  Name = ZINC01576892
REMARK                            x       y       z     vdW  Elec       q    Type
REMARK                         _______ _______ _______ _____ _____    ______ ____
ROOT
ATOM      1  C   LIG    1        2.181  -4.537  -3.772  0.00  0.00    -0.006 A 
ATOM      2  C   LIG    1        1.451  -4.864  -4.899  0.00  0.00    +0.011 A 
ATOM      3  C   LIG    1        2.094  -5.309  -6.037  0.00  0.00    +0.046 A 
ATOM      4  C   LIG    1        3.477  -5.430  -6.052  0.00  0.00    +0.120 A 
ATOM      5  C   LIG    1        4.212  -5.103  -4.923  0.00  0.00    +0.091 A 
ATOM      6  C   LIG    1        3.564  -4.650  -3.784  0.00  0.00    +0.123 A 
ENDROOT
BRANCH   4   7
ATOM      7  O   LIG    1        4.110  -5.869  -7.171  0.00  0.00    -0.507 OA
ATOM      8  H   LIG    1        4.362  -5.163  -7.782  0.00  0.00    +0.292 HD
ENDBRANCH   4   7
BRANCH   6   9
ATOM      9  O   LIG    1        4.282  -4.323  -2.677  0.00  0.00    -0.506 OA
ATOM     10  H   LIG    1        4.424  -5.060  -2.068  0.00  0.00    +0.292 HD
ENDBRANCH   6   9
BRANCH   1  11
ATOM     11  C   LIG    1        1.476  -4.051  -2.532  0.00  0.00    +0.039 C 
BRANCH  11  12
ATOM     12  C   LIG    1        1.455  -2.521  -2.524  0.00  0.00    +0.005 C 
BRANCH  12  13
ATOM     13  C   LIG    1        0.739  -2.027  -1.265  0.00  0.00    +0.000 C 
BRANCH  13  14
ATOM     14  C   LIG    1        0.718  -0.497  -1.257  0.00  0.00    -0.000 C 
BRANCH  14  16
ATOM     15  C   LIG    1       -0.019   1.526   0.010  0.00  0.00    +0.004 C 
ATOM     16  C   LIG    1        0.002  -0.004   0.002  0.00  0.00    -0.003 C 
ENDBRANCH  14  16
ENDBRANCH  13  14
ENDBRANCH  12  13
ENDBRANCH  11  12
ENDBRANCH   1  11
TORSDOF 7
