REMARK  Name = ZINC01605730
REMARK                            x       y       z     vdW  Elec       q    Type
REMARK                         _______ _______ _______ _____ _____    ______ ____
ROOT
ATOM      1  CA  PHE A  1       -0.019   1.526   0.010  0.00  0.00    +0.017 C 
ENDROOT
BRANCH   1   4
ATOM      2  N   ALA A  2       -2.095   2.040  -1.232  0.00  0.00    -0.304 N 
ATOM      3  H   ALA A  2       -2.596   1.730  -0.461  0.00  0.00    +0.149 HD
ATOM      4  C   PHE A  1       -0.748   2.025  -1.210  0.00  0.00    +0.199 C 
ATOM      5  O   PHE A  1       -0.121   2.413  -2.174  0.00  0.00    -0.278 OA
BRANCH   2   7
ATOM      6  CB  ALA A  2       -2.933   4.048  -2.348  0.00  0.00    +0.040 C 
ATOM      7  CA  ALA A  2       -2.804   2.526  -2.418  0.00  0.00    +0.178 C 
BRANCH   7   8
ATOM      8  C   ALA A  2       -4.176   1.906  -2.472  0.00  0.00    +0.325 C 
ATOM      9  O   ALA A  2       -4.527   1.138  -1.608  0.00  0.00    -0.249 OA
BRANCH   8  10
ATOM     10  OXT ALA A  2       -5.010   2.208  -3.480  0.00  0.00    -0.479 OA
ATOM     11  HXT ALA A  2       -4.738   2.803  -4.151  0.00  0.00    +0.295 HD
ENDBRANCH   8  10
ENDBRANCH   7   8
ENDBRANCH   2   7
ENDBRANCH   1   4
BRANCH   1  12
ATOM     12  N   PHE A  1        1.368   2.023   0.021  0.00  0.00    +0.386 N 
ATOM     13  H1  PHE A  1        1.856   1.645   0.842  0.00  0.00    -0.089 HD
ATOM     14  H2  PHE A  1        1.374   3.041   0.070  0.00  0.00    -0.089 HD
ATOM     15  H3  PHE A  1        1.854   1.722  -0.822  0.00  0.00    -0.089 HD
ENDBRANCH   1  12
BRANCH   1  16
ATOM     16  CB  PHE A  1        0.002  -0.004   0.002  0.00  0.00    +0.028 C 
BRANCH  16  17
ATOM     17  CG  PHE A  1        0.622  -0.505   1.281  0.00  0.00    -0.048 A 
ATOM     18  CD2 PHE A  1        1.985  -0.723   1.350  0.00  0.00    +0.003 A 
ATOM     19  CE2 PHE A  1        2.554  -1.178   2.525  0.00  0.00    +0.000 A 
ATOM     20  CZ  PHE A  1        1.758  -1.425   3.628  0.00  0.00    +0.000 A 
ATOM     21  CE1 PHE A  1        0.394  -1.212   3.557  0.00  0.00    +0.000 A 
ATOM     22  CD1 PHE A  1       -0.174  -0.752   2.384  0.00  0.00    +0.003 A 
ENDBRANCH  16  17
ENDBRANCH   1  16
TORSDOF 7
