REMARK  Name = ZINC01456631
REMARK                            x       y       z     vdW  Elec       q    Type
REMARK                         _______ _______ _______ _____ _____    ______ ____
ROOT
ATOM      1  C   LIG    1        0.454   7.959   0.036  0.00  0.00    +0.002 A 
ATOM      2  C   LIG    1        1.842   7.932   0.023  0.00  0.00    +0.002 A 
ATOM      3  C   LIG    1        2.515   6.744   0.011  0.00  0.00    +0.030 A 
ATOM      4  C   LIG    1        1.804   5.539   0.013  0.00  0.00    +0.090 A 
ATOM      5  C   LIG    1        0.398   5.567   0.026  0.00  0.00    +0.067 A 
ATOM      6  N   LIG    1       -0.014   4.250   0.019  0.00  0.00    -0.337 N 
ATOM      7  C   LIG    1        1.114   3.474   0.010  0.00  0.00    +0.159 A 
ATOM      8  H   LIG    1       -0.959   3.923   0.019  0.00  0.00    +0.167 HD
ATOM      9  N   LIG    1        2.178   4.238   0.003  0.00  0.00    -0.226 NA
ATOM     10  C   LIG    1       -0.268   6.785   0.038  0.00  0.00    +0.028 A 
ENDROOT
BRANCH   7  11
ATOM     11  C   LIG    1        1.128   1.994   0.002  0.00  0.00    +0.124 A 
ATOM     12  C   LIG    1        2.343   1.306  -0.013  0.00  0.00    +0.142 A 
ATOM     13  N   LIG    1        2.349  -0.014  -0.021  0.00  0.00    -0.260 NA
ATOM     14  C   LIG    1        1.209  -0.683  -0.014  0.00  0.00    +0.130 A 
ATOM     15  C   LIG    1        0.002  -0.004   0.002  0.00  0.00    +0.131 A 
ATOM     16  N   LIG    1       -0.016   1.315   0.009  0.00  0.00    -0.249 NA
ENDBRANCH   7  11
TORSDOF 1
