REMARK  Name = ZINC01661760
REMARK                            x       y       z     vdW  Elec       q    Type
REMARK                         _______ _______ _______ _____ _____    ______ ____
ROOT
ATOM      1  C   LIG    1        1.621   1.811   2.494  0.00  0.00    +0.073 C 
ATOM      2  C   LIG    1        2.384   2.201   3.691  0.00  0.00    +0.012 A 
ATOM      3  C   LIG    1        3.601   2.848   3.888  0.00  0.00    +0.040 A 
ATOM      4  C   LIG    1        4.053   3.081   5.173  0.00  0.00    +0.118 A 
ATOM      5  C   LIG    1        3.297   2.678   6.262  0.00  0.00    +0.031 A 
ATOM      6  C   LIG    1        2.084   2.040   6.086  0.00  0.00    +0.026 A 
ATOM      7  C   LIG    1        1.604   1.793   4.798  0.00  0.00    +0.042 A 
ATOM      8  N   LIG    1        0.465   1.195   4.357  0.00  0.00    -0.281 N 
ATOM      9  H   LIG    1       -0.268   0.806   5.080  0.00  0.00    +0.155 HD
ATOM     10  C   LIG    1        0.390   1.161   3.040  0.00  0.00    +0.251 C 
ATOM     11  O   LIG    1       -0.521   0.684   2.384  0.00  0.00    -0.270 OA
ENDROOT
BRANCH   1  18
ATOM     12  C   LIG    1        2.583   2.368  -3.410  0.00  0.00    +0.001 A 
ATOM     13  C   LIG    1        3.750   2.978  -2.966  0.00  0.00    +0.002 A 
ATOM     14  C   LIG    1        4.011   3.100  -1.617  0.00  0.00    +0.026 A 
ATOM     15  C   LIG    1        3.103   2.611  -0.684  0.00  0.00    +0.051 A 
ATOM     16  C   LIG    1        1.919   1.992  -1.137  0.00  0.00    +0.042 A 
ATOM     17  C   LIG    1        1.180   1.590  -0.001  0.00  0.00    +0.150 A 
ATOM     18  C   LIG    1        1.966   1.999   1.167  0.00  0.00    +0.095 A 
ATOM     19  N   LIG    1        3.118   2.603   0.699  0.00  0.00    -0.351 N 
ATOM     20  H   LIG    1        3.969   3.040   1.242  0.00  0.00    +0.166 HD
ATOM     21  C   LIG    1        1.675   1.879  -2.517  0.00  0.00    +0.013 A 
BRANCH  17  22
ATOM     22  O   LIG    1       -0.011   0.963   0.007  0.00  0.00    -0.504 OA
ATOM     23  H   LIG    1       -0.431   0.745  -0.801  0.00  0.00    +0.292 HD
ENDBRANCH  17  22
ENDBRANCH   1  18
BRANCH   4  24
ATOM     24  S   LIG    1        5.596   3.892   5.427  0.00  0.00    +0.110 S 
ATOM     25  O   LIG    1        5.538   4.479   6.720  0.00  0.00    -0.142 OA
ATOM     26  O   LIG    1        5.852   4.654   4.256  0.00  0.00    -0.142 OA
BRANCH  24  27
ATOM     27  O   LIG    1        6.668   2.813   5.487  0.00  0.00    -0.250 OA
ATOM     28  H   LIG    1        6.742   2.383   4.620  0.00  0.00    +0.245 HD
ENDBRANCH  24  27
ENDBRANCH   4  24
TORSDOF 4
