REMARK  Name = ZINC01481744
REMARK                            x       y       z     vdW  Elec       q    Type
REMARK                         _______ _______ _______ _____ _____    ______ ____
ROOT
ATOM      1  C   LIG    1        6.214   6.647   0.032  0.00  0.00    +0.068 C 
ATOM      2  C   LIG    1        5.736   6.382  -1.398  0.00  0.00    +0.017 C 
ATOM      3  C   LIG    1        4.417   5.608  -1.354  0.00  0.00    -0.075 C 
ATOM      4  N   LIG    1        4.616   4.323  -0.638  0.00  0.00    +0.385 N 
ATOM      5  H   LIG    1        5.340   3.779  -1.122  0.00  0.00    -0.081 HD
ATOM      6  C   LIG    1        5.034   4.566   0.744  0.00  0.00    -0.035 C 
ATOM      7  C   LIG    1        5.178   3.257   1.475  0.00  0.00    -0.057 A 
ATOM      8  C   LIG    1        5.968   3.284   2.614  0.00  0.00    +0.002 A 
ATOM      9  C   LIG    1        6.179   2.133   3.338  0.00  0.00    +0.000 A 
ATOM     10  C   LIG    1        5.607   0.967   2.897  0.00  0.00    +0.004 A 
ATOM     11  C   LIG    1        4.810   0.922   1.746  0.00  0.00    -0.043 A 
ATOM     12  C   LIG    1        4.327  -0.471   1.451  0.00  0.00    +0.040 C 
ATOM     13  C   LIG    1        3.702  -0.690   0.102  0.00  0.00    +0.040 C 
ATOM     14  C   LIG    1        2.395   0.036   0.007  0.00  0.00    -0.043 A 
ATOM     15  C   LIG    1        1.207  -0.681   0.013  0.00  0.00    +0.004 A 
ATOM     16  C   LIG    1        0.002  -0.004   0.002  0.00  0.00    +0.000 A 
ATOM     17  C   LIG    1       -0.017   1.378   0.010  0.00  0.00    +0.000 A 
ATOM     18  C   LIG    1        1.172   2.085   0.002  0.00  0.00    +0.004 A 
ATOM     19  C   LIG    1        2.373   1.395  -0.026  0.00  0.00    -0.039 A 
ATOM     20  C   LIG    1        3.668   2.141  -0.145  0.00  0.00    +0.033 C 
ATOM     21  C   LIG    1        4.559   2.083   1.048  0.00  0.00    -0.037 A 
ATOM     22  C   LIG    1        3.365   3.559  -0.615  0.00  0.00    -0.065 C 
ATOM     23  C   LIG    1        6.370   5.311   0.764  0.00  0.00    +0.024 C 
ENDROOT
BRANCH   1  25
ATOM     24  C   LIG    1        7.402   8.703  -0.744  0.00  0.00    +0.013 C 
ATOM     25  C   LIG    1        7.560   7.373  -0.005  0.00  0.00    -0.009 C 
ATOM     26  C   LIG    1        8.036   7.638   1.425  0.00  0.00    +0.013 C 
ATOM     27  C   LIG    1        8.588   6.504  -0.732  0.00  0.00    +0.013 C 
ENDBRANCH   1  25
BRANCH   1  28
ATOM     28  O   LIG    1        5.253   7.456   0.715  0.00  0.00    -0.388 OA
ATOM     29  H   LIG    1        4.375   7.056   0.778  0.00  0.00    +0.210 HD
ENDBRANCH   1  28
TORSDOF 2
