REMARK  Name = ZINC01574819
REMARK                            x       y       z     vdW  Elec       q    Type
REMARK                         _______ _______ _______ _____ _____    ______ ____
ROOT
ATOM      1  C   LIG    1        0.404  -0.705  -1.130  0.00  0.00    +0.056 A 
ATOM      2  C   LIG    1        0.079  -0.001   0.027  0.00  0.00    +0.043 A 
ATOM      3  C   LIG    1       -0.318  -0.732   1.163  0.00  0.00    +0.129 A 
ATOM      4  N   LIG    1       -0.361  -2.057   1.089  0.00  0.00    -0.199 NA
ATOM      5  C   LIG    1       -0.037  -2.684  -0.032  0.00  0.00    +0.214 A 
ATOM      6  N   LIG    1        0.340  -2.026  -1.119  0.00  0.00    -0.219 NA
ENDROOT
BRANCH   2   7
ATOM      7  C   LIG    1        0.142   1.480   0.060  0.00  0.00    -0.011 A 
ATOM      8  C   LIG    1        1.375   2.129  -0.009  0.00  0.00    +0.010 A 
ATOM      9  C   LIG    1        1.437   3.508   0.020  0.00  0.00    +0.023 A 
ATOM     10  C   LIG    1        0.279   4.255   0.118  0.00  0.00    +0.068 A 
ATOM     11 CL   LIG    1        0.365   5.988   0.154  0.00  0.00    -0.081 Cl
ATOM     12  C   LIG    1       -0.962   3.617   0.189  0.00  0.00    +0.106 A 
ATOM     13  C   LIG    1       -1.029   2.226   0.154  0.00  0.00    +0.039 A 
BRANCH  12  14
ATOM     14  N   LIG    1       -2.112   4.359   0.286  0.00  0.00    -0.132 NA
ATOM     15  N   LIG    1       -3.257   3.768   0.352  0.00  0.00    -0.079 NA
BRANCH  15  16
ATOM     16  N   LIG    1       -4.432   4.526   0.451  0.00  0.00    -0.243 N 
ATOM     17  C   LIG    1       -5.732   3.855   0.525  0.00  0.00    +0.153 C 
ATOM     18  C   LIG    1       -4.360   5.989   0.481  0.00  0.00    +0.153 C 
ENDBRANCH  15  16
ENDBRANCH  12  14
ENDBRANCH   2   7
BRANCH   3  19
ATOM     19  N   LIG    1       -0.657  -0.081   2.335  0.00  0.00    -0.343 N 
ATOM     20  H   LIG    1       -0.929  -0.593   3.113  0.00  0.00    +0.144 HD
ATOM     21  H   LIG    1       -0.623   0.888   2.380  0.00  0.00    +0.144 HD
ENDBRANCH   3  19
BRANCH   5  22
ATOM     22  N   LIG    1       -0.094  -4.066  -0.069  0.00  0.00    -0.327 N 
ATOM     23  H   LIG    1        0.140  -4.539  -0.883  0.00  0.00    +0.145 HD
ATOM     24  H   LIG    1       -0.368  -4.561   0.719  0.00  0.00    +0.145 HD
ENDBRANCH   5  22
BRANCH   1  26
ATOM     25  C   LIG    1       -0.406   0.372  -3.212  0.00  0.00    +0.010 C 
ATOM     26  C   LIG    1        0.829   0.029  -2.376  0.00  0.00    +0.053 C 
ENDBRANCH   1  26
TORSDOF 6
