REMARK  Name = ZINC01532525
REMARK                            x       y       z     vdW  Elec       q    Type
REMARK                         _______ _______ _______ _____ _____    ______ ____
ROOT
ATOM      1  CG  ARG A  1       -0.019   1.526   0.010  0.00  0.00    +0.036 C 
ENDROOT
BRANCH   1   2
ATOM      2  CD  ARG A  1        1.417   2.055  -0.000  0.00  0.00    +0.195 C 
BRANCH   2   3
ATOM      3  NE  ARG A  1        1.397   3.520   0.008  0.00  0.00    -0.279 N 
ATOM      4  HE  ARG A  1        0.550   3.994   0.018  0.00  0.00    +0.258 HD
BRANCH   3   5
ATOM      5  CZ  ARG A  1        2.572   4.220   0.000  0.00  0.00    +0.341 C 
ATOM      6  NH1 ARG A  1        2.554   5.552   0.007  0.00  0.00    -0.292 N 
ATOM      7 HH11 ARG A  1        3.387   6.048   0.002  0.00  0.00    +0.255 HD
ATOM      8 HH12 ARG A  1        1.707   6.026   0.018  0.00  0.00    +0.255 HD
BRANCH   5   9
ATOM      9  NH2 ARG A  1        3.734   3.570  -0.014  0.00  0.00    -0.292 N 
ATOM     10 HH21 ARG A  1        4.568   4.066  -0.020  0.00  0.00    +0.255 HD
ATOM     11 HH22 ARG A  1        3.748   2.600  -0.020  0.00  0.00    +0.255 HD
ENDBRANCH   5   9
ENDBRANCH   3   5
ENDBRANCH   2   3
ENDBRANCH   1   2
BRANCH   1  12
ATOM     12  CB  ARG A  1        0.002  -0.004   0.002  0.00  0.00    -0.002 C 
BRANCH  12  13
ATOM     13  CA  ARG A  1       -1.433  -0.534   0.013  0.00  0.00    +0.036 C 
BRANCH  13  14
ATOM     14  N   ARG A  1       -2.083  -0.161   1.276  0.00  0.00    +0.387 N 
ATOM     15  H1  ARG A  1       -1.571  -0.560   2.049  0.00  0.00    -0.089 HD
ATOM     16  H2  ARG A  1       -3.030  -0.510   1.284  0.00  0.00    -0.089 HD
ATOM     17  H3  ARG A  1       -2.095   0.844   1.365  0.00  0.00    -0.089 HD
ENDBRANCH  13  14
BRANCH  13  18
ATOM     18  C   ARG A  1       -1.416  -2.035  -0.119  0.00  0.00    +0.290 C 
ATOM     19  O   ARG A  1       -1.367  -2.734   0.878  0.00  0.00    -0.253 OA
BRANCH  18  20
ATOM     20  OXT ARG A  1       -1.451  -2.550  -1.224  0.00  0.00    -0.482 OA
ATOM     21  HXT ARG A  1       -1.488  -2.013  -1.990  0.00  0.00    +0.295 HD
ENDBRANCH  18  20
ENDBRANCH  13  18
ENDBRANCH  12  13
ENDBRANCH   1  12
TORSDOF 9
