REMARK  Name = ZINC01482603
REMARK                            x       y       z     vdW  Elec       q    Type
REMARK                         _______ _______ _______ _____ _____    ______ ____
ROOT
ATOM      1  C   LIG    1       -0.018   1.503   0.010  0.00  0.00    +0.024 C 
ATOM      2  C   LIG    1        0.002  -0.004   0.002  0.00  0.00    +0.056 C 
ATOM      3  C   LIG    1        0.005  -0.673  -1.215  0.00  0.00    +0.028 C 
ATOM      4  C   LIG    1        0.024  -2.054  -1.248  0.00  0.00    +0.083 C 
ATOM      5  N   LIG    1        0.025  -2.544  -2.541  0.00  0.00    -0.323 N 
ATOM      6  C   LIG    1        0.005  -1.435  -3.501  0.00  0.00    +0.106 C 
ATOM      7  C   LIG    1        0.040  -2.737  -0.003  0.00  0.00    +0.029 C 
ATOM      8  C   LIG    1        0.059  -4.138   0.054  0.00  0.00    +0.007 C 
ATOM      9  C   LIG    1        0.074  -4.764   1.264  0.00  0.00    +0.003 C 
ATOM     10  C   LIG    1        0.070  -4.031   2.448  0.00  0.00    +0.033 C 
ATOM     11  C   LIG    1        0.051  -2.666   2.429  0.00  0.00    +0.135 C 
ATOM     12  C   LIG    1        0.035  -1.985   1.194  0.00  0.00    +0.087 C 
ATOM     13  C   LIG    1       -0.008  -0.162  -2.638  0.00  0.00    +0.026 C 
ATOM     14  N   LIG    1        0.022  -0.648   1.145  0.00  0.00    -0.308 NA
ATOM     15  H   LIG    1        0.023  -0.144   1.974  0.00  0.00    +0.123 HD
ENDROOT
BRANCH   5  16
ATOM     16  C   LIG    1        0.042  -3.901  -2.884  0.00  0.00    +0.072 A 
ATOM     17  C   LIG    1       -1.150  -4.590  -3.054  0.00  0.00    +0.027 A 
ATOM     18  C   LIG    1       -1.130  -5.930  -3.393  0.00  0.00    +0.002 A 
ATOM     19  C   LIG    1        0.075  -6.586  -3.563  0.00  0.00    +0.004 A 
ATOM     20  C   LIG    1        1.267  -5.905  -3.395  0.00  0.00    +0.047 A 
ATOM     21  C   LIG    1        1.256  -4.561  -3.061  0.00  0.00    +0.141 A 
BRANCH  21  22
ATOM     22  O   LIG    1        2.428  -3.889  -2.900  0.00  0.00    -0.493 OA
ATOM     23  C   LIG    1        3.633  -4.630  -3.097  0.00  0.00    +0.277 C 
ENDBRANCH  21  22
ENDBRANCH   5  16
BRANCH  11  24
ATOM     24  O   LIG    1        0.047  -1.967   3.595  0.00  0.00    -0.378 OA
ATOM     25  C   LIG    1        0.064  -2.725   4.806  0.00  0.00    +0.194 C 
ENDBRANCH  11  24
TORSDOF 3
