REMARK  Name = ZINC01530571
REMARK                            x       y       z     vdW  Elec       q    Type
REMARK                         _______ _______ _______ _____ _____    ______ ____
ROOT
ATOM      1  C   LIG    1        6.976  -3.952  -1.711  0.00  0.00    +0.017 C 
ENDROOT
BRANCH   1   2
ATOM      2  C   LIG    1        6.706  -2.480  -2.030  0.00  0.00    +0.084 C 
BRANCH   2   6
ATOM      3  N   LIG    1        3.502  -0.645  -0.035  0.00  0.00    -0.297 N 
ATOM      4  C   LIG    1        4.786   0.072  -0.037  0.00  0.00    +0.123 C 
ATOM      5  C   LIG    1        5.647  -0.475  -1.181  0.00  0.00    +0.103 C 
ATOM      6  N   LIG    1        5.751  -1.935  -1.056  0.00  0.00    -0.299 NA
ATOM      7  C   LIG    1        4.437  -2.576  -1.192  0.00  0.00    +0.103 C 
ATOM      8  C   LIG    1        3.526  -2.116  -0.043  0.00  0.00    +0.123 C 
BRANCH   3  12
ATOM      9  C   LIG    1       -0.017   1.382   0.010  0.00  0.00    +0.039 A 
ATOM     10  C   LIG    1        1.192   2.061   0.002  0.00  0.00    +0.116 A 
ATOM     11  N   LIG    1        2.320   1.371  -0.013  0.00  0.00    -0.223 NA
ATOM     12  C   LIG    1        2.303   0.046  -0.020  0.00  0.00    +0.218 A 
ATOM     13  N   LIG    1        1.165  -0.633  -0.013  0.00  0.00    -0.223 NA
ATOM     14  C   LIG    1        0.002  -0.004   0.002  0.00  0.00    +0.116 A 
ENDBRANCH   3  12
ENDBRANCH   2   6
ENDBRANCH   1   2
BRANCH   1  15
ATOM     15  C   LIG    1        7.971  -4.519  -2.726  0.00  0.00    +0.021 C 
BRANCH  15  16
ATOM     16  C   LIG    1        8.241  -5.991  -2.407  0.00  0.00    +0.116 C 
BRANCH  16  17
ATOM     17  N   LIG    1        9.194  -6.535  -3.378  0.00  0.00    -0.242 N 
ATOM     18  C   LIG    1        8.718  -7.083  -4.506  0.00  0.00    +0.222 C 
ATOM     19  C   LIG    1        9.641  -7.676  -5.537  0.00  0.00    +0.103 C 
ATOM     20  C   LIG    1       10.990  -6.961  -5.475  0.00  0.00    -0.013 C 
ATOM     21  C   LIG    1       11.535  -7.018  -4.049  0.00  0.00    +0.103 C 
ATOM     22  C   LIG    1       11.982  -7.615  -6.447  0.00  0.00    +0.008 C 
ATOM     23  C   LIG    1       12.392  -6.521  -7.455  0.00  0.00    +0.001 C 
ATOM     24  C   LIG    1       12.128  -5.192  -6.703  0.00  0.00    +0.001 C 
ATOM     25  C   LIG    1       10.828  -5.496  -5.916  0.00  0.00    +0.008 C 
ATOM     26  O   LIG    1        7.521  -7.102  -4.698  0.00  0.00    -0.275 OA
ATOM     27  C   LIG    1       10.504  -6.457  -3.104  0.00  0.00    +0.222 C 
ATOM     28  O   LIG    1       10.866  -5.930  -2.074  0.00  0.00    -0.275 OA
ENDBRANCH  16  17
ENDBRANCH  15  16
ENDBRANCH   1  15
TORSDOF 6
