REMARK  Name = ZINC01660211
REMARK                            x       y       z     vdW  Elec       q    Type
REMARK                         _______ _______ _______ _____ _____    ______ ____
ROOT
ATOM      1  C   LIG    1       -0.100   8.133  -0.511  0.00  0.00    +0.132 C 
ATOM      2  N   LIG    1       -0.101   7.186  -1.629  0.00  0.00    -0.306 N 
ATOM      3  C   LIG    1       -0.084   5.860  -1.389  0.00  0.00    +0.220 C 
ATOM      4  O   LIG    1       -0.085   5.076  -2.315  0.00  0.00    -0.275 OA
ENDROOT
BRANCH   3   5
ATOM      5  C   LIG    1       -0.065   5.351   0.029  0.00  0.00    +0.131 C 
BRANCH   5   6
ATOM      6  C   LIG    1       -0.049   3.844   0.022  0.00  0.00    -0.035 A 
ATOM      7  C   LIG    1        1.156   3.166   0.007  0.00  0.00    +0.004 A 
ATOM      8  C   LIG    1        1.174   1.783   0.000  0.00  0.00    +0.004 A 
ATOM      9  C   LIG    1       -0.013   1.076   0.008  0.00  0.00    +0.045 A 
ATOM     10  C   LIG    1       -1.223   1.754   0.017  0.00  0.00    +0.120 A 
ATOM     11  C   LIG    1       -1.238   3.141   0.030  0.00  0.00    +0.049 A 
BRANCH  10  12
ATOM     12  O   LIG    1       -2.391   1.060   0.019  0.00  0.00    -0.495 OA
ATOM     13  C   LIG    1       -2.299  -0.366   0.011  0.00  0.00    +0.277 C 
ENDBRANCH  10  12
ENDBRANCH   5   6
ENDBRANCH   3   5
BRANCH   2  14
ATOM     14  C   LIG    1       -0.119   7.681  -3.008  0.00  0.00    +0.089 C 
BRANCH  14  15
ATOM     15  C   LIG    1       -1.568   7.837  -3.474  0.00  0.00    -0.060 C 
BRANCH  15  16
ATOM     16  N   LIG    1       -1.592   8.331  -4.884  0.00  0.00    +0.381 N 
ATOM     17  H   LIG    1       -1.251   9.300  -4.907  0.00  0.00    -0.082 HD
ATOM     18  C   LIG    1       -2.951   8.272  -5.424  0.00  0.00    -0.079 C 
ATOM     19  C   LIG    1       -2.803   7.949  -6.922  0.00  0.00    -0.020 C 
ATOM     20  C   LIG    1       -1.282   7.802  -7.156  0.00  0.00    -0.020 C 
ATOM     21  C   LIG    1       -0.743   7.485  -5.738  0.00  0.00    -0.079 C 
ENDBRANCH  15  16
ENDBRANCH  14  15
ENDBRANCH   2  14
TORSDOF 6
