REMARK  Name = ZINC01549989
REMARK                            x       y       z     vdW  Elec       q    Type
REMARK                         _______ _______ _______ _____ _____    ______ ____
ROOT
ATOM      1  C   LIG    1        1.993  -6.447  -0.049  0.00  0.00    +0.023 A 
ATOM      2  C   LIG    1        2.078  -7.305  -1.101  0.00  0.00    +0.050 A 
ATOM      3  C   LIG    1        2.007  -6.779  -2.511  0.00  0.00    +0.066 C 
ATOM      4  N   LIG    1        2.221  -8.592  -0.885  0.00  0.00    -0.244 NA
ATOM      5  C   LIG    1        2.285  -9.081   0.345  0.00  0.00    +0.109 A 
ATOM      6  S   LIG    1        2.139  -7.589   1.320  0.00  0.00    -0.071 S 
ENDROOT
BRANCH   5   7
ATOM      7  C   LIG    1        2.443 -10.482   0.791  0.00  0.00    +0.007 A 
ATOM      8  C   LIG    1        2.495 -10.781   2.153  0.00  0.00    +0.011 A 
ATOM      9  C   LIG    1        2.638 -12.091   2.563  0.00  0.00    +0.013 A 
ATOM     10  C   LIG    1        2.740 -13.105   1.627  0.00  0.00    +0.055 A 
ATOM     11  C   LIG    1        2.695 -12.813   0.275  0.00  0.00    +0.013 A 
ATOM     12  C   LIG    1        2.547 -11.508  -0.148  0.00  0.00    +0.011 A 
BRANCH  10  13
ATOM     13  C   LIG    1        2.902 -14.532   2.082  0.00  0.00    +0.417 C 
ATOM     14  F   LIG    1        2.324 -15.390   1.140  0.00  0.00    -0.166 F 
ATOM     15  F   LIG    1        2.269 -14.703   3.318  0.00  0.00    -0.166 F 
ATOM     16  F   LIG    1        4.263 -14.829   2.210  0.00  0.00    -0.166 F 
ENDBRANCH  10  13
ENDBRANCH   5   7
BRANCH   1  17
ATOM     17  C   LIG    1        1.829  -4.949  -0.040  0.00  0.00    +0.118 C 
BRANCH  17  18
ATOM     18  S   LIG    1        0.064  -4.535  -0.021  0.00  0.00    -0.120 S 
BRANCH  18  22
ATOM     19  C   LIG    1       -2.504   0.023   0.038  0.00  0.00    +0.047 C 
ATOM     20  C   LIG    1       -1.190  -0.713   0.015  0.00  0.00    -0.008 A 
ATOM     21  C   LIG    1       -1.172  -2.094   0.003  0.00  0.00    +0.021 A 
ATOM     22  C   LIG    1        0.040  -2.773  -0.012  0.00  0.00    +0.009 A 
ATOM     23  C   LIG    1        1.233  -2.061  -0.020  0.00  0.00    +0.018 A 
ATOM     24  C   LIG    1        1.213  -0.681  -0.013  0.00  0.00    +0.047 A 
ATOM     25  C   LIG    1        0.002  -0.004   0.002  0.00  0.00    +0.124 A 
BRANCH  25  26
ATOM     26  O   LIG    1       -0.016   1.356   0.009  0.00  0.00    -0.481 OA
BRANCH  26  27
ATOM     27  C   LIG    1        1.248   2.022   0.001  0.00  0.00    +0.349 C 
BRANCH  27  28
ATOM     28  C   LIG    1        1.030   3.513   0.011  0.00  0.00    +0.343 C 
ATOM     29  O   LIG    1       -0.092   3.960   0.024  0.00  0.00    -0.247 OA
BRANCH  28  30
ATOM     30  O   LIG    1        2.083   4.345   0.005  0.00  0.00    -0.478 OA
ATOM     31  H   LIG    1        2.954   3.999  -0.005  0.00  0.00    +0.295 HD
ENDBRANCH  28  30
ENDBRANCH  27  28
ENDBRANCH  26  27
ENDBRANCH  25  26
ENDBRANCH  18  22
ENDBRANCH  17  18
ENDBRANCH   1  17
TORSDOF 9
