REMARK  Name = ZINC01538600
REMARK                            x       y       z     vdW  Elec       q    Type
REMARK                         _______ _______ _______ _____ _____    ______ ____
ROOT
ATOM      1  C   LIG    1        4.581   1.904  -1.196  0.00  0.00    -0.018 A 
ATOM      2  C   LIG    1        4.198   2.427  -2.430  0.00  0.00    +0.009 A 
ATOM      3  C   LIG    1        5.037   2.305  -3.519  0.00  0.00    +0.004 A 
ATOM      4  C   LIG    1        6.257   1.665  -3.387  0.00  0.00    -0.046 A 
ATOM      5  C   LIG    1        6.642   1.145  -2.164  0.00  0.00    +0.004 A 
ATOM      6  C   LIG    1        5.813   1.266  -1.068  0.00  0.00    +0.009 A 
ENDROOT
BRANCH   1   7
ATOM      7  C   LIG    1        3.683   2.032  -0.023  0.00  0.00    -0.013 C 
ATOM      8  C   LIG    1        4.056   2.772   1.028  0.00  0.00    -0.018 C 
BRANCH   7  11
ATOM      9  C   LIG    1       -0.017   1.379   0.010  0.00  0.00    +0.020 A 
ATOM     10  C   LIG    1        1.181   2.072   0.002  0.00  0.00    +0.011 A 
ATOM     11  C   LIG    1        2.372   1.339  -0.013  0.00  0.00    +0.000 A 
ATOM     12  C   LIG    1        2.306  -0.053  -0.020  0.00  0.00    +0.119 A 
ATOM     13  N   LIG    1        1.141  -0.669  -0.013  0.00  0.00    -0.263 NA
ATOM     14  C   LIG    1        0.002  -0.004   0.002  0.00  0.00    +0.111 A 
ENDBRANCH   7  11
BRANCH   8  15
ATOM     15  C   LIG    1        5.389   3.476   1.018  0.00  0.00    +0.028 C 
BRANCH  15  16
ATOM     16  C   LIG    1        5.179   4.969   1.278  0.00  0.00    +0.015 C 
BRANCH  16  17
ATOM     17  C   LIG    1        6.532   5.683   1.269  0.00  0.00    +0.121 C 
BRANCH  17  18
ATOM     18  C   LIG    1        6.325   7.154   1.525  0.00  0.00    +0.305 C 
ATOM     19  O   LIG    1        5.200   7.590   1.699  0.00  0.00    -0.251 OA
BRANCH  18  20
ATOM     20  O   LIG    1        7.283   7.907   1.558  0.00  0.00    -0.481 OA
ATOM     21  H   LIG    1        8.148   7.572   1.424  0.00  0.00    +0.295 HD
ENDBRANCH  18  20
ENDBRANCH  17  18
ENDBRANCH  16  17
ENDBRANCH  15  16
ENDBRANCH   8  15
ENDBRANCH   1   7
BRANCH   4  22
ATOM     22  C   LIG    1        7.169   1.535  -4.579  0.00  0.00    +0.052 C 
BRANCH  22  23
ATOM     23  C   LIG    1        8.100   2.747  -4.644  0.00  0.00    +0.110 C 
BRANCH  23  24
ATOM     24  N   LIG    1        8.986   2.620  -5.804  0.00  0.00    -0.190 NA
ATOM     25  H   LIG    1        9.075   1.766  -6.255  0.00  0.00    +0.148 HD
BRANCH  24  26
ATOM     26  S   LIG    1        9.836   3.935  -6.344  0.00  0.00    +0.058 S 
ATOM     27  O   LIG    1        8.907   5.005  -6.447  0.00  0.00    -0.153 OA
ATOM     28  O   LIG    1       10.613   3.491  -7.447  0.00  0.00    -0.153 OA
BRANCH  26  29
ATOM     29  C   LIG    1       10.974   4.377  -5.073  0.00  0.00    +0.105 A 
ATOM     30  C   LIG    1       10.598   5.274  -4.090  0.00  0.00    +0.030 A 
ATOM     31  C   LIG    1       11.490   5.622  -3.093  0.00  0.00    +0.022 A 
ATOM     32  C   LIG    1       12.759   5.071  -3.078  0.00  0.00    +0.041 A 
ATOM     33 CL   LIG    1       13.880   5.507  -1.827  0.00  0.00    -0.084 Cl
ATOM     34  C   LIG    1       13.135   4.173  -4.062  0.00  0.00    +0.022 A 
ATOM     35  C   LIG    1       12.240   3.823  -5.055  0.00  0.00    +0.030 A 
ENDBRANCH  26  29
ENDBRANCH  24  26
ENDBRANCH  23  24
ENDBRANCH  22  23
ENDBRANCH   4  22
TORSDOF 12
