REMARK  Name = ZINC01621399
REMARK                            x       y       z     vdW  Elec       q    Type
REMARK                         _______ _______ _______ _____ _____    ______ ____
ROOT
ATOM      1  C   LIG    1        1.169   3.570   0.010  0.00  0.00    +0.025 A 
ATOM      2  C   LIG    1        0.379   4.267  -0.902  0.00  0.00    +0.027 A 
ATOM      3  C   LIG    1        0.370   5.647  -0.891  0.00  0.00    +0.019 A 
ATOM      4 BR   LIG    1       -0.702   6.593  -2.130  0.00  0.00    -0.050 Br
ATOM      5  C   LIG    1        1.142   6.342   0.024  0.00  0.00    +0.019 A 
ATOM      6  C   LIG    1        1.929   5.660   0.933  0.00  0.00    +0.047 A 
ATOM      7  C   LIG    1        1.943   4.274   0.936  0.00  0.00    +0.129 A 
ENDROOT
BRANCH   1  11
ATOM      8  C   LIG    1        1.208  -0.682  -0.013  0.00  0.00    +0.000 A 
ATOM      9  C   LIG    1        0.002  -0.004   0.002  0.00  0.00    +0.001 A 
ATOM     10  C   LIG    1       -0.017   1.376   0.010  0.00  0.00    +0.008 A 
ATOM     11  C   LIG    1        1.182   2.086   0.002  0.00  0.00    -0.014 A 
ATOM     12  C   LIG    1        2.394   1.398  -0.013  0.00  0.00    +0.008 A 
ATOM     13  C   LIG    1        2.401   0.018  -0.021  0.00  0.00    +0.001 A 
ENDBRANCH   1  11
BRANCH   7  14
ATOM     14  O   LIG    1        2.712   3.603   1.832  0.00  0.00    -0.480 OA
BRANCH  14  15
ATOM     15  C   LIG    1        3.477   4.388   2.748  0.00  0.00    +0.349 C 
BRANCH  15  16
ATOM     16  C   LIG    1        4.261   3.478   3.658  0.00  0.00    +0.343 C 
ATOM     17  O   LIG    1        4.173   2.280   3.535  0.00  0.00    -0.247 OA
BRANCH  16  18
ATOM     18  O   LIG    1        5.056   3.999   4.606  0.00  0.00    -0.478 OA
ATOM     19  H   LIG    1        5.124   4.929   4.701  0.00  0.00    +0.295 HD
ENDBRANCH  16  18
ENDBRANCH  15  16
ENDBRANCH  14  15
ENDBRANCH   7  14
TORSDOF 5
