REMARK  Name = ZINC01530804
REMARK                            x       y       z     vdW  Elec       q    Type
REMARK                         _______ _______ _______ _____ _____    ______ ____
ROOT
ATOM      1  C   LIG    1       -0.141   1.178   1.103  0.00  0.00    +0.074 C 
ATOM      2  C   LIG    1       -0.005  -0.341   0.979  0.00  0.00    +0.166 C 
ATOM      3  C   LIG    1       -1.356  -1.003   1.257  0.00  0.00    +0.074 C 
ATOM      4  O   LIG    1        0.434  -0.681  -0.352  0.00  0.00    -0.341 OA
ATOM      5  C   LIG    1        1.859  -0.825  -0.219  0.00  0.00    +0.179 C 
ATOM      6  C   LIG    1        2.467  -1.656  -1.328  0.00  0.00    +0.197 C 
ATOM      7  O   LIG    1        1.913  -2.970  -1.315  0.00  0.00    -0.342 OA
ATOM      8  C   LIG    1        2.131  -3.695  -0.127  0.00  0.00    +0.228 C 
ATOM      9  C   LIG    1        1.589  -2.975   1.117  0.00  0.00    +0.214 C 
ATOM     10  O   LIG    1        2.325  -3.631   2.183  0.00  0.00    -0.338 OA
ATOM     11  C   LIG    1        3.531  -4.148   1.601  0.00  0.00    +0.169 C 
ATOM     12  C   LIG    1        3.596  -5.662   1.812  0.00  0.00    +0.074 C 
ATOM     13  C   LIG    1        4.744  -3.487   2.257  0.00  0.00    +0.074 C 
ATOM     14  O   LIG    1        3.525  -3.856   0.189  0.00  0.00    -0.313 OA
ATOM     15  C   LIG    1        1.997  -1.500   1.155  0.00  0.00    +0.187 C 
ATOM     16  O   LIG    1        0.968  -0.816   1.921  0.00  0.00    -0.341 OA
ENDROOT
BRANCH   8  17
ATOM     17  C   LIG    1        1.468  -5.070  -0.236  0.00  0.00    +0.262 C 
BRANCH  17  18
ATOM     18  O   LIG    1        2.139  -5.845  -1.232  0.00  0.00    -0.220 OA
BRANCH  18  19
ATOM     19  S   LIG    1        1.560  -7.239  -1.425  0.00  0.00    +0.149 S 
ATOM     20  O   LIG    1        1.214  -7.718  -0.133  0.00  0.00    -0.130 OA
ATOM     21  O   LIG    1        2.455  -7.935  -2.281  0.00  0.00    -0.130 OA
BRANCH  19  22
ATOM     22  N   LIG    1        0.141  -7.067  -2.263  0.00  0.00    -0.183 NA
ATOM     23  H   LIG    1        0.372  -6.604  -3.142  0.00  0.00    +0.146 HD
ATOM     24  H   LIG    1       -0.386  -7.849  -2.488  0.00  0.00    +0.146 HD
ENDBRANCH  19  22
ENDBRANCH  18  19
ENDBRANCH  17  18
ENDBRANCH   8  17
TORSDOF 4
