REMARK  Name = ZINC01532176
REMARK                            x       y       z     vdW  Elec       q    Type
REMARK                         _______ _______ _______ _____ _____    ______ ____
ROOT
ATOM      1  S   LIG    1        0.023  -2.331  -1.178  0.00  0.00    -0.027 S 
ENDROOT
BRANCH   1   2
ATOM      2  C   LIG    1        0.000  -0.672  -1.169  0.00  0.00    +0.120 C 
ATOM      3  S   LIG    1       -0.026   0.192  -2.647  0.00  0.00    -0.027 S 
BRANCH   2   5
ATOM      4  C   LIG    1       -0.018   1.461   0.010  0.00  0.00    +0.130 C 
ATOM      5  N   LIG    1        0.002  -0.004   0.002  0.00  0.00    -0.325 N 
ATOM      6  C   LIG    1        0.024  -0.743   1.267  0.00  0.00    +0.130 C 
ENDBRANCH   2   5
ENDBRANCH   1   2
BRANCH   1   7
ATOM      7  S   LIG    1        0.010  -2.817  -3.170  0.00  0.00    -0.027 S 
BRANCH   7   8
ATOM      8  C   LIG    1        1.610  -2.753  -3.608  0.00  0.00    +0.120 C 
ATOM      9  S   LIG    1        2.800  -2.345  -2.447  0.00  0.00    -0.027 S 
BRANCH   8  10
ATOM     10  N   LIG    1        1.972  -3.024  -4.878  0.00  0.00    -0.325 N 
ATOM     11  C   LIG    1        0.953  -3.373  -5.871  0.00  0.00    +0.130 C 
ATOM     12  C   LIG    1        3.384  -2.968  -5.265  0.00  0.00    +0.130 C 
ENDBRANCH   8  10
ENDBRANCH   7   8
ENDBRANCH   1   7
TORSDOF 5
