REMARK  Name = ZINC01593117
REMARK                            x       y       z     vdW  Elec       q    Type
REMARK                         _______ _______ _______ _____ _____    ______ ____
ROOT
ATOM      1  C   LIG    1       -0.049   5.331   0.028  0.00  0.00    +0.132 C 
ATOM      2  C   LIG    1       -1.217   6.028   0.043  0.00  0.00    +0.101 C 
ATOM      3  C   LIG    1       -2.461   5.380   0.052  0.00  0.00    +0.229 C 
ATOM      4  C   LIG    1       -2.517   3.884   0.045  0.00  0.00    +0.233 C 
ATOM      5  C   LIG    1       -1.241   3.138   0.030  0.00  0.00    +0.036 A 
ATOM      6  C   LIG    1       -1.225   1.749   0.017  0.00  0.00    +0.012 A 
ATOM      7  C   LIG    1       -0.013   1.076   0.008  0.00  0.00    +0.001 A 
ATOM      8  C   LIG    1        1.177   1.779   0.000  0.00  0.00    +0.001 A 
ATOM      9  C   LIG    1        1.177   3.165   0.007  0.00  0.00    +0.012 A 
ATOM     10  O   LIG    1       -3.580   3.300   0.053  0.00  0.00    -0.283 OA
ATOM     11  O   LIG    1       -3.489   6.031   0.064  0.00  0.00    -0.284 OA
ATOM     12  C   LIG    1       -0.030   3.858   0.022  0.00  0.00    +0.028 A 
ENDROOT
BRANCH   1  13
ATOM     13  O   LIG    1        1.121   6.006   0.021  0.00  0.00    -0.492 OA
BRANCH  13  15
ATOM     14  C   LIG    1        2.462   8.017   0.018  0.00  0.00    +0.048 C 
ATOM     15  C   LIG    1        1.047   7.433   0.028  0.00  0.00    +0.226 C 
ENDBRANCH  13  15
ENDBRANCH   1  13
TORSDOF 2
