REMARK  Name = ZINC01656970
REMARK                            x       y       z     vdW  Elec       q    Type
REMARK                         _______ _______ _______ _____ _____    ______ ____
ROOT
ATOM      1  C   LIG    1        3.695   5.420  -4.263  0.00  0.00    +0.001 A 
ATOM      2  C   LIG    1        2.949   4.858  -3.234  0.00  0.00    +0.001 A 
ATOM      3  C   LIG    1        2.523   5.620  -2.183  0.00  0.00    +0.009 A 
ATOM      4  C   LIG    1        2.839   6.980  -2.141  0.00  0.00    -0.010 A 
ATOM      5  C   LIG    1        3.596   7.554  -3.185  0.00  0.00    -0.017 A 
ATOM      6  C   LIG    1        3.930   8.974  -3.148  0.00  0.00    +0.009 A 
ATOM      7  C   LIG    1        3.516   9.756  -2.131  0.00  0.00    +0.009 A 
ATOM      8  C   LIG    1        2.735   9.202  -1.027  0.00  0.00    -0.016 A 
ATOM      9  C   LIG    1        2.329  10.022   0.024  0.00  0.00    +0.017 A 
ATOM     10  C   LIG    1        1.582   9.492   1.081  0.00  0.00    -0.017 A 
ATOM     11  C   LIG    1        1.166  10.310   2.150  0.00  0.00    +0.008 A 
ATOM     12  C   LIG    1        0.441   9.774   3.167  0.00  0.00    +0.001 A 
ATOM     13  C   LIG    1        0.099   8.422   3.171  0.00  0.00    +0.001 A 
ATOM     14  C   LIG    1        0.483   7.600   2.156  0.00  0.00    +0.009 A 
ATOM     15  C   LIG    1        1.233   8.116   1.087  0.00  0.00    -0.009 A 
ATOM     16  C   LIG    1        1.643   7.282   0.022  0.00  0.00    +0.005 A 
ATOM     17  C   LIG    1        2.396   7.825  -1.027  0.00  0.00    -0.001 A 
ATOM     18  C   LIG    1        4.019   6.746  -4.248  0.00  0.00    +0.008 A 
ENDROOT
BRANCH  16  19
ATOM     19  C   LIG    1        1.287   5.854   0.019  0.00  0.00    +0.022 A 
ATOM     20  C   LIG    1        1.945   4.816   0.599  0.00  0.00    +0.024 A 
ATOM     21  C   LIG    1        1.437   3.508   0.480  0.00  0.00    -0.010 A 
ATOM     22  C   LIG    1        1.973   2.306   1.009  0.00  0.00    +0.009 A 
ATOM     23  C   LIG    1        1.348   1.117   0.804  0.00  0.00    +0.001 A 
ATOM     24  C   LIG    1        0.175   1.029   0.066  0.00  0.00    +0.001 A 
ATOM     25  C   LIG    1       -0.381   2.176  -0.467  0.00  0.00    +0.015 A 
ATOM     26  C   LIG    1        0.239   3.389  -0.262  0.00  0.00    +0.020 A 
ATOM     27  S   LIG    1       -0.115   5.059  -0.748  0.00  0.00    -0.088 S 
ENDBRANCH  16  19
TORSDOF 1
