REMARK  Name = ZINC01530637
REMARK                            x       y       z     vdW  Elec       q    Type
REMARK                         _______ _______ _______ _____ _____    ______ ____
ROOT
ATOM      1  C   LIG    1        1.460  -2.518  -2.502  0.00  0.00    +0.202 C 
ENDROOT
BRANCH   1   2
ATOM      2  C   LIG    1        1.751  -3.994  -2.581  0.00  0.00    -0.007 A 
ATOM      3  C   LIG    1        0.807  -4.858  -3.105  0.00  0.00    +0.007 A 
ATOM      4  C   LIG    1        1.074  -6.212  -3.177  0.00  0.00    +0.000 A 
ATOM      5  C   LIG    1        2.284  -6.703  -2.725  0.00  0.00    +0.000 A 
ATOM      6  C   LIG    1        3.228  -5.840  -2.201  0.00  0.00    +0.000 A 
ATOM      7  C   LIG    1        2.963  -4.485  -2.133  0.00  0.00    +0.007 A 
ENDBRANCH   1   2
BRANCH   1   8
ATOM      8  C   LIG    1        0.691  -2.217  -1.214  0.00  0.00    +0.030 C 
BRANCH   8   9
ATOM      9  C   LIG    1        0.505  -0.705  -1.072  0.00  0.00    -0.079 C 
BRANCH   9  11
ATOM     10  C   LIG    1       -0.412   1.035   0.301  0.00  0.00    -0.101 C 
ATOM     11  N   LIG    1       -0.233  -0.417   0.165  0.00  0.00    +0.377 N 
ATOM     12  H   LIG    1       -1.136  -0.865   0.131  0.00  0.00    -0.086 HD
ATOM     13  H   LIG    1        0.286  -0.767   0.956  0.00  0.00    -0.086 HD
ENDBRANCH   9  11
ENDBRANCH   8   9
ENDBRANCH   1   8
BRANCH   1  14
ATOM     14  O   LIG    1        0.672  -2.127  -3.628  0.00  0.00    -0.484 OA
BRANCH  14  15
ATOM     15  C   LIG    1        0.884  -0.880  -4.126  0.00  0.00    +0.121 A 
ATOM     16  C   LIG    1        1.875  -0.074  -3.584  0.00  0.00    +0.046 A 
ATOM     17  C   LIG    1        2.088   1.192  -4.092  0.00  0.00    +0.016 A 
ATOM     18  C   LIG    1        1.314   1.658  -5.139  0.00  0.00    +0.055 A 
ATOM     19  C   LIG    1        0.326   0.857  -5.681  0.00  0.00    +0.016 A 
ATOM     20  C   LIG    1        0.113  -0.413  -5.180  0.00  0.00    +0.046 A 
BRANCH  18  21
ATOM     21  C   LIG    1        1.549   3.041  -5.691  0.00  0.00    +0.417 C 
ATOM     22  F   LIG    1        2.026   3.874  -4.673  0.00  0.00    -0.166 F 
ATOM     23  F   LIG    1        0.346   3.554  -6.188  0.00  0.00    -0.166 F 
ATOM     24  F   LIG    1        2.491   2.977  -6.723  0.00  0.00    -0.166 F 
ENDBRANCH  18  21
ENDBRANCH  14  15
ENDBRANCH   1  14
TORSDOF 7
