REMARK  Name = ZINC01433060
REMARK                            x       y       z     vdW  Elec       q    Type
REMARK                         _______ _______ _______ _____ _____    ______ ____
ROOT
ATOM      1  C   LIG    1       -0.170   2.173   1.863  0.00  0.00    +0.237 C 
ATOM      2  N   LIG    1        1.034   2.665   2.052  0.00  0.00    -0.292 N 
ATOM      3  H   LIG    1        1.701   2.704   1.272  0.00  0.00    +0.301 HD
ATOM      4  H   LIG    1        1.306   3.009   2.973  0.00  0.00    +0.301 HD
ENDROOT
BRANCH   1   7
ATOM      5  C   LIG    1        0.062   1.934  -1.553  0.00  0.00    +0.002 C 
ATOM      6  C   LIG    1        0.734   1.268  -0.341  0.00  0.00    +0.015 C 
ATOM      7  C   LIG    1       -0.501   1.684   0.476  0.00  0.00    +0.100 C 
ATOM      8  C   LIG    1       -0.696   2.817  -0.548  0.00  0.00    +0.015 C 
ENDBRANCH   1   7
BRANCH   1   9
ATOM      9  N   LIG    1       -1.107   2.093   2.859  0.00  0.00    -0.254 N 
ATOM     10  H   LIG    1       -0.894   2.407   3.752  0.00  0.00    +0.288 HD
ATOM     11  H   LIG    1       -1.983   1.721   2.672  0.00  0.00    +0.288 HD
ENDBRANCH   1   9
TORSDOF 2
