REMARK  Name = ZINC01490579
REMARK                            x       y       z     vdW  Elec       q    Type
REMARK                         _______ _______ _______ _____ _____    ______ ____
ROOT
ATOM      1  C   LIG    1       -6.958   8.338   0.633  0.00  0.00    +0.021 A 
ATOM      2  C   LIG    1       -5.920   7.435   0.114  0.00  0.00    -0.003 A 
ATOM      3  C   LIG    1       -6.091   6.051   0.109  0.00  0.00    +0.013 A 
ATOM      4  C   LIG    1       -5.094   5.244  -0.392  0.00  0.00    +0.046 A 
ATOM      5  C   LIG    1       -3.914   5.796  -0.884  0.00  0.00    +0.122 A 
ATOM      6  C   LIG    1       -3.727   7.168  -0.887  0.00  0.00    +0.059 A 
ATOM      7  C   LIG    1       -4.727   8.000  -0.389  0.00  0.00    +0.051 A 
ATOM      8  C   LIG    1       -4.573   9.462  -0.372  0.00  0.00    +0.264 A 
ATOM      9  N   LIG    1       -5.561  10.235   0.118  0.00  0.00    -0.270 N 
ATOM     10  O   LIG    1       -3.554   9.973  -0.800  0.00  0.00    -0.267 OA
ATOM     11  C   LIG    1       -6.734   9.702   0.614  0.00  0.00    +0.143 A 
ENDROOT
BRANCH   1  14
ATOM     12  C   LIG    1      -10.615   7.560   1.028  0.00  0.00    +0.166 A 
ATOM     13  C   LIG    1       -9.432   8.070   0.525  0.00  0.00    +0.058 A 
ATOM     14  C   LIG    1       -8.224   7.794   1.169  0.00  0.00    -0.008 A 
ATOM     15  C   LIG    1       -8.213   6.998   2.317  0.00  0.00    +0.058 A 
ATOM     16  C   LIG    1       -9.399   6.495   2.818  0.00  0.00    +0.166 A 
ATOM     17  C   LIG    1      -10.602   6.772   2.175  0.00  0.00    +0.204 A 
BRANCH  12  19
ATOM     18  C   LIG    1      -11.731   8.643  -0.771  0.00  0.00    +0.277 C 
ATOM     19  O   LIG    1      -11.791   7.828   0.401  0.00  0.00    -0.491 OA
ENDBRANCH  12  19
BRANCH  16  20
ATOM     20  O   LIG    1       -9.390   5.724   3.939  0.00  0.00    -0.491 OA
ATOM     21  C   LIG    1       -8.121   5.481   4.548  0.00  0.00    +0.277 C 
ENDBRANCH  16  20
BRANCH  17  22
ATOM     22  O   LIG    1      -11.767   6.271   2.667  0.00  0.00    -0.488 OA
ATOM     23  C   LIG    1      -12.177   4.990   2.184  0.00  0.00    +0.277 C 
ENDBRANCH  17  22
ENDBRANCH   1  14
BRANCH   9  24
ATOM     24  C   LIG    1       -5.392  11.625   0.125  0.00  0.00    +0.050 A 
ATOM     25  C   LIG    1       -4.821  12.250   1.226  0.00  0.00    +0.028 A 
ATOM     26  C   LIG    1       -4.650  13.619   1.231  0.00  0.00    +0.025 A 
ATOM     27  C   LIG    1       -5.059  14.374   0.139  0.00  0.00    +0.025 A 
ATOM     28  C   LIG    1       -5.635  13.750  -0.961  0.00  0.00    +0.025 A 
ATOM     29  C   LIG    1       -5.801  12.380  -0.968  0.00  0.00    +0.028 A 
BRANCH  27  30
ATOM     30  N   LIG    1       -4.892  15.762   0.146  0.00  0.00    -0.358 N 
ATOM     31  H   LIG    1       -4.490  16.198   0.914  0.00  0.00    +0.142 HD
ATOM     32  H   LIG    1       -5.178  16.289  -0.617  0.00  0.00    +0.142 HD
ENDBRANCH  27  30
ENDBRANCH   9  24
BRANCH  11  33
ATOM     33  C   LIG    1       -7.767  10.604   1.131  0.00  0.00    +0.357 C 
ATOM     34  O   LIG    1       -8.755  10.149   1.676  0.00  0.00    -0.243 OA
BRANCH  33  35
ATOM     35  O   LIG    1       -7.622  11.939   1.003  0.00  0.00    -0.463 OA
ATOM     36  C   LIG    1       -8.609  12.762   1.629  0.00  0.00    +0.280 C 
ENDBRANCH  33  35
ENDBRANCH  11  33
BRANCH   5  37
ATOM     37  O   LIG    1       -2.941   4.983  -1.369  0.00  0.00    -0.486 OA
BRANCH  37  38
ATOM     38  C   LIG    1       -3.195   3.577  -1.338  0.00  0.00    +0.284 C 
BRANCH  38  39
ATOM     39  C   LIG    1       -2.012   2.840  -1.913  0.00  0.00    +0.078 A 
ATOM     40  C   LIG    1       -0.917   3.552  -2.364  0.00  0.00    +0.027 A 
ATOM     41  C   LIG    1        0.166   2.865  -2.890  0.00  0.00    +0.003 A 
ATOM     42  C   LIG    1        0.105   1.480  -2.944  0.00  0.00    +0.020 A 
ATOM     43  C   LIG    1       -1.024   0.837  -2.474  0.00  0.00    +0.111 A 
ATOM     44  N   LIG    1       -2.037   1.524  -1.985  0.00  0.00    -0.256 NA
ENDBRANCH  38  39
ENDBRANCH  37  38
ENDBRANCH   5  37
TORSDOF 11
