REMARK  Name = ZINC01537834
REMARK                            x       y       z     vdW  Elec       q    Type
REMARK                         _______ _______ _______ _____ _____    ______ ____
ROOT
ATOM      1  C   LIG    1        1.719   3.206   0.002  0.00  0.00    +0.040 C 
ATOM      2  C   LIG    1        1.771   3.722   1.442  0.00  0.00    +0.028 C 
ATOM      3  C   LIG    1        2.272   5.170   1.444  0.00  0.00    +0.108 C 
ATOM      4  N   LIG    1        1.423   5.965   0.548  0.00  0.00    -0.301 N 
ATOM      5  C   LIG    1        0.829   7.093   0.987  0.00  0.00    +0.216 C 
ATOM      6  O   LIG    1        0.995   7.460   2.131  0.00  0.00    -0.276 OA
ATOM      7  C   LIG    1        1.231   5.508  -0.835  0.00  0.00    +0.108 C 
ATOM      8  C   LIG    1        0.741   4.057  -0.811  0.00  0.00    +0.028 C 
ENDROOT
BRANCH   1  10
ATOM      9  C   LIG    1       -0.016   1.337   0.009  0.00  0.00    +0.133 A 
ATOM     10  C   LIG    1        1.259   1.771  -0.000  0.00  0.00    +0.039 A 
ATOM     11  N   LIG    1        2.056   0.658  -0.014  0.00  0.00    -0.348 N 
ATOM     12  C   LIG    1        1.240  -0.418  -0.012  0.00  0.00    +0.196 A 
ATOM     13  H   LIG    1        3.026   0.645  -0.023  0.00  0.00    +0.166 HD
ATOM     14  N   LIG    1        0.002  -0.004   0.002  0.00  0.00    -0.244 NA
ENDBRANCH   1  10
BRANCH   5  15
ATOM     15  C   LIG    1       -0.040   7.899   0.056  0.00  0.00    +0.096 C 
BRANCH  15  16
ATOM     16  C   LIG    1       -0.586   9.120   0.797  0.00  0.00    +0.009 C 
BRANCH  16  17
ATOM     17  C   LIG    1       -1.469   9.938  -0.148  0.00  0.00    +0.001 C 
BRANCH  17  18
ATOM     18  C   LIG    1       -2.015  11.160   0.593  0.00  0.00    +0.003 C 
BRANCH  18  19
ATOM     19  C   LIG    1       -2.898  11.977  -0.352  0.00  0.00    -0.011 C 
ATOM     20  C   LIG    1       -2.042  12.543  -1.487  0.00  0.00    +0.003 C 
ATOM     21  C   LIG    1       -2.924  13.361  -2.433  0.00  0.00    +0.000 C 
ATOM     22  C   LIG    1       -3.570  14.512  -1.659  0.00  0.00    +0.000 C 
ATOM     23  C   LIG    1       -4.426  13.946  -0.524  0.00  0.00    +0.000 C 
ATOM     24  C   LIG    1       -3.544  13.129   0.421  0.00  0.00    +0.003 C 
ENDBRANCH  18  19
ENDBRANCH  17  18
ENDBRANCH  16  17
ENDBRANCH  15  16
ENDBRANCH   5  15
TORSDOF 6
