REMARK  Name = ZINC01482078
REMARK                            x       y       z     vdW  Elec       q    Type
REMARK                         _______ _______ _______ _____ _____    ______ ____
ROOT
ATOM      1  C   LIG    1        2.471   0.711  -0.018  0.00  0.00    +0.259 C 
ENDROOT
BRANCH   1   2
ATOM      2  N   LIG    1        1.275   1.556  -0.002  0.00  0.00    -0.176 N 
ATOM      3  C   LIG    1        1.397   2.898   0.004  0.00  0.00    +0.353 C 
ATOM      4  O   LIG    1        0.406   3.598   0.018  0.00  0.00    -0.277 OA
BRANCH   2   5
ATOM      5  O   LIG    1       -0.011   0.963   0.007  0.00  0.00    -0.292 OA
ATOM      6  H   LIG    1        0.002  -0.004   0.002  0.00  0.00    +0.242 HD
ENDBRANCH   2   5
ENDBRANCH   1   2
BRANCH   1   7
ATOM      7  C   LIG    1        3.107   0.715   1.349  0.00  0.00    +0.325 C 
ATOM      8  O   LIG    1        2.611   1.357   2.244  0.00  0.00    -0.249 OA
BRANCH   7   9
ATOM      9  O   LIG    1        4.224   0.004   1.571  0.00  0.00    -0.479 OA
ATOM     10  H   LIG    1        4.608  -0.494   0.877  0.00  0.00    +0.295 HD
ENDBRANCH   7   9
ENDBRANCH   1   7
TORSDOF 4
