REMARK  Name = ZINC01645265
REMARK                            x       y       z     vdW  Elec       q    Type
REMARK                         _______ _______ _______ _____ _____    ______ ____
ROOT
ATOM      1  C   LIG    1        3.657   2.161  -0.021  0.00  0.00    +0.051 A 
ATOM      2  C   LIG    1        3.936   3.232   0.762  0.00  0.00    -0.013 A 
ATOM      3  C   LIG    1        5.295   3.659   0.431  0.00  0.00    +0.003 A 
ATOM      4  C   LIG    1        6.126   4.684   0.892  0.00  0.00    +0.010 A 
ATOM      5  C   LIG    1        7.378   4.831   0.364  0.00  0.00    +0.001 A 
ATOM      6  C   LIG    1        7.831   3.969  -0.626  0.00  0.00    +0.002 A 
ATOM      7  C   LIG    1        7.029   2.952  -1.095  0.00  0.00    +0.026 A 
ATOM      8  C   LIG    1        5.750   2.784  -0.573  0.00  0.00    +0.047 A 
ATOM      9  N   LIG    1        4.737   1.885  -0.827  0.00  0.00    -0.354 N 
ATOM     10  H   LIG    1        4.779   1.167  -1.478  0.00  0.00    +0.166 HD
ENDROOT
BRANCH   1  14
ATOM     11  C   LIG    1        0.002  -0.004   0.002  0.00  0.00    +0.000 A 
ATOM     12  C   LIG    1       -0.017   1.379   0.010  0.00  0.00    +0.001 A 
ATOM     13  C   LIG    1        1.167   2.088   0.002  0.00  0.00    +0.010 A 
ATOM     14  C   LIG    1        2.385   1.407  -0.013  0.00  0.00    -0.001 A 
ATOM     15  C   LIG    1        2.397   0.012  -0.020  0.00  0.00    +0.010 A 
ATOM     16  C   LIG    1        1.206  -0.685  -0.013  0.00  0.00    +0.001 A 
ENDBRANCH   1  14
BRANCH   2  17
ATOM     17  C   LIG    1        3.020   3.862   1.780  0.00  0.00    +0.056 C 
BRANCH  17  18
ATOM     18  C   LIG    1        3.236   3.197   3.140  0.00  0.00    +0.109 C 
BRANCH  18  19
ATOM     19  N   LIG    1        2.346   3.809   4.130  0.00  0.00    -0.308 N 
ATOM     20  H   LIG    1        1.746   4.524   3.866  0.00  0.00    +0.149 HD
ATOM     21  C   LIG    1        2.362   3.380   5.407  0.00  0.00    +0.317 C 
ATOM     22  O   LIG    1        3.113   2.487   5.738  0.00  0.00    -0.266 OA
BRANCH  21  23
ATOM     23  C   LIG    1        1.446   4.010   6.425  0.00  0.00    +0.469 C 
ATOM     24  F   LIG    1        0.117   3.837   6.027  0.00  0.00    -0.162 F 
ATOM     25  F   LIG    1        1.729   5.377   6.524  0.00  0.00    -0.162 F 
ATOM     26  F   LIG    1        1.644   3.401   7.669  0.00  0.00    -0.162 F 
ENDBRANCH  21  23
ENDBRANCH  18  19
ENDBRANCH  17  18
ENDBRANCH   2  17
TORSDOF 5
