REMARK  Name = ZINC01488513
REMARK                            x       y       z     vdW  Elec       q    Type
REMARK                         _______ _______ _______ _____ _____    ______ ____
ROOT
ATOM      1  C   LIG    1        3.515   3.362   0.004  0.00  0.00    +0.162 A 
ATOM      2  C   LIG    1        3.538   1.996  -0.004  0.00  0.00    +0.062 A 
ATOM      3  C   LIG    1        2.344   1.283  -0.166  0.00  0.00    +0.044 A 
ATOM      4  C   LIG    1        1.121   1.981  -0.320  0.00  0.00    +0.080 A 
ATOM      5  N   LIG    1       -0.010   1.273  -0.473  0.00  0.00    -0.235 NA
ATOM      6  C   LIG    1        0.022  -0.038  -0.479  0.00  0.00    +0.223 A 
ATOM      7  N   LIG    1        1.140  -0.732  -0.339  0.00  0.00    -0.220 NA
ATOM      8  C   LIG    1        1.120   3.381  -0.309  0.00  0.00    +0.078 A 
ATOM      9  C   LIG    1        2.313  -0.132  -0.182  0.00  0.00    +0.134 A 
ATOM     10  C   LIG    1        2.308   4.058  -0.148  0.00  0.00    +0.164 A 
ENDROOT
BRANCH   1  12
ATOM     11  C   LIG    1        5.872   3.286   0.311  0.00  0.00    +0.277 C 
ATOM     12  O   LIG    1        4.676   4.053   0.161  0.00  0.00    -0.491 OA
ENDBRANCH   1  12
BRANCH   9  13
ATOM     13  N   LIG    1        3.472  -0.868  -0.036  0.00  0.00    -0.299 N 
ATOM     14  H   LIG    1        4.331  -0.418  -0.003  0.00  0.00    +0.154 HD
BRANCH  13  15
ATOM     15  C   LIG    1        3.407  -2.263   0.063  0.00  0.00    +0.035 A 
ATOM     16  C   LIG    1        2.320  -2.865   0.681  0.00  0.00    +0.042 A 
ATOM     17  C   LIG    1        2.254  -4.243   0.773  0.00  0.00    +0.062 A 
ATOM     18 BR   LIG    1        0.769  -5.064   1.608  0.00  0.00    -0.046 Br
ATOM     19  C   LIG    1        3.280  -5.023   0.259  0.00  0.00    +0.145 A 
ATOM     20  C   LIG    1        4.369  -4.420  -0.355  0.00  0.00    +0.062 A 
ATOM     21 BR   LIG    1        5.766  -5.484  -1.056  0.00  0.00    -0.046 Br
ATOM     22  C   LIG    1        4.433  -3.043  -0.453  0.00  0.00    +0.042 A 
BRANCH  19  23
ATOM     23  O   LIG    1        3.217  -6.378   0.354  0.00  0.00    -0.505 OA
ATOM     24  H   LIG    1        3.616  -6.734   1.160  0.00  0.00    +0.292 HD
ENDBRANCH  19  23
ENDBRANCH  13  15
ENDBRANCH   9  13
BRANCH  10  25
ATOM     25  O   LIG    1        2.311   5.417  -0.137  0.00  0.00    -0.491 OA
ATOM     26  C   LIG    1        1.050   6.069  -0.296  0.00  0.00    +0.277 C 
ENDBRANCH  10  25
TORSDOF 5
