REMARK  Name = ZINC01530811
REMARK                            x       y       z     vdW  Elec       q    Type
REMARK                         _______ _______ _______ _____ _____    ______ ____
ROOT
ATOM      1  C   LIG    1       -3.022  -3.941   0.010  0.00  0.00    +0.027 A 
ATOM      2  C   LIG    1       -1.951  -4.830   0.001  0.00  0.00    +0.024 A 
ATOM      3  C   LIG    1       -2.179  -6.181  -0.004  0.00  0.00    +0.017 A 
ATOM      4  C   LIG    1       -3.491  -6.667   0.001  0.00  0.00    +0.059 A 
ATOM      5  C   LIG    1       -4.565  -5.771   0.010  0.00  0.00    +0.017 A 
ATOM      6  C   LIG    1       -4.329  -4.421   0.020  0.00  0.00    +0.024 A 
ENDROOT
BRANCH   1   7
ATOM      7  N   LIG    1       -2.787  -2.571   0.015  0.00  0.00    -0.344 N 
ATOM      8  H   LIG    1       -3.533  -1.950   0.025  0.00  0.00    +0.146 HD
BRANCH   7   9
ATOM      9  C   LIG    1       -1.413  -2.063   0.004  0.00  0.00    +0.101 C 
BRANCH   9  10
ATOM     10  C   LIG    1       -1.433  -0.534   0.013  0.00  0.00    +0.018 C 
BRANCH  10  12
ATOM     11  C   LIG    1       -0.019   1.526   0.010  0.00  0.00    +0.004 C 
ATOM     12  C   LIG    1        0.002  -0.004   0.002  0.00  0.00    -0.002 C 
ENDBRANCH  10  12
ENDBRANCH   9  10
ENDBRANCH   7   9
ENDBRANCH   1   7
BRANCH   4  13
ATOM     13  C   LIG    1       -3.741  -8.120  -0.005  0.00  0.00    +0.339 C 
ATOM     14  O   LIG    1       -2.806  -8.897  -0.013  0.00  0.00    -0.245 OA
BRANCH  13  15
ATOM     15  O   LIG    1       -5.005  -8.586  -0.001  0.00  0.00    -0.463 OA
BRANCH  15  16
ATOM     16  C   LIG    1       -5.173 -10.005  -0.006  0.00  0.00    +0.214 C 
BRANCH  16  17
ATOM     17  C   LIG    1       -6.665 -10.342   0.000  0.00  0.00    -0.038 C 
BRANCH  17  18
ATOM     18  N   LIG    1       -7.278  -9.873  -1.250  0.00  0.00    +0.378 N 
ATOM     19  H   LIG    1       -7.088  -8.889  -1.369  0.00  0.00    -0.082 HD
ATOM     20  C   LIG    1       -8.730 -10.088  -1.194  0.00  0.00    -0.096 C 
ATOM     21  C   LIG    1       -6.716 -10.621  -2.382  0.00  0.00    -0.096 C 
ENDBRANCH  17  18
ENDBRANCH  16  17
ENDBRANCH  15  16
ENDBRANCH  13  15
ENDBRANCH   4  13
TORSDOF 9
