REMARK  Name = ZINC01604329
REMARK                            x       y       z     vdW  Elec       q    Type
REMARK                         _______ _______ _______ _____ _____    ______ ____
ROOT
ATOM      1  C   LIG    1       -2.137  -0.551  -1.294  0.00  0.00    -0.045 A 
ATOM      2  C   LIG    1       -1.998  -1.403  -0.214  0.00  0.00    +0.004 A 
ATOM      3  C   LIG    1       -1.933  -2.769  -0.411  0.00  0.00    +0.004 A 
ATOM      4  C   LIG    1       -2.009  -3.288  -1.689  0.00  0.00    +0.045 A 
ATOM      5  C   LIG    1       -2.149  -2.436  -2.775  0.00  0.00    +0.120 A 
ATOM      6  C   LIG    1       -2.218  -1.065  -2.574  0.00  0.00    +0.049 A 
ENDROOT
BRANCH   5   7
ATOM      7  O   LIG    1       -2.224  -2.944  -4.034  0.00  0.00    -0.495 OA
ATOM      8  C   LIG    1       -2.152  -4.365  -4.165  0.00  0.00    +0.277 C 
ENDBRANCH   5   7
BRANCH   1   9
ATOM      9  C   LIG    1       -2.207   0.938  -1.076  0.00  0.00    +0.019 C 
BRANCH   9  11
ATOM     10  C   LIG    1       -0.876   3.052  -1.022  0.00  0.00    -0.014 C 
ATOM     11  C   LIG    1       -0.795   1.527  -1.120  0.00  0.00    -0.074 C 
BRANCH  11  12
ATOM     12  N   LIG    1       -0.025   1.014   0.027  0.00  0.00    +0.380 N 
ATOM     13  H   LIG    1       -0.476   1.316   0.899  0.00  0.00    -0.090 HD
ATOM     14  H   LIG    1        0.925   1.379   0.001  0.00  0.00    -0.090 HD
ATOM     15  H   LIG    1        0.002  -0.004   0.002  0.00  0.00    -0.090 HD
ENDBRANCH  11  12
ENDBRANCH   9  11
ENDBRANCH   1   9
TORSDOF 4
