REMARK  Name = ZINC01576968
REMARK                            x       y       z     vdW  Elec       q    Type
REMARK                         _______ _______ _______ _____ _____    ______ ____
ROOT
ATOM      1  N   LIG    1       -7.183   1.107   0.284  0.00  0.00    -0.269 N 
ATOM      2  H   LIG    1       -7.184   0.140   0.355  0.00  0.00    +0.156 HD
ATOM      3  C   LIG    1       -6.017   1.773   0.171  0.00  0.00    +0.308 C 
ATOM      4  N   LIG    1       -4.859   1.091   0.062  0.00  0.00    -0.269 N 
ATOM      5  H   LIG    1       -4.871   0.123  -0.000  0.00  0.00    +0.156 HD
ATOM      6  O   LIG    1       -6.009   2.989   0.166  0.00  0.00    -0.252 OA
ENDROOT
BRANCH   1  16
ATOM      7  C   LIG    1       -8.455   3.064   0.921  0.00  0.00    +0.024 A 
ATOM      8  C   LIG    1       -9.616   3.773   0.946  0.00  0.00    +0.014 A 
ATOM      9  C   LIG    1      -10.774   3.242   0.355  0.00  0.00    +0.024 A 
ATOM     10  C   LIG    1      -10.720   1.971  -0.271  0.00  0.00    -0.011 A 
ATOM     11  C   LIG    1      -11.882   1.443  -0.862  0.00  0.00    +0.038 A 
ATOM     12  C   LIG    1      -13.043   2.153  -0.828  0.00  0.00    +0.121 A 
ATOM     13  C   LIG    1      -13.103   3.402  -0.215  0.00  0.00    +0.075 A 
ATOM     14  C   LIG    1       -9.509   1.262  -0.289  0.00  0.00    +0.032 A 
ATOM     15  C   LIG    1      -11.992   3.951   0.373  0.00  0.00    +0.126 A 
ATOM     16  C   LIG    1       -8.392   1.811   0.300  0.00  0.00    +0.035 A 
BRANCH  12  17
ATOM     17  S   LIG    1      -14.492   1.481  -1.571  0.00  0.00    +0.110 S 
ATOM     18  O   LIG    1      -14.052   0.552  -2.552  0.00  0.00    -0.142 OA
ATOM     19  O   LIG    1      -15.334   2.582  -1.888  0.00  0.00    -0.142 OA
BRANCH  17  20
ATOM     20  O   LIG    1      -15.214   0.675  -0.501  0.00  0.00    -0.250 OA
ATOM     21  H   LIG    1      -15.533   1.272   0.193  0.00  0.00    +0.245 HD
ENDBRANCH  17  20
ENDBRANCH  12  17
BRANCH  15  22
ATOM     22  O   LIG    1      -12.065   5.170   0.967  0.00  0.00    -0.506 OA
ATOM     23  H   LIG    1      -12.300   5.137   1.904  0.00  0.00    +0.292 HD
ENDBRANCH  15  22
ENDBRANCH   1  16
BRANCH   4  24
ATOM     24  C   LIG    1       -3.642   1.780   0.041  0.00  0.00    +0.035 A 
ATOM     25  C   LIG    1       -3.563   3.029  -0.585  0.00  0.00    +0.024 A 
ATOM     26  C   LIG    1       -2.393   3.720  -0.621  0.00  0.00    +0.014 A 
ATOM     27  C   LIG    1       -1.242   3.179  -0.024  0.00  0.00    +0.024 A 
ATOM     28  C   LIG    1       -1.310   1.912   0.607  0.00  0.00    -0.011 A 
ATOM     29  C   LIG    1       -0.158   1.377   1.208  0.00  0.00    +0.038 A 
ATOM     30  C   LIG    1        1.012   2.073   1.171  0.00  0.00    +0.121 A 
ATOM     31  C   LIG    1        1.088   3.316   0.548  0.00  0.00    +0.075 A 
ATOM     32  C   LIG    1       -0.015   3.874  -0.046  0.00  0.00    +0.126 A 
ATOM     33  C   LIG    1       -2.532   1.221   0.636  0.00  0.00    +0.032 A 
BRANCH  30  34
ATOM     34  S   LIG    1        2.452   1.389   1.922  0.00  0.00    +0.110 S 
ATOM     35  O   LIG    1        1.999   0.474   2.909  0.00  0.00    -0.142 OA
ATOM     36  O   LIG    1        3.306   2.482   2.230  0.00  0.00    -0.142 OA
BRANCH  34  37
ATOM     37  O   LIG    1        3.166   0.566   0.859  0.00  0.00    -0.250 OA
ATOM     38  H   LIG    1        3.493   1.153   0.161  0.00  0.00    +0.245 HD
ENDBRANCH  34  37
ENDBRANCH  30  34
BRANCH  32  39
ATOM     39  O   LIG    1        0.073   5.087  -0.650  0.00  0.00    -0.506 OA
ATOM     40  H   LIG    1        0.309   5.043  -1.587  0.00  0.00    +0.292 HD
ENDBRANCH  32  39
ENDBRANCH   4  24
TORSDOF 8
