REMARK  Name = ZINC01433265
REMARK                            x       y       z     vdW  Elec       q    Type
REMARK                         _______ _______ _______ _____ _____    ______ ____
ROOT
ATOM      1  C   LIG    1        1.131   3.168   0.008  0.00  0.00    +0.002 A 
ATOM      2  C   LIG    1        1.177   1.786   0.000  0.00  0.00    +0.001 A 
ATOM      3  C   LIG    1       -0.013   1.076   0.008  0.00  0.00    +0.016 A 
ATOM      4  C   LIG    1       -1.213   1.749   0.017  0.00  0.00    +0.031 A 
ATOM      5  C   LIG    1       -1.292   3.145   0.031  0.00  0.00    +0.042 A 
ATOM      6  N   LIG    1       -2.557   3.731   0.047  0.00  0.00    -0.323 N 
ATOM      7  H   LIG    1       -2.665   4.694   0.053  0.00  0.00    +0.148 HD
ATOM      8  C   LIG    1       -3.721   2.833   0.035  0.00  0.00    +0.189 C 
ATOM      9  S   LIG    1       -2.901   1.189   0.022  0.00  0.00    -0.090 S 
ATOM     10  C   LIG    1       -0.069   3.839   0.023  0.00  0.00    +0.024 A 
ENDROOT
BRANCH   8  11
ATOM     11  S   LIG    1       -4.716   3.055   1.535  0.00  0.00    -0.145 S 
ATOM     12  H   LIG    1       -5.637   2.077   1.462  0.00  0.00    +0.104 HD
ENDBRANCH   8  11
TORSDOF 1
