REMARK  Name = ZINC01566370
REMARK                            x       y       z     vdW  Elec       q    Type
REMARK                         _______ _______ _______ _____ _____    ______ ____
ROOT
ATOM      1  C   LIG    1        2.534   3.726  -0.002  0.00  0.00    -0.074 C 
ENDROOT
BRANCH   1   3
ATOM      2  C   LIG    1        1.675   5.606   1.216  0.00  0.00    -0.093 C 
ATOM      3  N   LIG    1        2.398   5.189   0.007  0.00  0.00    +0.374 N 
ATOM      4  C   LIG    1        1.652   5.619  -1.183  0.00  0.00    -0.093 C 
ATOM      5  C   LIG    1        3.732   5.805  -0.002  0.00  0.00    -0.093 C 
ENDBRANCH   1   3
BRANCH   1   6
ATOM      6  C   LIG    1        1.145   3.085   0.008  0.00  0.00    +0.010 C 
BRANCH   6   7
ATOM      7  C   LIG    1        1.286   1.562  -0.002  0.00  0.00    +0.154 C 
BRANCH   7   8
ATOM      8  O   LIG    1       -0.011   0.963   0.007  0.00  0.00    -0.395 OA
ATOM      9  H   LIG    1        0.002  -0.004   0.002  0.00  0.00    +0.209 HD
ENDBRANCH   7   8
ENDBRANCH   6   7
ENDBRANCH   1   6
TORSDOF 4
