REMARK  Name = ZINC01614355
REMARK                            x       y       z     vdW  Elec       q    Type
REMARK                         _______ _______ _______ _____ _____    ______ ____
ROOT
ATOM      1  N   LIG    1       -2.134  -2.756  -0.112  0.00  0.00    -0.309 N 
ATOM      2  C   LIG    1       -2.852  -1.629   0.161  0.00  0.00    +0.202 A 
ATOM      3  N   LIG    1       -2.069  -0.590   0.150  0.00  0.00    -0.231 NA
ATOM      4  C   LIG    1       -0.800  -0.983  -0.118  0.00  0.00    +0.147 A 
ATOM      5  C   LIG    1        0.432  -0.322  -0.253  0.00  0.00    +0.147 A 
ATOM      6  N   LIG    1        1.513  -1.047  -0.522  0.00  0.00    -0.219 NA
ATOM      7  C   LIG    1        1.440  -2.357  -0.667  0.00  0.00    +0.225 A 
ATOM      8  N   LIG    1        0.307  -3.018  -0.555  0.00  0.00    -0.216 NA
ATOM      9  C   LIG    1       -0.827  -2.378  -0.287  0.00  0.00    +0.166 A 
ENDROOT
BRANCH   5  10
ATOM     10  N   LIG    1        0.519   1.051  -0.103  0.00  0.00    -0.341 N 
ATOM     11  H   LIG    1       -0.278   1.569   0.089  0.00  0.00    +0.144 HD
ATOM     12  H   LIG    1        1.135   1.265   0.654  0.00  0.00    +0.144 HD
ENDBRANCH   5  10
BRANCH   1  13
ATOM     13  C   LIG    1       -2.660  -4.121  -0.187  0.00  0.00    +0.118 C 
BRANCH  13  14
ATOM     14  C   LIG    1       -3.299  -4.496   1.152  0.00  0.00    +0.134 C 
ATOM     15  C   LIG    1       -2.241  -4.440   2.255  0.00  0.00    +0.040 C 
BRANCH  14  16
ATOM     16  O   LIG    1       -4.350  -3.576   1.452  0.00  0.00    -0.390 OA
ATOM     17  H   LIG    1       -5.057  -3.558   0.793  0.00  0.00    +0.210 HD
ENDBRANCH  14  16
ENDBRANCH  13  14
BRANCH  13  18
ATOM     18  C   LIG    1       -3.712  -4.203  -1.295  0.00  0.00    +0.028 C 
BRANCH  18  19
ATOM     19  C   LIG    1       -4.164  -5.654  -1.463  0.00  0.00    +0.002 C 
BRANCH  19  20
ATOM     20  C   LIG    1       -5.117  -5.757  -2.655  0.00  0.00    +0.000 C 
BRANCH  20  21
ATOM     21  C   LIG    1       -5.570  -7.209  -2.823  0.00  0.00    -0.000 C 
BRANCH  21  23
ATOM     22  C   LIG    1       -6.976  -8.763  -4.184  0.00  0.00    +0.004 C 
ATOM     23  C   LIG    1       -6.523  -7.311  -4.016  0.00  0.00    -0.003 C 
ENDBRANCH  21  23
ENDBRANCH  20  21
ENDBRANCH  19  20
ENDBRANCH  18  19
ENDBRANCH  13  18
ENDBRANCH   1  13
TORSDOF 9
