REMARK  Name = ZINC01489867
REMARK                            x       y       z     vdW  Elec       q    Type
REMARK                         _______ _______ _______ _____ _____    ______ ____
ROOT
ATOM      1  C   LIG    1        1.615   0.713  -1.136  0.00  0.00    +0.080 C 
ATOM      2  C   LIG    1        1.838   0.003  -2.305  0.00  0.00    +0.176 C 
ATOM      3  C   LIG    1        3.157  -0.529  -2.630  0.00  0.00    +0.232 C 
ATOM      4  C   LIG    1        4.161  -0.595  -1.678  0.00  0.00    +0.080 C 
ATOM      5  C   LIG    1        3.869  -0.101  -0.318  0.00  0.00    +0.176 C 
ATOM      6  O   LIG    1        3.403  -0.974  -3.886  0.00  0.00    -0.283 OA
ATOM      7  C   LIG    1        2.750   0.913  -0.212  0.00  0.00    +0.232 C 
ATOM      8  O   LIG    1        2.777   1.826   0.587  0.00  0.00    -0.283 OA
ENDROOT
BRANCH   1  14
ATOM      9  C   LIG    1       -2.170   3.909  -0.493  0.00  0.00    -0.020 A 
ATOM     10  C   LIG    1       -1.518   5.067  -0.856  0.00  0.00    +0.006 A 
ATOM     11  C   LIG    1       -0.186   5.038  -1.243  0.00  0.00    +0.001 A 
ATOM     12  C   LIG    1        0.504   3.846  -1.271  0.00  0.00    +0.010 A 
ATOM     13  C   LIG    1       -0.142   2.666  -0.907  0.00  0.00    +0.008 A 
ATOM     14  C   LIG    1        0.277   1.257  -0.823  0.00  0.00    +0.015 A 
ATOM     15  C   LIG    1       -0.806   0.554  -0.400  0.00  0.00    +0.092 A 
ATOM     16  N   LIG    1       -1.863   1.400  -0.220  0.00  0.00    -0.360 N 
ATOM     17  H   LIG    1       -2.891   1.184   0.106  0.00  0.00    +0.165 HD
ATOM     18  C   LIG    1       -1.491   2.695  -0.514  0.00  0.00    +0.051 A 
BRANCH   9  19
ATOM     19  C   LIG    1       -3.616   3.957  -0.074  0.00  0.00    +0.064 C 
BRANCH  19  23
ATOM     20  C   LIG    1       -4.829   6.194   1.141  0.00  0.00    +0.038 C 
ATOM     21  C   LIG    1       -4.319   5.058   1.989  0.00  0.00    -0.079 C 
ATOM     22  C   LIG    1       -4.519   5.084   3.482  0.00  0.00    +0.038 C 
ATOM     23  C   LIG    1       -3.701   4.048   1.428  0.00  0.00    -0.023 C 
ENDBRANCH  19  23
ENDBRANCH   9  19
ENDBRANCH   1  14
BRANCH   4  24
ATOM     24  C   LIG    1        5.491  -1.146  -2.016  0.00  0.00    +0.019 A 
ATOM     25  C   LIG    1        5.917  -2.550  -1.897  0.00  0.00    +0.008 A 
ATOM     26  C   LIG    1        5.284  -3.721  -1.486  0.00  0.00    +0.010 A 
ATOM     27  C   LIG    1        5.970  -4.904  -1.498  0.00  0.00    +0.001 A 
ATOM     28  C   LIG    1        7.290  -4.948  -1.923  0.00  0.00    +0.002 A 
ATOM     29  C   LIG    1        7.932  -3.803  -2.339  0.00  0.00    +0.026 A 
ATOM     30  C   LIG    1        7.252  -2.588  -2.334  0.00  0.00    +0.047 A 
ATOM     31  N   LIG    1        7.611  -1.304  -2.682  0.00  0.00    -0.357 N 
ATOM     32  H   LIG    1        8.626  -1.097  -3.052  0.00  0.00    +0.166 HD
ATOM     33  C   LIG    1        6.560  -0.453  -2.490  0.00  0.00    +0.034 A 
BRANCH  33  34
ATOM     34  C   LIG    1        6.581   1.029  -2.763  0.00  0.00    +0.024 C 
ATOM     35  C   LIG    1        5.519   1.370  -3.810  0.00  0.00    +0.022 C 
ATOM     36  C   LIG    1        7.962   1.431  -3.288  0.00  0.00    +0.022 C 
BRANCH  34  37
ATOM     37  C   LIG    1        6.290   1.779  -1.489  0.00  0.00    -0.022 C 
ATOM     38  C   LIG    1        7.171   2.621  -1.008  0.00  0.00    +0.005 C 
ENDBRANCH  34  37
ENDBRANCH  33  34
ENDBRANCH   4  24
BRANCH   5  39
ATOM     39  O   LIG    1        4.491  -0.480   0.654  0.00  0.00    -0.503 OA
ATOM     40  H   LIG    1        4.245  -0.089   1.652  0.00  0.00    +0.292 HD
ENDBRANCH   5  39
BRANCH   2  41
ATOM     41  O   LIG    1        0.810  -0.200  -3.164  0.00  0.00    -0.503 OA
ATOM     42  H   LIG    1       -0.041   0.138  -2.965  0.00  0.00    +0.292 HD
ENDBRANCH   2  41
TORSDOF 8
