REMARK  Name = ZINC01665750
REMARK                            x       y       z     vdW  Elec       q    Type
REMARK                         _______ _______ _______ _____ _____    ______ ____
ROOT
ATOM      1  C   LIG    1        3.789   3.390  -0.002  0.00  0.00    +0.033 A 
ATOM      2  C   LIG    1        3.670   2.094   0.468  0.00  0.00    +0.011 A 
ATOM      3  C   LIG    1        2.427   1.470   0.477  0.00  0.00    -0.006 A 
ATOM      4  C   LIG    1        1.301   2.171   0.001  0.00  0.00    +0.035 A 
ATOM      5  C   LIG    1       -0.018   1.504   0.010  0.00  0.00    +0.234 C 
ATOM      6  C   LIG    1        0.002  -0.004   0.002  0.00  0.00    +0.234 C 
ATOM      7  C   LIG    1        1.106  -0.643   0.750  0.00  0.00    +0.035 A 
ATOM      8  C   LIG    1        0.985  -1.947   1.225  0.00  0.00    +0.045 A 
ATOM      9  C   LIG    1        2.030  -2.521   1.923  0.00  0.00    +0.122 A 
ATOM     10  C   LIG    1        3.194  -1.807   2.150  0.00  0.00    +0.033 A 
ATOM     11  C   LIG    1        3.330  -0.511   1.685  0.00  0.00    +0.011 A 
ATOM     12  O   LIG    1       -0.838  -0.655  -0.584  0.00  0.00    -0.283 OA
ATOM     13  O   LIG    1       -1.057   2.132   0.019  0.00  0.00    -0.283 OA
ATOM     14  C   LIG    1        1.437   3.475  -0.469  0.00  0.00    +0.045 A 
ATOM     15  C   LIG    1        2.290   0.086   0.980  0.00  0.00    -0.006 A 
ATOM     16  C   LIG    1        2.682   4.077  -0.468  0.00  0.00    +0.122 A 
ENDROOT
BRANCH   9  17
ATOM     17  N   LIG    1        1.906  -3.906   2.429  0.00  0.00    +0.006 N 
ATOM     18  O   LIG    1        0.883  -4.537   2.231  0.00  0.00    -0.130 OA
BRANCH  17  19
ATOM     19  O   LIG    1        2.826  -4.415   3.045  0.00  0.00    -0.396 OA
ATOM     20  H   LIG    1        3.612  -3.930   3.197  0.00  0.00    +0.329 HD
ENDBRANCH  17  19
ENDBRANCH   9  17
BRANCH  16  21
ATOM     21  N   LIG    1        2.831   5.462  -0.967  0.00  0.00    +0.006 N 
ATOM     22  O   LIG    1        1.858   6.070  -1.378  0.00  0.00    -0.130 OA
BRANCH  21  23
ATOM     23  O   LIG    1        3.926   5.995  -0.967  0.00  0.00    -0.396 OA
ATOM     24  H   LIG    1        4.674   5.528  -0.651  0.00  0.00    +0.329 HD
ENDBRANCH  21  23
ENDBRANCH  16  21
TORSDOF 4
