REMARK  Name = ZINC01430601
REMARK                            x       y       z     vdW  Elec       q    Type
REMARK                         _______ _______ _______ _____ _____    ______ ____
ROOT
ATOM      1  N   LIG    1        1.151   2.114   0.002  0.00  0.00    -0.246 N 
ATOM      2  C   LIG    1       -0.018   1.453   0.010  0.00  0.00    +0.270 A 
ATOM      3  C   LIG    1        0.002  -0.004   0.002  0.00  0.00    +0.056 A 
ATOM      4  C   LIG    1       -1.070  -0.923   0.007  0.00  0.00    +0.017 A 
ATOM      5  C   LIG    1       -0.834  -2.262  -0.003  0.00  0.00    +0.039 A 
ATOM      6  C   LIG    1        0.461  -2.771  -0.018  0.00  0.00    +0.125 A 
ATOM      7  F   LIG    1        0.666  -4.106  -0.027  0.00  0.00    -0.205 F 
ATOM      8  C   LIG    1        1.537  -1.901  -0.023  0.00  0.00    +0.055 A 
ATOM      9  C   LIG    1        1.308  -0.541  -0.013  0.00  0.00    +0.044 A 
ATOM     10  O   LIG    1       -1.075   2.060   0.018  0.00  0.00    -0.266 OA
ATOM     11  S   LIG    1        2.346   0.895  -0.016  0.00  0.00    -0.003 S 
ENDROOT
BRANCH   1  18
ATOM     12  C   LIG    1        0.362   4.342  -0.492  0.00  0.00    +0.028 A 
ATOM     13  C   LIG    1        0.556   5.709  -0.481  0.00  0.00    +0.022 A 
ATOM     14  C   LIG    1        1.733   6.239   0.018  0.00  0.00    +0.041 A 
ATOM     15 CL   LIG    1        1.975   7.957   0.024  0.00  0.00    -0.084 Cl
ATOM     16  C   LIG    1        2.717   5.400   0.511  0.00  0.00    +0.022 A 
ATOM     17  C   LIG    1        2.527   4.032   0.507  0.00  0.00    +0.028 A 
ATOM     18  C   LIG    1        1.346   3.498   0.008  0.00  0.00    +0.057 A 
ENDBRANCH   1  18
TORSDOF 1
