REMARK  Name = ZINC01529592
REMARK                            x       y       z     vdW  Elec       q    Type
REMARK                         _______ _______ _______ _____ _____    ______ ____
ROOT
ATOM      1  C   LIG    1       -0.017   1.378   0.010  0.00  0.00    +0.000 A 
ATOM      2  C   LIG    1        1.171   2.086   0.002  0.00  0.00    +0.000 A 
ATOM      3  C   LIG    1        2.377   1.411  -0.013  0.00  0.00    +0.005 A 
ATOM      4  C   LIG    1        2.396   0.029  -0.020  0.00  0.00    -0.028 A 
ATOM      5  C   LIG    1        1.208  -0.679  -0.012  0.00  0.00    +0.005 A 
ATOM      6  C   LIG    1        0.002  -0.004   0.002  0.00  0.00    +0.000 A 
ENDROOT
BRANCH   4   7
ATOM      7  C   LIG    1        3.711  -0.707  -0.038  0.00  0.00    +0.157 C 
BRANCH   7   8
ATOM      8  N   LIG    1        4.152  -0.952   1.338  0.00  0.00    -0.341 N 
ATOM      9  H   LIG    1        3.610  -0.648   2.082  0.00  0.00    +0.170 HD
ATOM     10  C   LIG    1        5.227  -1.554   1.552  0.00  0.00    +0.012 C 
ATOM     11  S   LIG    1        6.563  -2.300   1.818  0.00  0.00    +0.018 S 
ENDBRANCH   7   8
ENDBRANCH   4   7
TORSDOF 2
