REMARK  Name = ZINC01489691
REMARK                            x       y       z     vdW  Elec       q    Type
REMARK                         _______ _______ _______ _____ _____    ______ ____
ROOT
ATOM      1  C   LIG    1        3.661  -4.516   1.861  0.00  0.00    +0.082 A 
ATOM      2  C   LIG    1        3.426  -4.687   0.487  0.00  0.00    +0.063 A 
ATOM      3  C   LIG    1        2.370  -5.499   0.062  0.00  0.00    +0.018 A 
ATOM      4  C   LIG    1        1.564  -6.121   0.989  0.00  0.00    +0.042 A 
ATOM      5  C   LIG    1        1.794  -5.947   2.347  0.00  0.00    +0.160 A 
ATOM      6  F   LIG    1        0.996  -6.563   3.247  0.00  0.00    -0.202 F 
ATOM      7  C   LIG    1        2.835  -5.147   2.784  0.00  0.00    +0.180 A 
ATOM      8  F   LIG    1        3.051  -4.983   4.107  0.00  0.00    -0.201 F 
ENDROOT
BRANCH   2   9
ATOM      9  C   LIG    1        4.292  -4.020  -0.500  0.00  0.00    +0.269 C 
ATOM     10  N   LIG    1        4.140  -4.280  -1.814  0.00  0.00    -0.191 N 
ATOM     11  H   LIG    1        3.461  -4.907  -2.109  0.00  0.00    +0.183 HD
ATOM     12  O   LIG    1        5.144  -3.235  -0.131  0.00  0.00    -0.268 OA
BRANCH  10  13
ATOM     13  O   LIG    1        4.972  -3.639  -2.764  0.00  0.00    -0.279 OA
BRANCH  13  14
ATOM     14  C   LIG    1        4.701  -4.008  -4.117  0.00  0.00    +0.193 C 
BRANCH  14  15
ATOM     15  C   LIG    1        5.654  -3.259  -5.051  0.00  0.00    +0.017 C 
ATOM     16  C   LIG    1        5.039  -2.270  -6.043  0.00  0.00    +0.006 C 
ATOM     17  C   LIG    1        5.601  -3.604  -6.540  0.00  0.00    +0.006 C 
ENDBRANCH  14  15
ENDBRANCH  13  14
ENDBRANCH  10  13
ENDBRANCH   2   9
BRANCH   1  18
ATOM     18  N   LIG    1        4.712  -3.716   2.296  0.00  0.00    -0.310 N 
ATOM     19  H   LIG    1        4.553  -2.787   2.524  0.00  0.00    +0.152 HD
BRANCH  18  22
ATOM     20  C   LIG    1        7.530  -6.066   2.067  0.00  0.00    +0.016 A 
ATOM     21  C   LIG    1        6.257  -5.540   1.958  0.00  0.00    +0.026 A 
ATOM     22  C   LIG    1        6.000  -4.252   2.405  0.00  0.00    +0.050 A 
ATOM     23  C   LIG    1        7.025  -3.492   2.957  0.00  0.00    +0.063 A 
ATOM     24 CL   LIG    1        6.710  -1.877   3.511  0.00  0.00    -0.082 Cl
ATOM     25  C   LIG    1        8.295  -4.026   3.067  0.00  0.00    +0.036 A 
ATOM     26  C   LIG    1        8.548  -5.311   2.620  0.00  0.00    +0.015 A 
ATOM     27  I   LIG    1       10.476  -6.114   2.783  0.00  0.00    -0.044 I 
ENDBRANCH  18  22
ENDBRANCH   1  18
TORSDOF 6
