REMARK  Name = ZINC01482083
REMARK                            x       y       z     vdW  Elec       q    Type
REMARK                         _______ _______ _______ _____ _____    ______ ____
ROOT
ATOM      1  C   LIG    1       -1.829   0.799  -0.085  0.00  0.00    +0.179 C 
ATOM      2  C   LIG    1       -0.423   1.241  -0.220  0.00  0.00    -0.011 A 
ATOM      3  C   LIG    1        0.452   0.164  -0.472  0.00  0.00    +0.007 A 
ATOM      4  C   LIG    1        1.783   0.366  -0.740  0.00  0.00    +0.000 A 
ATOM      5  C   LIG    1        2.267   1.662  -0.754  0.00  0.00    +0.000 A 
ATOM      6  C   LIG    1        1.413   2.696  -0.476  0.00  0.00    +0.004 A 
ATOM      7  C   LIG    1        0.046   2.482  -0.176  0.00  0.00    -0.041 A 
ATOM      8  C   LIG    1       -0.595   3.801   0.197  0.00  0.00    +0.040 C 
ATOM      9  C   LIG    1       -1.939   4.039  -0.429  0.00  0.00    +0.040 C 
ATOM     10  C   LIG    1       -3.003   3.035  -0.039  0.00  0.00    -0.041 A 
ATOM     11  C   LIG    1       -4.220   3.715   0.208  0.00  0.00    +0.004 A 
ATOM     12  C   LIG    1       -5.390   3.045   0.448  0.00  0.00    +0.000 A 
ATOM     13  C   LIG    1       -5.384   1.661   0.456  0.00  0.00    +0.000 A 
ATOM     14  C   LIG    1       -4.195   1.007   0.256  0.00  0.00    +0.007 A 
ATOM     15  C   LIG    1       -2.990   1.708   0.033  0.00  0.00    -0.011 A 
ENDROOT
BRANCH   1  16
ATOM     16  O   LIG    1       -2.094  -0.047  -1.205  0.00  0.00    -0.364 OA
BRANCH  16  22
ATOM     17  C   LIG    1       -2.495   1.119  -6.688  0.00  0.00    -0.096 C 
ATOM     18  N   LIG    1       -2.499   0.561  -5.319  0.00  0.00    +0.378 N 
ATOM     19  H   LIG    1       -2.876  -0.393  -5.349  0.00  0.00    -0.082 HD
ATOM     20  C   LIG    1       -3.354   1.387  -4.440  0.00  0.00    -0.077 C 
ATOM     21  C   LIG    1       -3.436   0.725  -3.063  0.00  0.00    +0.013 C 
ATOM     22  C   LIG    1       -2.030   0.622  -2.467  0.00  0.00    +0.116 C 
ATOM     23  C   LIG    1       -1.135  -0.172  -3.422  0.00  0.00    +0.013 C 
ATOM     24  C   LIG    1       -1.120   0.516  -4.789  0.00  0.00    -0.077 C 
ENDBRANCH  16  22
ENDBRANCH   1  16
TORSDOF 2
