REMARK  Name = ZINC01485260
REMARK                            x       y       z     vdW  Elec       q    Type
REMARK                         _______ _______ _______ _____ _____    ______ ____
ROOT
ATOM      1  N   LIG    1        0.713   0.580   2.086  0.00  0.00    -0.347 N 
ATOM      2  C   LIG    1        0.302  -0.564   2.683  0.00  0.00    +0.098 A 
ATOM      3  C   LIG    1        1.223  -0.958   3.611  0.00  0.00    +0.047 A 
ATOM      4  C   LIG    1        2.298   0.051   3.585  0.00  0.00    +0.011 A 
ATOM      5  C   LIG    1        3.490   0.213   4.287  0.00  0.00    +0.011 A 
ATOM      6  C   LIG    1        4.297   1.298   4.019  0.00  0.00    +0.001 A 
ATOM      7  C   LIG    1        3.927   2.224   3.056  0.00  0.00    +0.002 A 
ATOM      8  C   LIG    1        2.750   2.076   2.354  0.00  0.00    +0.026 A 
ATOM      9  C   LIG    1        1.922   0.989   2.610  0.00  0.00    +0.050 A 
ENDROOT
BRANCH   3  10
ATOM     10  C   LIG    1        1.154  -2.147   4.470  0.00  0.00    +0.196 C 
ATOM     11  O   LIG    1        2.081  -2.417   5.210  0.00  0.00    -0.287 OA
BRANCH  10  12
ATOM     12  C   LIG    1       -0.039  -3.013   4.435  0.00  0.00    +0.030 A 
ATOM     13  C   LIG    1       -0.980  -2.965   5.457  0.00  0.00    +0.012 A 
ATOM     14  C   LIG    1       -2.106  -3.776   5.418  0.00  0.00    +0.001 A 
ATOM     15  C   LIG    1       -2.326  -4.651   4.398  0.00  0.00    +0.008 A 
ATOM     16  C   LIG    1       -1.413  -4.757   3.335  0.00  0.00    -0.017 A 
ATOM     17  C   LIG    1       -1.627  -5.654   2.275  0.00  0.00    +0.008 A 
ATOM     18  C   LIG    1       -0.720  -5.728   1.262  0.00  0.00    +0.001 A 
ATOM     19  C   LIG    1        0.419  -4.926   1.259  0.00  0.00    +0.001 A 
ATOM     20  C   LIG    1        0.657  -4.045   2.272  0.00  0.00    +0.009 A 
ATOM     21  C   LIG    1       -0.254  -3.943   3.329  0.00  0.00    -0.007 A 
ENDBRANCH  10  12
ENDBRANCH   3  10
BRANCH   1  22
ATOM     22  C   LIG    1       -0.026   1.287   1.037  0.00  0.00    +0.106 C 
BRANCH  22  26
ATOM     23  C   LIG    1       -0.127   3.168  -1.053  0.00  0.00    -0.096 C 
ATOM     24  N   LIG    1       -0.130   1.725  -1.370  0.00  0.00    +0.381 N 
ATOM     25  H   LIG    1       -1.101   1.393  -1.400  0.00  0.00    -0.082 HD
ATOM     26  C   LIG    1        0.600   0.977  -0.324  0.00  0.00    -0.049 C 
ATOM     27  C   LIG    1        0.481  -0.522  -0.611  0.00  0.00    -0.014 C 
ATOM     28  C   LIG    1        1.090  -0.825  -1.983  0.00  0.00    -0.003 C 
ATOM     29  C   LIG    1        0.374   0.012  -3.046  0.00  0.00    -0.019 C 
ATOM     30  C   LIG    1        0.496   1.496  -2.689  0.00  0.00    -0.079 C 
ENDBRANCH  22  26
ENDBRANCH   1  22
TORSDOF 4
