REMARK  Name = ZINC01593750
REMARK                            x       y       z     vdW  Elec       q    Type
REMARK                         _______ _______ _______ _____ _____    ______ ____
ROOT
ATOM      1  N   LIG    1        2.388   1.349   0.420  0.00  0.00    +0.383 N 
ATOM      2  H   LIG    1        2.257   1.070   1.399  0.00  0.00    -0.081 HD
ATOM      3  C   LIG    1        1.252   2.186   0.002  0.00  0.00    -0.043 C 
ATOM      4  C   LIG    1       -0.017   1.374   0.010  0.00  0.00    -0.061 A 
ATOM      5  C   LIG    1       -1.231   2.046   0.019  0.00  0.00    +0.002 A 
ATOM      6  C   LIG    1       -2.418   1.341   0.025  0.00  0.00    +0.000 A 
ATOM      7  C   LIG    1       -2.398  -0.041   0.014  0.00  0.00    +0.000 A 
ATOM      8  C   LIG    1       -1.191  -0.711   0.003  0.00  0.00    +0.004 A 
ATOM      9  C   LIG    1        0.002  -0.004   0.002  0.00  0.00    -0.048 A 
ATOM     10  C   LIG    1        1.296  -0.778  -0.006  0.00  0.00    +0.017 C 
ATOM     11  C   LIG    1        2.448   0.137  -0.422  0.00  0.00    -0.074 C 
ENDROOT
BRANCH   1  12
ATOM     12  C   LIG    1        3.651   2.112   0.301  0.00  0.00    -0.074 C 
BRANCH  12  13
ATOM     13  C   LIG    1        3.658   3.229   1.347  0.00  0.00    +0.016 C 
BRANCH  13  17
ATOM     14  C   LIG    1        7.311   5.424   1.065  0.00  0.00    +0.000 A 
ATOM     15  C   LIG    1        6.213   5.812   0.321  0.00  0.00    +0.000 A 
ATOM     16  C   LIG    1        5.030   5.101   0.412  0.00  0.00    +0.003 A 
ATOM     17  C   LIG    1        4.947   4.003   1.248  0.00  0.00    -0.049 A 
ATOM     18  C   LIG    1        6.043   3.619   1.996  0.00  0.00    +0.003 A 
ATOM     19  C   LIG    1        7.227   4.326   1.901  0.00  0.00    +0.000 A 
ENDBRANCH  13  17
ENDBRANCH  12  13
ENDBRANCH   1  12
TORSDOF 3
