REMARK  Name = ZINC01488192
REMARK                            x       y       z     vdW  Elec       q    Type
REMARK                         _______ _______ _______ _____ _____    ______ ____
ROOT
ATOM      1  C   LIG    1        2.436   3.950  -0.017  0.00  0.00    +0.166 C 
ENDROOT
BRANCH   1   2
ATOM      2  C   LIG    1        2.949   4.320   1.351  0.00  0.00    -0.007 A 
ATOM      3  C   LIG    1        2.536   3.606   2.460  0.00  0.00    +0.007 A 
ATOM      4  C   LIG    1        3.011   3.942   3.714  0.00  0.00    +0.000 A 
ATOM      5  C   LIG    1        3.889   4.999   3.861  0.00  0.00    +0.000 A 
ATOM      6  C   LIG    1        4.298   5.716   2.752  0.00  0.00    +0.000 A 
ATOM      7  C   LIG    1        3.828   5.377   1.497  0.00  0.00    +0.007 A 
ENDBRANCH   1   2
BRANCH   1   8
ATOM      8  C   LIG    1        0.942   3.763   0.041  0.00  0.00    -0.007 A 
ATOM      9  C   LIG    1        0.140   4.757   0.569  0.00  0.00    +0.007 A 
ATOM     10  C   LIG    1       -1.230   4.585   0.622  0.00  0.00    +0.000 A 
ATOM     11  C   LIG    1       -1.799   3.417   0.151  0.00  0.00    +0.000 A 
ATOM     12  C   LIG    1       -0.998   2.425  -0.382  0.00  0.00    +0.000 A 
ATOM     13  C   LIG    1        0.372   2.596  -0.436  0.00  0.00    +0.007 A 
ENDBRANCH   1   8
BRANCH   1  14
ATOM     14  C   LIG    1        2.772   5.067  -1.007  0.00  0.00    +0.325 C 
BRANCH  14  15
ATOM     15  C   LIG    1        2.167   4.748  -2.349  0.00  0.00    +0.350 C 
ATOM     16  O   LIG    1        1.297   5.454  -2.803  0.00  0.00    -0.247 OA
BRANCH  15  17
ATOM     17  O   LIG    1        2.592   3.679  -3.041  0.00  0.00    -0.478 OA
ATOM     18  H   LIG    1        3.266   3.131  -2.689  0.00  0.00    +0.295 HD
ENDBRANCH  15  17
ENDBRANCH  14  15
BRANCH  14  19
ATOM     19  O   LIG    1        2.242   6.304  -0.527  0.00  0.00    -0.444 OA
BRANCH  19  26
ATOM     20  C   LIG    1        5.917   8.303  -2.808  0.00  0.00    +0.066 C 
ATOM     21  C   LIG    1        4.676   8.420  -1.961  0.00  0.00    +0.045 A 
ATOM     22  C   LIG    1        4.230   9.662  -1.537  0.00  0.00    +0.046 A 
ATOM     23  C   LIG    1        3.085   9.724  -0.759  0.00  0.00    +0.045 A 
ATOM     24  C   LIG    1        2.561  11.052  -0.276  0.00  0.00    +0.066 C 
ATOM     25  N   LIG    1        2.456   8.602  -0.446  0.00  0.00    -0.200 NA
ATOM     26  C   LIG    1        2.910   7.433  -0.867  0.00  0.00    +0.319 A 
ATOM     27  N   LIG    1        4.002   7.338  -1.607  0.00  0.00    -0.200 NA
ENDBRANCH  19  26
ENDBRANCH  14  19
ENDBRANCH   1  14
BRANCH   1  28
ATOM     28  O   LIG    1        3.052   2.733  -0.444  0.00  0.00    -0.359 OA
BRANCH  28  29
ATOM     29  C   LIG    1        4.481   2.764  -0.414  0.00  0.00    +0.166 C 
BRANCH  29  30
ATOM     30  C   LIG    1        5.031   1.475  -1.027  0.00  0.00    +0.063 C 
BRANCH  30  31
ATOM     31  C   LIG    1        6.538   1.507  -0.996  0.00  0.00    -0.042 A 
ATOM     32  C   LIG    1        7.239   2.035  -2.064  0.00  0.00    +0.007 A 
ATOM     33  C   LIG    1        8.620   2.072  -2.037  0.00  0.00    +0.049 A 
ATOM     34  C   LIG    1        9.306   1.569  -0.943  0.00  0.00    +0.161 A 
ATOM     35  C   LIG    1        8.601   1.032   0.129  0.00  0.00    +0.162 A 
ATOM     36  C   LIG    1        7.215   1.003   0.099  0.00  0.00    +0.053 A 
BRANCH  34  37
ATOM     37  O   LIG    1       10.665   1.600  -0.918  0.00  0.00    -0.491 OA
ATOM     38  C   LIG    1       11.323   2.165  -2.054  0.00  0.00    +0.277 C 
ENDBRANCH  34  37
BRANCH  35  39
ATOM     39  O   LIG    1        9.269   0.537   1.205  0.00  0.00    -0.491 OA
ATOM     40  C   LIG    1        8.479   0.003   2.270  0.00  0.00    +0.277 C 
ENDBRANCH  35  39
ENDBRANCH  30  31
ENDBRANCH  29  30
ENDBRANCH  28  29
ENDBRANCH   1  28
TORSDOF 13
