REMARK  Name = ZINC01571103
REMARK                            x       y       z     vdW  Elec       q    Type
REMARK                         _______ _______ _______ _____ _____    ______ ____
ROOT
ATOM      1  N   LIG    1       -0.091   5.745  -0.570  0.00  0.00    -0.246 N 
ATOM      2  H   LIG    1       -0.606   6.408  -1.056  0.00  0.00    +0.265 HD
ENDROOT
BRANCH   1   8
ATOM      3  C   LIG    1       -1.221   2.041  -3.600  0.00  0.00    +0.044 C 
ATOM      4  C   LIG    1       -0.257   2.730  -2.668  0.00  0.00    -0.047 A 
ATOM      5  C   LIG    1        0.988   2.177  -2.430  0.00  0.00    +0.003 A 
ATOM      6  C   LIG    1        1.878   2.808  -1.581  0.00  0.00    +0.004 A 
ATOM      7  C   LIG    1        1.523   3.992  -0.963  0.00  0.00    +0.042 A 
ATOM      8  C   LIG    1        0.271   4.547  -1.195  0.00  0.00    +0.100 A 
ATOM      9  C   LIG    1       -0.620   3.909  -2.049  0.00  0.00    +0.045 A 
ENDBRANCH   1   8
BRANCH   1  10
ATOM     10  C   LIG    1        0.282   5.981   0.733  0.00  0.00    +0.346 C 
ATOM     11  N   LIG    1        0.013   7.180   1.229  0.00  0.00    -0.292 N 
ATOM     12  H   LIG    1       -0.454   7.884   0.646  0.00  0.00    +0.255 HD
ATOM     13  H   LIG    1        0.271   7.404   2.191  0.00  0.00    +0.255 HD
BRANCH  10  14
ATOM     14  N   LIG    1        0.906   4.995   1.460  0.00  0.00    -0.292 N 
ATOM     15  H   LIG    1        1.316   5.206   2.313  0.00  0.00    +0.255 HD
ATOM     16  H   LIG    1        0.936   4.087   1.119  0.00  0.00    +0.255 HD
ENDBRANCH  10  14
ENDBRANCH   1  10
TORSDOF 3
