REMARK  Name = ZINC01452237
REMARK                            x       y       z     vdW  Elec       q    Type
REMARK                         _______ _______ _______ _____ _____    ______ ____
ROOT
ATOM      1  C   LIG    1        1.980  -2.451  -0.405  0.00  0.00    +0.023 C 
ATOM      2  C   LIG    1        1.283  -1.289  -0.560  0.00  0.00    +0.079 C 
ATOM      3  C   LIG    1       -0.170  -1.071  -0.740  0.00  0.00    +0.276 C 
ATOM      4  N   LIG    1       -0.562   0.177  -0.867  0.00  0.00    -0.154 NA
ATOM      5  C   LIG    1        0.285   1.194  -0.837  0.00  0.00    +0.156 C 
ATOM      6  O   LIG    1       -0.961  -2.001  -0.769  0.00  0.00    -0.267 OA
ATOM      7  S   LIG    1        1.868   0.401  -0.604  0.00  0.00    -0.051 S 
ENDROOT
BRANCH   1   9
ATOM      8  C   LIG    1        4.168  -1.811  -1.491  0.00  0.00    +0.044 C 
ATOM      9  C   LIG    1        3.388  -2.428  -0.359  0.00  0.00    -0.049 C 
ATOM     10  C   LIG    1        4.040  -2.960   0.702  0.00  0.00    +0.011 C 
BRANCH  10  11
ATOM     11  C   LIG    1        3.278  -3.512   1.831  0.00  0.00    -0.025 A 
ATOM     12  C   LIG    1        2.064  -2.929   2.213  0.00  0.00    +0.008 A 
ATOM     13  C   LIG    1        1.353  -3.456   3.270  0.00  0.00    +0.001 A 
ATOM     14  C   LIG    1        1.843  -4.552   3.960  0.00  0.00    +0.000 A 
ATOM     15  C   LIG    1        3.045  -5.131   3.593  0.00  0.00    +0.001 A 
ATOM     16  C   LIG    1        3.765  -4.620   2.534  0.00  0.00    +0.008 A 
ENDBRANCH  10  11
ENDBRANCH   1   9
BRANCH   5  17
ATOM     17  N   LIG    1        0.013   2.533  -0.956  0.00  0.00    -0.294 N 
ATOM     18  H   LIG    1        0.740   3.174  -0.995  0.00  0.00    +0.154 HD
BRANCH  17  19
ATOM     19  C   LIG    1       -1.312   2.974  -1.022  0.00  0.00    +0.051 A 
ATOM     20  C   LIG    1       -2.354   2.082  -0.805  0.00  0.00    +0.025 A 
ATOM     21  C   LIG    1       -3.662   2.520  -0.872  0.00  0.00    +0.002 A 
ATOM     22  C   LIG    1       -3.936   3.846  -1.153  0.00  0.00    +0.002 A 
ATOM     23  C   LIG    1       -2.901   4.738  -1.370  0.00  0.00    +0.022 A 
ATOM     24  C   LIG    1       -1.590   4.307  -1.300  0.00  0.00    +0.062 A 
ATOM     25 CL   LIG    1       -0.291   5.428  -1.565  0.00  0.00    -0.082 Cl
ENDBRANCH  17  19
ENDBRANCH   5  17
TORSDOF 4
