REMARK  Name = ZINC01666223
REMARK                            x       y       z     vdW  Elec       q    Type
REMARK                         _______ _______ _______ _____ _____    ______ ____
ROOT
ATOM      1  C   LIG    1        4.354   2.577   1.656  0.00  0.00    +0.094 A 
ATOM      2  C   LIG    1        3.917   3.705   2.326  0.00  0.00    +0.029 A 
ATOM      3  C   LIG    1        4.279   3.911   3.643  0.00  0.00    +0.025 A 
ATOM      4  C   LIG    1        5.083   2.984   4.294  0.00  0.00    +0.028 A 
ATOM      5  C   LIG    1        5.521   1.852   3.617  0.00  0.00    +0.025 A 
ATOM      6  C   LIG    1        5.151   1.650   2.302  0.00  0.00    +0.029 A 
ENDROOT
BRANCH   1   7
ATOM      7  S   LIG    1        3.890   2.319  -0.024  0.00  0.00    +0.025 S 
ATOM      8  O   LIG    1        3.595   3.599  -0.566  0.00  0.00    -0.164 OA
ATOM      9  O   LIG    1        4.872   1.461  -0.589  0.00  0.00    -0.164 OA
BRANCH   7  12
ATOM     10  C   LIG    1       -0.017   1.385   0.010  0.00  0.00    +0.024 A 
ATOM     11  C   LIG    1        1.171   2.090   0.002  0.00  0.00    +0.029 A 
ATOM     12  C   LIG    1        2.377   1.415  -0.013  0.00  0.00    +0.094 A 
ATOM     13  C   LIG    1        2.400   0.032  -0.021  0.00  0.00    +0.029 A 
ATOM     14  C   LIG    1        1.216  -0.679  -0.014  0.00  0.00    +0.024 A 
ATOM     15  C   LIG    1        0.002  -0.004   0.002  0.00  0.00    +0.025 A 
BRANCH  15  16
ATOM     16  N   LIG    1       -1.197  -0.720   0.010  0.00  0.00    -0.358 N 
ATOM     17  H   LIG    1       -1.183  -1.690   0.005  0.00  0.00    +0.142 HD
ATOM     18  H   LIG    1       -2.044  -0.248   0.021  0.00  0.00    +0.142 HD
ENDBRANCH  15  16
ENDBRANCH   7  12
ENDBRANCH   1   7
BRANCH   4  19
ATOM     19  N   LIG    1        5.452   3.189   5.625  0.00  0.00    -0.328 N 
ATOM     20  H   LIG    1        5.146   3.979   6.097  0.00  0.00    +0.148 HD
BRANCH  19  21
ATOM     21  C   LIG    1        6.300   2.210   6.310  0.00  0.00    +0.223 C 
BRANCH  21  22
ATOM     22  N   LIG    1        7.700   2.632   6.223  0.00  0.00    -0.201 N 
ATOM     23  C   LIG    1        8.451   2.228   5.175  0.00  0.00    +0.300 C 
ATOM     24  C   LIG    1        9.879   2.687   5.132  0.00  0.00    +0.299 C 
ATOM     25  C   LIG    1       10.338   3.554   6.259  0.00  0.00    +0.259 C 
ATOM     26  N   LIG    1        9.476   3.854   7.200  0.00  0.00    -0.124 NA
ATOM     27  O   LIG    1       10.620   2.372   4.231  0.00  0.00    -0.277 OA
ATOM     28  O   LIG    1        7.989   1.521   4.304  0.00  0.00    -0.266 OA
ATOM     29  C   LIG    1        8.212   3.418   7.181  0.00  0.00    +0.337 C 
ATOM     30  O   LIG    1        7.481   3.751   8.094  0.00  0.00    -0.250 OA
BRANCH  25  31
ATOM     31  O   LIG    1       11.603   4.015   6.306  0.00  0.00    -0.491 OA
ATOM     32  H   LIG    1       12.209   3.793   5.627  0.00  0.00    +0.294 HD
ENDBRANCH  25  31
ENDBRANCH  21  22
ENDBRANCH  19  21
ENDBRANCH   4  19
TORSDOF 7
