REMARK  Name = ZINC01636901
REMARK                            x       y       z     vdW  Elec       q    Type
REMARK                         _______ _______ _______ _____ _____    ______ ____
ROOT
ATOM      1  N   LIG    1       -0.018   1.461   0.010  0.00  0.00    -0.296 N 
ATOM      2  C   LIG    1       -1.250   2.124   0.020  0.00  0.00    +0.048 A 
ATOM      3  C   LIG    1       -2.322   1.624  -0.696  0.00  0.00    +0.024 A 
ATOM      4  C   LIG    1       -3.537   2.286  -0.678  0.00  0.00    +0.002 A 
ATOM      5  C   LIG    1       -3.691   3.446   0.056  0.00  0.00    +0.001 A 
ATOM      6  C   LIG    1       -2.626   3.955   0.782  0.00  0.00    +0.017 A 
ATOM      7  C   LIG    1       -1.411   3.297   0.767  0.00  0.00    +0.034 A 
ATOM      8  S   LIG    1       -0.035   3.920   1.682  0.00  0.00    -0.086 S 
ATOM      9  C   LIG    1        1.339   3.334   0.742  0.00  0.00    +0.034 A 
ATOM     10  C   LIG    1        2.537   4.024   0.735  0.00  0.00    +0.017 A 
ATOM     11  C   LIG    1        3.601   3.544  -0.011  0.00  0.00    +0.001 A 
ATOM     12  C   LIG    1        3.464   2.381  -0.744  0.00  0.00    +0.002 A 
ATOM     13  C   LIG    1        2.267   1.686  -0.741  0.00  0.00    +0.024 A 
ATOM     14  C   LIG    1        1.196   2.157   0.002  0.00  0.00    +0.048 A 
ENDROOT
BRANCH   1  15
ATOM     15  C   LIG    1        0.002  -0.004   0.002  0.00  0.00    +0.142 C 
BRANCH  15  17
ATOM     16  C   LIG    1        0.169  -2.045   1.434  0.00  0.00    +0.039 C 
ATOM     17  C   LIG    1        0.023  -0.522   1.442  0.00  0.00    +0.129 C 
BRANCH  17  18
ATOM     18  O   LIG    1       -1.197  -0.164   2.094  0.00  0.00    -0.390 OA
ATOM     19  H   LIG    1       -1.254  -0.461   3.013  0.00  0.00    +0.210 HD
ENDBRANCH  17  18
ENDBRANCH  15  17
ENDBRANCH   1  15
TORSDOF 3
