REMARK  Name = ZINC01552537
REMARK                            x       y       z     vdW  Elec       q    Type
REMARK                         _______ _______ _______ _____ _____    ______ ____
ROOT
ATOM      1  C   LIG    1        4.040  -1.447  -0.043  0.00  0.00    +0.044 C 
ENDROOT
BRANCH   1   2
ATOM      2  C   LIG    1        2.555  -1.813  -0.031  0.00  0.00    +0.229 C 
BRANCH   2   3
ATOM      3  O   LIG    1        1.770  -0.619  -0.017  0.00  0.00    -0.490 OA
BRANCH   3   6
ATOM      4  C   LIG    1       -1.507  -2.195   0.001  0.00  0.00    +0.019 A 
ATOM      5  C   LIG    1       -0.137  -2.038  -0.006  0.00  0.00    +0.048 A 
ATOM      6  C   LIG    1        0.419  -0.768  -0.005  0.00  0.00    +0.141 A 
ATOM      7  C   LIG    1       -0.406   0.357   0.009  0.00  0.00    +0.068 A 
ATOM      8  C   LIG    1       -1.781   0.205   0.021  0.00  0.00    +0.042 A 
ATOM      9  C   LIG    1       -2.338  -1.075   0.019  0.00  0.00    +0.063 A 
BRANCH   9  10
ATOM     10  C   LIG    1       -3.808  -1.242   0.032  0.00  0.00    +0.266 C 
ATOM     11  N   LIG    1       -4.541  -0.139   0.045  0.00  0.00    -0.288 N 
ATOM     12  H   LIG    1       -4.084   0.781   0.046  0.00  0.00    +0.301 HD
ATOM     13  H   LIG    1       -5.559  -0.202   0.054  0.00  0.00    +0.301 HD
BRANCH  10  14
ATOM     14  N   LIG    1       -4.357  -2.506   0.031  0.00  0.00    -0.250 N 
ATOM     15  H   LIG    1       -5.321  -2.616   0.039  0.00  0.00    +0.288 HD
ATOM     16  H   LIG    1       -3.780  -3.286   0.021  0.00  0.00    +0.288 HD
ENDBRANCH  10  14
ENDBRANCH   9  10
BRANCH   7  17
ATOM     17  N   LIG    1        0.158   1.639   0.011  0.00  0.00    -0.355 N 
ATOM     18  H   LIG    1       -0.416   2.421   0.020  0.00  0.00    +0.142 HD
ATOM     19  H   LIG    1        1.122   1.745   0.003  0.00  0.00    +0.142 HD
ENDBRANCH   7  17
ENDBRANCH   3   6
ENDBRANCH   2   3
ENDBRANCH   1   2
BRANCH   1  20
ATOM     20  C   LIG    1        4.880  -2.725  -0.058  0.00  0.00    +0.044 C 
BRANCH  20  21
ATOM     21  C   LIG    1        6.366  -2.359  -0.071  0.00  0.00    +0.229 C 
BRANCH  21  22
ATOM     22  O   LIG    1        7.151  -3.554  -0.085  0.00  0.00    -0.490 OA
BRANCH  22  23
ATOM     23  C   LIG    1        8.501  -3.404  -0.097  0.00  0.00    +0.141 A 
ATOM     24  C   LIG    1        9.057  -2.134  -0.096  0.00  0.00    +0.048 A 
ATOM     25  C   LIG    1       10.427  -1.977  -0.108  0.00  0.00    +0.019 A 
ATOM     26  C   LIG    1       11.259  -3.098  -0.122  0.00  0.00    +0.063 A 
ATOM     27  C   LIG    1       10.701  -4.377  -0.124  0.00  0.00    +0.042 A 
ATOM     28  C   LIG    1        9.326  -4.529  -0.105  0.00  0.00    +0.068 A 
BRANCH  26  29
ATOM     29  C   LIG    1       12.728  -2.930  -0.136  0.00  0.00    +0.266 C 
ATOM     30  N   LIG    1       13.461  -4.034  -0.149  0.00  0.00    -0.288 N 
ATOM     31  H   LIG    1       13.004  -4.953  -0.149  0.00  0.00    +0.301 HD
ATOM     32  H   LIG    1       14.479  -3.970  -0.159  0.00  0.00    +0.301 HD
BRANCH  29  33
ATOM     33  N   LIG    1       13.277  -1.666  -0.135  0.00  0.00    -0.250 N 
ATOM     34  H   LIG    1       14.241  -1.556  -0.144  0.00  0.00    +0.288 HD
ATOM     35  H   LIG    1       12.700  -0.886  -0.125  0.00  0.00    +0.288 HD
ENDBRANCH  29  33
ENDBRANCH  26  29
BRANCH  28  36
ATOM     36  N   LIG    1        8.763  -5.811  -0.101  0.00  0.00    -0.355 N 
ATOM     37  H   LIG    1        9.337  -6.593  -0.107  0.00  0.00    +0.142 HD
ATOM     38  H   LIG    1        7.799  -5.917  -0.092  0.00  0.00    +0.142 HD
ENDBRANCH  28  36
ENDBRANCH  22  23
ENDBRANCH  21  22
ENDBRANCH  20  21
ENDBRANCH   1  20
TORSDOF 13
