REMARK  Name = ZINC01507097
REMARK                            x       y       z     vdW  Elec       q    Type
REMARK                         _______ _______ _______ _____ _____    ______ ____
ROOT
ATOM      1  C   LIG    1        4.748   1.222  -0.621  0.00  0.00    +0.248 C 
ATOM      2  N   LIG    1        4.851   0.008  -0.045  0.00  0.00    -0.280 N 
ATOM      3  H   LIG    1        4.100  -0.363   0.444  0.00  0.00    +0.155 HD
ATOM      4  O   LIG    1        5.715   1.724  -1.160  0.00  0.00    -0.270 OA
ENDROOT
BRANCH   2   5
ATOM      5  C   LIG    1        6.043  -0.717  -0.151  0.00  0.00    +0.053 A 
ATOM      6  C   LIG    1        7.258  -0.059  -0.153  0.00  0.00    +0.035 A 
ATOM      7  C   LIG    1        8.428  -0.833  -0.261  0.00  0.00    +0.002 A 
ATOM      8  C   LIG    1        9.699  -0.236  -0.271  0.00  0.00    +0.010 A 
ATOM      9  C   LIG    1       10.809  -1.018  -0.377  0.00  0.00    +0.001 A 
ATOM     10  C   LIG    1       10.700  -2.404  -0.477  0.00  0.00    +0.002 A 
ATOM     11  C   LIG    1        9.484  -3.015  -0.471  0.00  0.00    +0.028 A 
ATOM     12  C   LIG    1        8.314  -2.242  -0.363  0.00  0.00    +0.071 A 
ATOM     13  N   LIG    1        7.109  -2.819  -0.355  0.00  0.00    -0.253 NA
ATOM     14  C   LIG    1        6.011  -2.113  -0.249  0.00  0.00    +0.134 A 
ENDBRANCH   2   5
BRANCH   1  18
ATOM     15  C   LIG    1        1.041   3.295  -0.554  0.00  0.00    +0.000 A 
ATOM     16  C   LIG    1        1.144   2.049   0.039  0.00  0.00    +0.001 A 
ATOM     17  C   LIG    1        2.345   1.371   0.020  0.00  0.00    +0.013 A 
ATOM     18  C   LIG    1        3.458   1.944  -0.598  0.00  0.00    +0.037 A 
ATOM     19  C   LIG    1        3.347   3.201  -1.194  0.00  0.00    +0.013 A 
ATOM     20  C   LIG    1        2.140   3.869  -1.168  0.00  0.00    +0.001 A 
ENDBRANCH   1  18
TORSDOF 2
