REMARK  Name = ZINC01627642
REMARK                            x       y       z     vdW  Elec       q    Type
REMARK                         _______ _______ _______ _____ _____    ______ ____
ROOT
ATOM      1  C   LIG    1       -2.440  11.327  -0.690  0.00  0.00    +0.051 C 
ATOM      2  C   LIG    1       -2.094   9.860  -0.690  0.00  0.00    +0.033 A 
ATOM      3  C   LIG    1       -2.519   9.046  -1.732  0.00  0.00    +0.130 A 
ATOM      4  C   LIG    1       -2.211   7.692  -1.745  0.00  0.00    +0.092 A 
ATOM      5  C   LIG    1       -1.474   7.136  -0.715  0.00  0.00    +0.139 A 
ATOM      6  C   LIG    1       -1.036   7.958   0.340  0.00  0.00    +0.101 A 
ATOM      7  C   LIG    1       -0.242   7.366   1.422  0.00  0.00    +0.174 C 
ATOM      8  C   LIG    1       -0.191   5.850   1.477  0.00  0.00    +0.129 C 
ATOM      9  C   LIG    1       -0.070   5.347   0.031  0.00  0.00    +0.211 C 
ATOM     10  O   LIG    1        0.344   8.054   2.233  0.00  0.00    -0.292 OA
ATOM     11  O   LIG    1       -1.188   5.812  -0.726  0.00  0.00    -0.483 OA
ATOM     12  C   LIG    1       -1.354   9.325   0.350  0.00  0.00    +0.137 A 
ENDROOT
BRANCH   9  13
ATOM     13  C   LIG    1       -0.050   3.840   0.022  0.00  0.00    -0.007 A 
ATOM     14  C   LIG    1        1.156   3.165   0.008  0.00  0.00    +0.007 A 
ATOM     15  C   LIG    1        1.175   1.783   0.000  0.00  0.00    +0.000 A 
ATOM     16  C   LIG    1       -0.013   1.076   0.008  0.00  0.00    +0.000 A 
ATOM     17  C   LIG    1       -1.219   1.751   0.017  0.00  0.00    +0.000 A 
ATOM     18  C   LIG    1       -1.238   3.133   0.029  0.00  0.00    +0.007 A 
ENDBRANCH   9  13
BRANCH   3  19
ATOM     19  O   LIG    1       -3.242   9.580  -2.749  0.00  0.00    -0.495 OA
ATOM     20  C   LIG    1       -3.650   8.691  -3.791  0.00  0.00    +0.277 C 
ENDBRANCH   3  19
BRANCH  12  21
ATOM     21  O   LIG    1       -0.939  10.116   1.370  0.00  0.00    -0.506 OA
ATOM     22  H   LIG    1       -0.073  10.522   1.226  0.00  0.00    +0.292 HD
ENDBRANCH  12  21
TORSDOF 3
