REMARK  Name = ZINC01543181
REMARK                            x       y       z     vdW  Elec       q    Type
REMARK                         _______ _______ _______ _____ _____    ______ ____
ROOT
ATOM      1  C   LIG    1       -0.611   5.346  -2.020  0.00  0.00    +0.185 C 
ENDROOT
BRANCH   1   2
ATOM      2  C   LIG    1       -0.463   3.851  -2.134  0.00  0.00    +0.238 C 
ATOM      3  N   LIG    1       -0.892   3.053  -1.136  0.00  0.00    -0.300 N 
ATOM      4  C   LIG    1       -0.755   1.594  -1.233  0.00  0.00    +0.109 C 
ATOM      5  C   LIG    1       -0.013   1.086   0.008  0.00  0.00    +0.032 C 
ATOM      6  C   LIG    1       -0.728   1.578   1.263  0.00  0.00    +0.018 C 
ATOM      7  C   LIG    1       -2.154   1.017   1.315  0.00  0.00    +0.143 C 
ATOM      8  N   LIG    1       -2.202   0.211   2.539  0.00  0.00    -0.206 N 
ATOM      9  C   LIG    1       -0.966   0.252   3.188  0.00  0.00    +0.055 A 
ATOM     10  C   LIG    1       -0.568  -0.367   4.375  0.00  0.00    +0.025 A 
ATOM     11  C   LIG    1        0.714  -0.197   4.852  0.00  0.00    +0.002 A 
ATOM     12  C   LIG    1        1.617   0.587   4.158  0.00  0.00    +0.000 A 
ATOM     13  C   LIG    1        1.232   1.202   2.981  0.00  0.00    +0.006 A 
ATOM     14  C   LIG    1       -0.759   3.104   1.300  0.00  0.00    +0.032 C 
ATOM     15  C   LIG    1       -0.052   1.035   2.498  0.00  0.00    -0.017 A 
ATOM     16  C   LIG    1       -1.506   3.628   0.069  0.00  0.00    +0.109 C 
ATOM     17  O   LIG    1        0.043   3.365  -3.124  0.00  0.00    -0.273 OA
BRANCH   8  18
ATOM     18  S   LIG    1       -3.527  -0.625   3.075  0.00  0.00    +0.043 S 
ATOM     19  C   LIG    1       -3.379  -2.268   2.319  0.00  0.00    +0.218 C 
ATOM     20  O   LIG    1       -4.639   0.068   2.526  0.00  0.00    -0.155 OA
ATOM     21  O   LIG    1       -3.354  -0.717   4.482  0.00  0.00    -0.155 OA
ENDBRANCH   8  18
ENDBRANCH   1   2
BRANCH   1  23
ATOM     22  C   LIG    1        0.577   5.786  -4.102  0.00  0.00    +0.202 C 
ATOM     23  N   LIG    1       -0.532   5.948  -3.354  0.00  0.00    -0.303 N 
ATOM     24  H   LIG    1       -1.279   6.462  -3.698  0.00  0.00    +0.149 HD
ATOM     25  O   LIG    1        1.510   5.143  -3.671  0.00  0.00    -0.277 OA
BRANCH  22  27
ATOM     26  C   LIG    1        2.124   6.630  -5.847  0.00  0.00    -0.001 C 
ATOM     27  C   LIG    1        0.657   6.405  -5.474  0.00  0.00    +0.001 C 
ATOM     28  C   LIG    1        0.009   5.467  -6.495  0.00  0.00    -0.001 C 
BRANCH  27  29
ATOM     29  N   LIG    1       -0.074   7.684  -5.465  0.00  0.00    +0.387 N 
ATOM     30  H   LIG    1       -1.046   7.515  -5.181  0.00  0.00    -0.089 HD
ATOM     31  H   LIG    1       -0.067   8.096  -6.397  0.00  0.00    -0.089 HD
ATOM     32  H   LIG    1        0.358   8.329  -4.806  0.00  0.00    -0.089 HD
ENDBRANCH  27  29
ENDBRANCH  22  27
ENDBRANCH   1  23
BRANCH   1  33
ATOM     33  C   LIG    1        0.512   5.904  -1.143  0.00  0.00    +0.192 C 
BRANCH  33  34
ATOM     34  O   LIG    1        0.306   7.304  -0.939  0.00  0.00    -0.373 OA
BRANCH  34  35
ATOM     35  C   LIG    1        1.304   7.926  -0.128  0.00  0.00    +0.195 C 
BRANCH  35  36
ATOM     36  C   LIG    1        0.989   9.392   0.020  0.00  0.00    -0.022 A 
ATOM     37  C   LIG    1        1.497  10.303  -0.888  0.00  0.00    +0.006 A 
ATOM     38  C   LIG    1        1.204  11.648  -0.755  0.00  0.00    +0.000 A 
ATOM     39  C   LIG    1        0.412  12.082   0.291  0.00  0.00    +0.000 A 
ATOM     40  C   LIG    1       -0.091  11.172   1.202  0.00  0.00    +0.000 A 
ATOM     41  C   LIG    1        0.198   9.827   1.067  0.00  0.00    +0.006 A 
ENDBRANCH  35  36
ENDBRANCH  34  35
ENDBRANCH  33  34
ENDBRANCH   1  33
TORSDOF 9
