REMARK  Name = ZINC01656422
REMARK                            x       y       z     vdW  Elec       q    Type
REMARK                         _______ _______ _______ _____ _____    ______ ____
ROOT
ATOM      1  C   LIG    1        1.417   2.032  -0.001  0.00  0.00    +0.208 C 
ENDROOT
BRANCH   1   2
ATOM      2  O   LIG    1        2.108   1.559   1.157  0.00  0.00    -0.375 OA
ATOM      3  H   LIG    1        1.709   1.834   1.994  0.00  0.00    +0.211 HD
ENDBRANCH   1   2
BRANCH   1   4
ATOM      4  C   LIG    1        2.122   1.546  -1.240  0.00  0.00    +0.341 C 
ATOM      5  O   LIG    1        1.691   1.841  -2.342  0.00  0.00    -0.248 OA
BRANCH   4   6
ATOM      6  O   LIG    1        3.124   0.858  -1.142  0.00  0.00    -0.479 OA
ATOM      7  H   LIG    1        3.455   0.632  -0.295  0.00  0.00    +0.295 HD
ENDBRANCH   4   6
ENDBRANCH   1   4
BRANCH   1   8
ATOM      8  C   LIG    1       -0.018   1.503   0.010  0.00  0.00    +0.170 C 
BRANCH   8   9
ATOM      9  C   LIG    1        0.002  -0.004   0.002  0.00  0.00    +0.308 C 
ATOM     10  O   LIG    1        1.066  -0.599  -0.011  0.00  0.00    -0.251 OA
BRANCH   9  11
ATOM     11  O   LIG    1       -1.045  -0.628   0.009  0.00  0.00    -0.481 OA
ATOM     12  H   LIG    1       -1.863  -0.171   0.019  0.00  0.00    +0.295 HD
ENDBRANCH   9  11
ENDBRANCH   8   9
ENDBRANCH   1   8
BRANCH   1  13
ATOM     13  C   LIG    1        1.396   3.562   0.008  0.00  0.00    +0.266 C 
BRANCH  13  14
ATOM     14  O   LIG    1        0.607   4.034  -1.086  0.00  0.00    -0.378 OA
ATOM     15  H   LIG    1        0.932   3.758  -1.954  0.00  0.00    +0.211 HD
ENDBRANCH  13  14
BRANCH  13  16
ATOM     16  C   LIG    1        2.804   4.084  -0.127  0.00  0.00    +0.337 C 
ATOM     17  O   LIG    1        3.127   4.718  -1.117  0.00  0.00    -0.248 OA
BRANCH  16  18
ATOM     18  O   LIG    1        3.619   3.873   0.755  0.00  0.00    -0.479 OA
ATOM     19  H   LIG    1        3.371   3.386   1.516  0.00  0.00    +0.295 HD
ENDBRANCH  16  18
ENDBRANCH  13  16
ENDBRANCH   1  13
TORSDOF 10
