REMARK  Name = ZINC01538192
REMARK                            x       y       z     vdW  Elec       q    Type
REMARK                         _______ _______ _______ _____ _____    ______ ____
ROOT
ATOM      1  C   LIG    1        4.341  -1.386  -1.204  0.00  0.00    +0.041 C 
ATOM      2  C   LIG    1        4.006  -0.525   0.016  0.00  0.00    +0.110 C 
ATOM      3  C   LIG    1        4.475  -1.210   1.301  0.00  0.00    +0.041 C 
ATOM      4  C   LIG    1        2.518  -0.238   0.078  0.00  0.00    +0.251 C 
ATOM      5  N   LIG    1        2.402   1.101  -0.015  0.00  0.00    -0.192 N 
ATOM      6  C   LIG    1        3.596   1.694  -0.120  0.00  0.00    +0.316 C 
ATOM      7  O   LIG    1        3.748   2.897  -0.213  0.00  0.00    -0.252 OA
ATOM      8  O   LIG    1        1.621  -1.046   0.188  0.00  0.00    -0.272 OA
ATOM      9  N   LIG    1        4.611   0.811  -0.110  0.00  0.00    -0.271 N 
ENDROOT
BRANCH   5  10
ATOM     10  C   LIG    1        1.183   1.786   0.000  0.00  0.00    +0.046 A 
ATOM     11  C   LIG    1        1.169   3.177   0.033  0.00  0.00    +0.025 A 
ATOM     12  C   LIG    1       -0.029   3.855   0.055  0.00  0.00    +0.021 A 
ATOM     13  C   LIG    1       -1.233   3.145   0.032  0.00  0.00    +0.064 A 
ATOM     14  C   LIG    1       -1.215   1.748  -0.001  0.00  0.00    +0.074 A 
ATOM     15  C   LIG    1       -0.012   1.076  -0.016  0.00  0.00    +0.037 A 
BRANCH  14  16
ATOM     16  C   LIG    1       -2.510   0.977  -0.019  0.00  0.00    +0.419 C 
ATOM     17  F   LIG    1       -3.247   1.332  -1.154  0.00  0.00    -0.166 F 
ATOM     18  F   LIG    1       -3.248   1.278   1.130  0.00  0.00    -0.166 F 
ATOM     19  F   LIG    1       -2.236  -0.394  -0.052  0.00  0.00    -0.166 F 
ENDBRANCH  14  16
BRANCH  13  20
ATOM     20  C   LIG    1       -2.481   3.847   0.049  0.00  0.00    +0.100 C 
ATOM     21  N   LIG    1       -3.471   4.403   0.062  0.00  0.00    -0.191 NA
ENDBRANCH  13  20
ENDBRANCH   5  10
BRANCH   9  22
ATOM     22  C   LIG    1        6.040   1.119  -0.207  0.00  0.00    +0.110 C 
BRANCH  22  23
ATOM     23  C   LIG    1        6.613   1.328   1.196  0.00  0.00    +0.021 C 
BRANCH  23  24
ATOM     24  C   LIG    1        8.106   1.650   1.095  0.00  0.00    +0.029 C 
BRANCH  24  25
ATOM     25  C   LIG    1        8.679   1.859   2.498  0.00  0.00    +0.156 C 
BRANCH  25  26
ATOM     26  O   LIG    1       10.073   2.159   2.403  0.00  0.00    -0.395 OA
ATOM     27  H   LIG    1       10.503   2.304   3.257  0.00  0.00    +0.209 HD
ENDBRANCH  25  26
ENDBRANCH  24  25
ENDBRANCH  23  24
ENDBRANCH  22  23
ENDBRANCH   9  22
TORSDOF 8
