REMARK  Name = ZINC01509875
REMARK                            x       y       z     vdW  Elec       q    Type
REMARK                         _______ _______ _______ _____ _____    ______ ____
ROOT
ATOM      1  C   LIG    1       -1.239   1.740   0.018  0.00  0.00    +0.004 A 
ATOM      2  C   LIG    1       -1.312   3.093   0.030  0.00  0.00    +0.031 A 
ATOM      3  C   LIG    1       -0.123   3.868   0.023  0.00  0.00    +0.102 A 
ATOM      4  C   LIG    1        1.161   3.172   0.007  0.00  0.00    +0.130 A 
ATOM      5  N   LIG    1        2.188   4.019   0.002  0.00  0.00    -0.188 NA
ATOM      6  S   LIG    1        1.569   5.459   0.015  0.00  0.00    +0.117 S 
ATOM      7  C   LIG    1        1.160   1.753   0.000  0.00  0.00    +0.150 A 
ATOM      8  N   LIG    1        0.025   5.191   0.028  0.00  0.00    -0.191 NA
ATOM      9  C   LIG    1       -0.013   1.076   0.008  0.00  0.00    +0.035 A 
ENDROOT
BRANCH   7  10
ATOM     10  N   LIG    1        2.442   1.013  -0.015  0.00  0.00    +0.008 N 
ATOM     11  O   LIG    1        2.442  -0.205  -0.021  0.00  0.00    -0.130 OA
BRANCH  10  12
ATOM     12  O   LIG    1        3.497   1.622  -0.022  0.00  0.00    -0.396 OA
ATOM     13  H   LIG    1        3.497   2.559  -0.017  0.00  0.00    +0.329 HD
ENDBRANCH  10  12
ENDBRANCH   7  10
TORSDOF 2
