REMARK  Name = ZINC01530831
REMARK                            x       y       z     vdW  Elec       q    Type
REMARK                         _______ _______ _______ _____ _____    ______ ____
ROOT
ATOM      1  C   LIG    1        1.175   1.782   0.000  0.00  0.00    -0.040 A 
ATOM      2  C   LIG    1       -0.013   1.076   0.008  0.00  0.00    +0.049 A 
ATOM      3  C   LIG    1       -1.224   1.753   0.017  0.00  0.00    +0.124 A 
ATOM      4  C   LIG    1       -1.242   3.139   0.029  0.00  0.00    +0.043 A 
ATOM      5  C   LIG    1       -0.049   3.845   0.022  0.00  0.00    +0.124 A 
ATOM      6  C   LIG    1        1.159   3.164   0.007  0.00  0.00    +0.049 A 
ENDROOT
BRANCH   4   7
ATOM      7  C   LIG    1       -2.556   3.876   0.044  0.00  0.00    +0.056 C 
ATOM      8  C   LIG    1       -3.347   3.508  -1.176  0.00  0.00    -0.019 C 
ATOM      9  C   LIG    1       -4.617   3.256  -1.169  0.00  0.00    -0.076 C 
ATOM     10  C   LIG    1       -5.276   2.910  -2.479  0.00  0.00    +0.039 C 
ATOM     11  C   LIG    1       -5.473   3.288   0.063  0.00  0.00    +0.031 C 
ATOM     12  C   LIG    1       -4.760   4.051   1.181  0.00  0.00    +0.013 C 
ATOM     13  C   LIG    1       -3.333   3.503   1.309  0.00  0.00    +0.026 C 
BRANCH  13  14
ATOM     14  C   LIG    1       -2.663   4.111   2.514  0.00  0.00    -0.076 C 
ATOM     15  C   LIG    1       -2.506   5.606   2.614  0.00  0.00    +0.039 C 
ATOM     16  C   LIG    1       -2.216   3.339   3.473  0.00  0.00    +0.007 C 
ENDBRANCH  13  14
ENDBRANCH   4   7
BRANCH   3  17
ATOM     17  O   LIG    1       -2.392   1.057   0.019  0.00  0.00    -0.506 OA
ATOM     18  H   LIG    1       -2.725   0.852   0.903  0.00  0.00    +0.292 HD
ENDBRANCH   3  17
BRANCH   5  19
ATOM     19  O   LIG    1       -0.064   5.204   0.028  0.00  0.00    -0.506 OA
ATOM     20  H   LIG    1       -0.076   5.601  -0.854  0.00  0.00    +0.292 HD
ENDBRANCH   5  19
BRANCH   1  21
ATOM     21  C   LIG    1        2.489   1.045  -0.015  0.00  0.00    +0.035 C 
BRANCH  21  22
ATOM     22  C   LIG    1        2.921   0.802  -1.463  0.00  0.00    +0.005 C 
BRANCH  22  23
ATOM     23  C   LIG    1        4.255   0.053  -1.478  0.00  0.00    +0.000 C 
BRANCH  23  25
ATOM     24  C   LIG    1        6.020  -0.938  -2.942  0.00  0.00    +0.004 C 
ATOM     25  C   LIG    1        4.686  -0.190  -2.926  0.00  0.00    -0.003 C 
ENDBRANCH  23  25
ENDBRANCH  22  23
ENDBRANCH  21  22
ENDBRANCH   1  21
TORSDOF 8
