REMARK  Name = ZINC01574758
REMARK                            x       y       z     vdW  Elec       q    Type
REMARK                         _______ _______ _______ _____ _____    ______ ____
ROOT
ATOM      1  C   LIG    1       -4.572   1.145   4.323  0.00  0.00    +0.000 C 
ENDROOT
BRANCH   1   2
ATOM      2  C   LIG    1       -5.786   0.262   4.616  0.00  0.00    +0.002 C 
BRANCH   2   3
ATOM      3  C   LIG    1       -6.496   0.771   5.872  0.00  0.00    +0.030 C 
BRANCH   3   4
ATOM      4  C   LIG    1       -7.711  -0.112   6.165  0.00  0.00    +0.195 C 
BRANCH   4   5
ATOM      5  O   LIG    1       -8.374   0.364   7.338  0.00  0.00    -0.225 OA
BRANCH   5   6
ATOM      6  S   LIG    1       -9.604  -0.445   7.725  0.00  0.00    +0.148 S 
ATOM      7  O   LIG    1      -10.262  -0.788   6.513  0.00  0.00    -0.130 OA
ATOM      8  O   LIG    1      -10.251   0.274   8.766  0.00  0.00    -0.130 OA
BRANCH   6   9
ATOM      9  N   LIG    1       -9.067  -1.863   8.391  0.00  0.00    -0.183 NA
ATOM     10  H   LIG    1       -9.705  -2.523   8.705  0.00  0.00    +0.146 HD
ATOM     11  H   LIG    1       -8.115  -2.034   8.467  0.00  0.00    +0.146 HD
ENDBRANCH   6   9
ENDBRANCH   5   6
ENDBRANCH   4   5
ENDBRANCH   3   4
ENDBRANCH   2   3
ENDBRANCH   1   2
BRANCH   1  12
ATOM     12  C   LIG    1       -3.862   0.636   3.067  0.00  0.00    +0.002 C 
BRANCH  12  13
ATOM     13  C   LIG    1       -2.647   1.519   2.774  0.00  0.00    +0.030 C 
BRANCH  13  14
ATOM     14  C   LIG    1       -1.937   1.009   1.518  0.00  0.00    +0.195 C 
BRANCH  14  15
ATOM     15  O   LIG    1       -0.803   1.834   1.245  0.00  0.00    -0.225 OA
BRANCH  15  16
ATOM     16  S   LIG    1       -0.017   1.417   0.010  0.00  0.00    +0.148 S 
ATOM     17  O   LIG    1        1.172   2.195   0.003  0.00  0.00    -0.130 OA
ATOM     18  O   LIG    1        0.002  -0.004   0.002  0.00  0.00    -0.130 OA
BRANCH  16  19
ATOM     19  N   LIG    1       -0.897   1.885  -1.312  0.00  0.00    -0.183 NA
ATOM     20  H   LIG    1       -1.110   2.822  -1.446  0.00  0.00    +0.146 HD
ATOM     21  H   LIG    1       -1.201   1.223  -1.952  0.00  0.00    +0.146 HD
ENDBRANCH  16  19
ENDBRANCH  15  16
ENDBRANCH  14  15
ENDBRANCH  13  14
ENDBRANCH  12  13
ENDBRANCH   1  12
TORSDOF 12
