REMARK  Name = ZINC01532734
REMARK                            x       y       z     vdW  Elec       q    Type
REMARK                         _______ _______ _______ _____ _____    ______ ____
ROOT
ATOM      1  C   LIG    1       -0.019   1.526   0.010  0.00  0.00    -0.021 C 
ENDROOT
BRANCH   1   2
ATOM      2  C   LIG    1        1.417   2.055  -0.000  0.00  0.00    -0.083 C 
BRANCH   2   3
ATOM      3  N   LIG    1        1.397   3.524   0.008  0.00  0.00    +0.379 N 
ATOM      4  H   LIG    1        0.924   3.850   0.838  0.00  0.00    -0.086 HD
ATOM      5  H   LIG    1        0.909   3.858  -0.810  0.00  0.00    -0.086 HD
BRANCH   3   6
ATOM      6  C   LIG    1        2.775   4.033  -0.003  0.00  0.00    -0.084 C 
BRANCH   6   7
ATOM      7  C   LIG    1        2.754   5.562   0.006  0.00  0.00    -0.039 C 
BRANCH   7   8
ATOM      8  C   LIG    1        4.190   6.092  -0.005  0.00  0.00    -0.088 C 
BRANCH   8   9
ATOM      9  N   LIG    1        4.170   7.561   0.003  0.00  0.00    +0.378 N 
ATOM     10  H   LIG    1        5.116   7.910  -0.004  0.00  0.00    -0.090 HD
ATOM     11  H   LIG    1        3.697   7.886   0.833  0.00  0.00    -0.090 HD
ATOM     12  H   LIG    1        3.682   7.895  -0.815  0.00  0.00    -0.090 HD
ENDBRANCH   8   9
ENDBRANCH   7   8
ENDBRANCH   6   7
ENDBRANCH   3   6
ENDBRANCH   2   3
ENDBRANCH   1   2
BRANCH   1  13
ATOM     13  C   LIG    1        0.002  -0.004   0.002  0.00  0.00    -0.021 C 
BRANCH  13  14
ATOM     14  C   LIG    1       -1.433  -0.534   0.013  0.00  0.00    -0.083 C 
BRANCH  14  15
ATOM     15  N   LIG    1       -1.413  -2.002   0.005  0.00  0.00    +0.379 N 
ATOM     16  H   LIG    1       -0.925  -2.337   0.822  0.00  0.00    -0.086 HD
ATOM     17  H   LIG    1       -0.941  -2.328  -0.825  0.00  0.00    -0.086 HD
BRANCH  15  18
ATOM     18  C   LIG    1       -2.792  -2.511   0.015  0.00  0.00    -0.081 C 
BRANCH  18  19
ATOM     19  C   LIG    1       -2.771  -4.041   0.007  0.00  0.00    -0.004 C 
BRANCH  19  20
ATOM     20  C   LIG    1       -4.206  -4.570   0.018  0.00  0.00    +0.076 C 
BRANCH  20  21
ATOM     21  N   LIG    1       -4.186  -6.039   0.010  0.00  0.00    -0.330 NA
ATOM     22  H   LIG    1       -5.123  -6.414   0.017  0.00  0.00    +0.118 HD
ATOM     23  H   LIG    1       -3.648  -6.398   0.784  0.00  0.00    +0.118 HD
ENDBRANCH  20  21
ENDBRANCH  19  20
ENDBRANCH  18  19
ENDBRANCH  15  18
ENDBRANCH  14  15
ENDBRANCH  13  14
ENDBRANCH   1  13
TORSDOF 13
