REMARK  Name = ZINC01487129
REMARK                            x       y       z     vdW  Elec       q    Type
REMARK                         _______ _______ _______ _____ _____    ______ ____
ROOT
ATOM      1  C   LIG    1        2.092   0.648   0.012  0.00  0.00    +0.093 A 
ATOM      2  C   LIG    1        1.266   1.744   0.195  0.00  0.00    +0.073 A 
ATOM      3  N   LIG    1       -0.004   1.311   0.099  0.00  0.00    -0.345 N 
ATOM      4  H   LIG    1       -0.839   1.900   0.192  0.00  0.00    +0.167 HD
ATOM      5  C   LIG    1       -0.010   0.026  -0.130  0.00  0.00    +0.175 A 
ATOM      6  N   LIG    1        1.258  -0.429  -0.192  0.00  0.00    -0.327 N 
ENDROOT
BRANCH   6   7
ATOM      7  C   LIG    1        1.672  -1.814  -0.432  0.00  0.00    +0.085 C 
ATOM      8  C   LIG    1        1.009  -2.331  -1.712  0.00  0.00    +0.006 C 
ATOM      9  C   LIG    1        1.395  -3.797  -1.924  0.00  0.00    -0.081 C 
ATOM     10  N   LIG    1        0.953  -4.601  -0.769  0.00  0.00    +0.379 N 
ATOM     11  H   LIG    1       -0.064  -4.504  -0.658  0.00  0.00    -0.086 HD
ATOM     12  H   LIG    1        1.186  -5.588  -0.934  0.00  0.00    -0.086 HD
ATOM     13  C   LIG    1        1.622  -4.144   0.464  0.00  0.00    -0.081 C 
ATOM     14  C   LIG    1        1.241  -2.689   0.748  0.00  0.00    +0.006 C 
ENDBRANCH   6   7
BRANCH   2  15
ATOM     15  C   LIG    1        1.700   3.138   0.449  0.00  0.00    +0.001 A 
ATOM     16  C   LIG    1        2.837   3.387   1.218  0.00  0.00    +0.013 A 
ATOM     17  C   LIG    1        3.240   4.686   1.448  0.00  0.00    +0.039 A 
ATOM     18  C   LIG    1        2.512   5.743   0.925  0.00  0.00    +0.123 A 
ATOM     19  F   LIG    1        2.908   7.013   1.157  0.00  0.00    -0.205 F 
ATOM     20  C   LIG    1        1.379   5.500   0.165  0.00  0.00    +0.039 A 
ATOM     21  C   LIG    1        0.971   4.205  -0.075  0.00  0.00    +0.013 A 
ENDBRANCH   2  15
BRANCH   1  26
ATOM     22  C   LIG    1        5.579   1.709  -0.311  0.00  0.00    +0.318 A 
ATOM     23  N   LIG    1        6.263   0.638   0.060  0.00  0.00    -0.203 NA
ATOM     24  C   LIG    1        5.644  -0.474   0.431  0.00  0.00    +0.118 A 
ATOM     25  C   LIG    1        4.263  -0.510   0.435  0.00  0.00    +0.050 A 
ATOM     26  C   LIG    1        3.566   0.636   0.032  0.00  0.00    +0.096 A 
ATOM     27  N   LIG    1        4.258   1.719  -0.329  0.00  0.00    -0.193 NA
BRANCH  22  29
ATOM     28  C   LIG    1        7.679   2.763  -0.647  0.00  0.00    +0.280 C 
ATOM     29  O   LIG    1        6.252   2.824  -0.683  0.00  0.00    -0.466 OA
ENDBRANCH  22  29
ENDBRANCH   1  26
TORSDOF 4
