REMARK  Name = ZINC01542008
REMARK                            x       y       z     vdW  Elec       q    Type
REMARK                         _______ _______ _______ _____ _____    ______ ____
ROOT
ATOM      1  C   LIG    1        0.977  -2.142   0.671  0.00  0.00    +0.037 A 
ATOM      2  C   LIG    1       -0.013  -2.852  -0.010  0.00  0.00    +0.013 A 
ATOM      3  C   LIG    1        0.017  -4.231  -0.023  0.00  0.00    +0.004 A 
ATOM      4  C   LIG    1        1.019  -4.911   0.647  0.00  0.00    -0.047 A 
ATOM      5  C   LIG    1        2.000  -4.213   1.329  0.00  0.00    +0.004 A 
ATOM      6  C   LIG    1        1.985  -2.833   1.345  0.00  0.00    +0.013 A 
ENDROOT
BRANCH   1   9
ATOM      7  N   LIG    1       -0.021   0.001   0.032  0.00  0.00    -0.298 N 
ATOM      8  H   LIG    1       -0.707  -0.490  -0.445  0.00  0.00    +0.150 HD
ATOM      9  C   LIG    1        0.954  -0.664   0.684  0.00  0.00    +0.245 C 
ATOM     10  O   LIG    1        1.815  -0.048   1.282  0.00  0.00    -0.270 OA
BRANCH   7  11
ATOM     11  CA  LIG    1       -0.043   1.466   0.045  0.00  0.00    +0.186 C 
BRANCH  11  12
ATOM     12  C   LIG    1       -0.745   1.947   1.289  0.00  0.00    +0.326 C 
ATOM     13  O   LIG    1       -1.182   1.148   2.083  0.00  0.00    -0.249 OA
BRANCH  12  14
ATOM     14  OXT LIG    1       -0.885   3.262   1.514  0.00  0.00    -0.479 OA
ATOM     15  HXT LIG    1       -0.547   3.882   0.898  0.00  0.00    +0.295 HD
ENDBRANCH  12  14
ENDBRANCH  11  12
BRANCH  11  16
ATOM     16  C   LIG    1       -0.788   1.975  -1.191  0.00  0.00    +0.075 C 
BRANCH  16  18
ATOM     17  C   LIG    1       -0.329   0.488  -3.094  0.00  0.00    +0.019 C 
ATOM     18  C   LIG    1       -0.019   1.599  -2.431  0.00  0.00    +0.032 C 
BRANCH  18  19
ATOM     19  C   LIG    1        1.072   2.459  -2.908  0.00  0.00    +0.332 C 
ATOM     20  O   LIG    1        1.692   2.156  -3.909  0.00  0.00    -0.246 OA
BRANCH  19  21
ATOM     21  O   LIG    1        1.386   3.585  -2.236  0.00  0.00    -0.477 OA
ATOM     22  H   LIG    1        0.908   3.819  -1.465  0.00  0.00    +0.295 HD
ENDBRANCH  19  21
ENDBRANCH  18  19
ENDBRANCH  16  18
ENDBRANCH  11  16
ENDBRANCH   7  11
ENDBRANCH   1   9
BRANCH   4  23
ATOM     23  C   LIG    1        1.042  -6.417   0.634  0.00  0.00    +0.037 C 
BRANCH  23  24
ATOM     24  C   LIG    1        0.237  -6.950   1.822  0.00  0.00    +0.024 C 
BRANCH  24  25
ATOM     25  C   LIG    1        0.260  -8.456   1.809  0.00  0.00    +0.068 C 
ATOM     26  C   LIG    1        1.327  -9.136   2.396  0.00  0.00    +0.101 C 
ATOM     27  N   LIG    1        1.369 -10.451   2.398  0.00  0.00    -0.298 NA
ATOM     28  H   LIG    1        1.415 -10.745   3.374  0.00  0.00    +0.123 HD
ATOM     29  C   LIG    1        0.378 -11.143   1.831  0.00  0.00    +0.144 C 
ATOM     30  C   LIG    1       -0.704 -10.447   1.236  0.00  0.00    +0.117 C 
ATOM     31  C   LIG    1       -1.773 -11.240   0.624  0.00  0.00    +0.141 C 
ATOM     32  N   LIG    1       -1.660 -12.560   0.664  0.00  0.00    -0.273 NA
ATOM     33  C   LIG    1       -0.615 -13.147   1.240  0.00  0.00    +0.194 C 
ATOM     34  H   LIG    1       -2.381 -13.117   0.252  0.00  0.00    +0.126 HD
ATOM     35  N   LIG    1        0.429 -12.520   1.837  0.00  0.00    -0.272 NA
ATOM     36  H   LIG    1        0.468 -12.828   2.808  0.00  0.00    +0.126 HD
ATOM     37  N   LIG    1       -0.727  -9.118   1.244  0.00  0.00    -0.304 NA
ATOM     38  H   LIG    1       -0.768  -8.816   0.271  0.00  0.00    +0.123 HD
BRANCH  33  39
ATOM     39  N   LIG    1       -0.561 -14.528   1.246  0.00  0.00    -0.303 NA
ATOM     40  H   LIG    1       -1.274 -15.043   0.837  0.00  0.00    +0.121 HD
ATOM     41  H   LIG    1        0.189 -14.982   1.659  0.00  0.00    +0.121 HD
ENDBRANCH  33  39
BRANCH  31  42
ATOM     42  N   LIG    1       -2.853 -10.634   0.022  0.00  0.00    -0.314 NA
ATOM     43  H   LIG    1       -2.917  -9.667  -0.001  0.00  0.00    +0.120 HD
ATOM     44  H   LIG    1       -3.551 -11.176  -0.379  0.00  0.00    +0.120 HD
ENDBRANCH  31  42
ENDBRANCH  24  25
ENDBRANCH  23  24
ENDBRANCH   4  23
TORSDOF 13
