REMARK  Name = ZINC01538308
REMARK                            x       y       z     vdW  Elec       q    Type
REMARK                         _______ _______ _______ _____ _____    ______ ____
ROOT
ATOM      1  C   LIG    1       -2.294  -4.207   0.001  0.00  0.00    +0.156 C 
ATOM      2  O   LIG    1       -1.234  -4.800  -0.012  0.00  0.00    -0.293 OA
ENDROOT
BRANCH   1   3
ATOM      3  C   LIG    1       -2.313  -2.803   0.009  0.00  0.00    +0.046 C 
ATOM      4  C   LIG    1       -1.143  -2.106   0.002  0.00  0.00    +0.003 C 
BRANCH   4   5
ATOM      5  C   LIG    1       -1.162  -0.697   0.009  0.00  0.00    +0.001 C 
ATOM      6  C   LIG    1        0.002  -0.004   0.002  0.00  0.00    +0.008 C 
BRANCH   6   7
ATOM      7  C   LIG    1       -0.018   1.466   0.010  0.00  0.00    -0.025 A 
ATOM      8  C   LIG    1       -1.237   2.153   0.020  0.00  0.00    +0.008 A 
ATOM      9  C   LIG    1       -1.247   3.531   0.032  0.00  0.00    +0.001 A 
ATOM     10  C   LIG    1       -0.055   4.236   0.024  0.00  0.00    +0.000 A 
ATOM     11  C   LIG    1        1.155   3.564   0.010  0.00  0.00    +0.001 A 
ATOM     12  C   LIG    1        1.182   2.186   0.003  0.00  0.00    +0.008 A 
ENDBRANCH   6   7
ENDBRANCH   4   5
ENDBRANCH   1   3
BRANCH   1  13
ATOM     13  C   LIG    1       -3.589  -4.978   0.010  0.00  0.00    +0.083 C 
BRANCH  13  14
ATOM     14  C   LIG    1       -3.289  -6.478  -0.001  0.00  0.00    +0.043 C 
BRANCH  14  18
ATOM     15  C   LIG    1       -6.959  -8.665   0.022  0.00  0.00    +0.000 A 
ATOM     16  C   LIG    1       -6.377  -8.305  -1.179  0.00  0.00    +0.000 A 
ATOM     17  C   LIG    1       -5.189  -7.597  -1.186  0.00  0.00    +0.003 A 
ATOM     18  C   LIG    1       -4.584  -7.250   0.007  0.00  0.00    -0.047 A 
ATOM     19  C   LIG    1       -5.163  -7.615   1.208  0.00  0.00    +0.003 A 
ATOM     20  C   LIG    1       -6.354  -8.317   1.215  0.00  0.00    +0.000 A 
ENDBRANCH  14  18
ENDBRANCH  13  14
ENDBRANCH   1  13
TORSDOF 6
