REMARK  Name = ZINC01628592
REMARK                            x       y       z     vdW  Elec       q    Type
REMARK                         _______ _______ _______ _____ _____    ______ ____
ROOT
ATOM      1  N   LIG    1        1.760   2.414  -1.256  0.00  0.00    -0.222 N 
ATOM      2  C   LIG    1        2.257   1.393  -1.982  0.00  0.00    +0.341 A 
ATOM      3  N   LIG    1        2.736   1.618  -3.222  0.00  0.00    -0.222 N 
ATOM      4  C   LIG    1        2.727   2.866  -3.732  0.00  0.00    +0.341 A 
ATOM      5  N   LIG    1        2.235   3.887  -3.003  0.00  0.00    -0.222 N 
ATOM      6  O   LIG    1        3.162   3.069  -4.848  0.00  0.00    -0.246 OA
ATOM      7  O   LIG    1        2.269   0.269  -1.521  0.00  0.00    -0.246 OA
ATOM      8  C   LIG    1        1.752   3.662  -1.766  0.00  0.00    +0.341 A 
ATOM      9  O   LIG    1        1.309   4.583  -1.109  0.00  0.00    -0.246 OA
ENDROOT
BRANCH   1  10
ATOM     10  C   LIG    1        1.236   2.168   0.089  0.00  0.00    +0.296 C 
BRANCH  10  11
ATOM     11  O   LIG    1       -0.035   1.521  -0.006  0.00  0.00    -0.341 OA
BRANCH  11  12
ATOM     12  C   LIG    1       -1.117   2.406  -0.306  0.00  0.00    +0.271 C 
BRANCH  12  16
ATOM     13  N   LIG    1       -1.961   2.194  -3.878  0.00  0.00    -0.277 N 
ATOM     14  H   LIG    1       -1.405   2.897  -4.250  0.00  0.00    +0.152 HD
ATOM     15  C   LIG    1       -1.938   1.946  -2.554  0.00  0.00    +0.303 C 
ATOM     16  N   LIG    1       -1.142   2.675  -1.746  0.00  0.00    -0.276 N 
ATOM     17  H   LIG    1       -0.586   3.378  -2.118  0.00  0.00    +0.152 HD
ATOM     18  O   LIG    1       -2.634   1.065  -2.087  0.00  0.00    -0.253 OA
BRANCH  13  19
ATOM     19  C   LIG    1       -2.826   1.402  -4.756  0.00  0.00    +0.265 C 
BRANCH  19  20
ATOM     20  O   LIG    1       -4.064   2.089  -4.952  0.00  0.00    -0.377 OA
ATOM     21  H   LIG    1       -4.687   1.621  -5.525  0.00  0.00    +0.211 HD
ENDBRANCH  19  20
ENDBRANCH  13  19
ENDBRANCH  12  16
ENDBRANCH  11  12
ENDBRANCH  10  11
ENDBRANCH   1  10
BRANCH   3  22
ATOM     22  C   LIG    1        3.271   0.507  -4.014  0.00  0.00    +0.290 C 
BRANCH  22  23
ATOM     23  O   LIG    1        4.698   0.579  -4.032  0.00  0.00    -0.375 OA
ATOM     24  H   LIG    1        5.120  -0.127  -4.539  0.00  0.00    +0.212 HD
ENDBRANCH  22  23
ENDBRANCH   3  22
BRANCH   5  25
ATOM     25  C   LIG    1        2.226   5.244  -3.557  0.00  0.00    +0.290 C 
BRANCH  25  26
ATOM     26  O   LIG    1        3.551   5.778  -3.530  0.00  0.00    -0.375 OA
ATOM     27  H   LIG    1        3.620   6.676  -3.883  0.00  0.00    +0.212 HD
ENDBRANCH  25  26
ENDBRANCH   5  25
TORSDOF 10
