REMARK  Name = ZINC01490414
REMARK                            x       y       z     vdW  Elec       q    Type
REMARK                         _______ _______ _______ _____ _____    ______ ____
ROOT
ATOM      1  C   LIG    1       -5.933   2.287   0.064  0.00  0.00    +0.131 A 
ATOM      2  C   LIG    1       -7.157   1.634   0.109  0.00  0.00    +0.048 A 
ATOM      3  C   LIG    1       -8.330   2.361   0.078  0.00  0.00    +0.030 A 
ATOM      4  C   LIG    1       -8.287   3.746   0.001  0.00  0.00    +0.070 A 
ATOM      5  C   LIG    1       -7.061   4.401  -0.044  0.00  0.00    +0.148 A 
ATOM      6  F   LIG    1       -7.017   5.749  -0.119  0.00  0.00    -0.203 F 
ATOM      7  C   LIG    1       -5.887   3.671  -0.008  0.00  0.00    +0.086 A 
ENDROOT
BRANCH   4   8
ATOM      8  N   LIG    1       -9.478   4.485  -0.031  0.00  0.00    -0.267 N 
ATOM      9  H   LIG    1       -9.529   5.301  -0.552  0.00  0.00    +0.156 HD
ATOM     10  C   LIG    1      -10.553   4.060   0.662  0.00  0.00    +0.308 C 
ATOM     11  N   LIG    1      -11.671   4.813   0.700  0.00  0.00    -0.267 N 
ATOM     12  H   LIG    1      -11.732   5.617   0.162  0.00  0.00    +0.156 HD
ATOM     13  O   LIG    1      -10.515   2.998   1.253  0.00  0.00    -0.252 OA
BRANCH  11  14
ATOM     14  C   LIG    1      -12.744   4.433   1.518  0.00  0.00    +0.070 A 
ATOM     15  C   LIG    1      -12.505   3.800   2.729  0.00  0.00    +0.029 A 
ATOM     16  C   LIG    1      -13.564   3.427   3.534  0.00  0.00    +0.040 A 
ATOM     17  C   LIG    1      -14.865   3.682   3.133  0.00  0.00    +0.126 A 
ATOM     18  F   LIG    1      -15.898   3.316   3.922  0.00  0.00    -0.205 F 
ATOM     19  C   LIG    1      -15.107   4.312   1.924  0.00  0.00    +0.078 A 
ATOM     20  C   LIG    1      -14.050   4.694   1.118  0.00  0.00    +0.147 A 
ATOM     21  F   LIG    1      -14.286   5.314  -0.059  0.00  0.00    -0.203 F 
ENDBRANCH  11  14
ENDBRANCH   4   8
BRANCH   1  22
ATOM     22  O   LIG    1       -4.779   1.569   0.095  0.00  0.00    -0.455 OA
BRANCH  22  26
ATOM     23  C   LIG    1       -1.101  -0.456  -0.115  0.00  0.00    +0.162 A 
ATOM     24  C   LIG    1       -2.287   0.211  -0.011  0.00  0.00    +0.063 A 
ATOM     25  C   LIG    1       -3.165   0.240  -1.105  0.00  0.00    +0.046 A 
ATOM     26  C   LIG    1       -4.401   0.921  -1.034  0.00  0.00    +0.139 A 
ATOM     27  C   LIG    1       -5.215   0.906  -2.154  0.00  0.00    +0.066 A 
ATOM     28  C   LIG    1       -4.802   0.233  -3.296  0.00  0.00    +0.115 A 
ATOM     29  N   LIG    1       -3.652  -0.397  -3.351  0.00  0.00    -0.255 NA
ATOM     30  C   LIG    1       -2.816  -0.423  -2.307  0.00  0.00    +0.078 A 
ATOM     31  C   LIG    1       -1.588  -1.102  -2.382  0.00  0.00    +0.077 A 
ATOM     32  C   LIG    1       -0.749  -1.109  -1.305  0.00  0.00    +0.164 A 
BRANCH  23  34
ATOM     33  C   LIG    1       -0.664   0.200   2.129  0.00  0.00    +0.277 C 
ATOM     34  O   LIG    1       -0.249  -0.484   0.945  0.00  0.00    -0.491 OA
ENDBRANCH  23  34
BRANCH  32  35
ATOM     35  O   LIG    1        0.440  -1.762  -1.386  0.00  0.00    -0.491 OA
ATOM     36  C   LIG    1        0.742  -2.408  -2.624  0.00  0.00    +0.277 C 
ENDBRANCH  32  35
ENDBRANCH  22  26
ENDBRANCH   1  22
TORSDOF 6
