REMARK  Name = ZINC01551040
REMARK                            x       y       z     vdW  Elec       q    Type
REMARK                         _______ _______ _______ _____ _____    ______ ____
ROOT
ATOM      1  S   LIG    1       -0.017   1.417   0.010  0.00  0.00    +0.081 S 
ATOM      2  O   LIG    1        0.002  -0.004   0.002  0.00  0.00    -0.246 OA
ENDROOT
BRANCH   1   3
ATOM      3  S   LIG    1       -0.707   1.893   1.880  0.00  0.00    -0.061 S 
BRANCH   3   4
ATOM      4  C   LIG    1       -2.409   1.265   1.893  0.00  0.00    +0.083 C 
BRANCH   4   6
ATOM      5  C   LIG    1       -3.824  -0.794   1.912  0.00  0.00    +0.004 C 
ATOM      6  C   LIG    1       -2.388  -0.265   1.901  0.00  0.00    +0.008 C 
ENDBRANCH   4   6
ENDBRANCH   3   4
ENDBRANCH   1   3
BRANCH   1   7
ATOM      7  C   LIG    1        1.685   2.045  -0.003  0.00  0.00    +0.115 C 
BRANCH   7   8
ATOM      8  C   LIG    1        2.326   1.751  -1.361  0.00  0.00    +0.011 C 
ATOM      9  C   LIG    1        3.762   2.281  -1.371  0.00  0.00    +0.005 C 
ENDBRANCH   7   8
ENDBRANCH   1   7
TORSDOF 5
