REMARK  Name = ZINC01551889
REMARK                            x       y       z     vdW  Elec       q    Type
REMARK                         _______ _______ _______ _____ _____    ______ ____
ROOT
ATOM      1  C   LIG    1       -4.436   3.831  -1.932  0.00  0.00    -0.028 A 
ATOM      2  C   LIG    1       -4.870   4.906  -2.686  0.00  0.00    +0.006 A 
ATOM      3  C   LIG    1       -5.297   4.714  -3.984  0.00  0.00    +0.009 A 
ATOM      4  C   LIG    1       -5.300   3.431  -4.532  0.00  0.00    -0.017 A 
ATOM      5  C   LIG    1       -4.866   2.351  -3.765  0.00  0.00    +0.009 A 
ATOM      6  C   LIG    1       -4.436   2.556  -2.470  0.00  0.00    +0.006 A 
ENDROOT
BRANCH   4   7
ATOM      7  C   LIG    1       -5.763   3.218  -5.923  0.00  0.00    -0.004 A 
ATOM      8  C   LIG    1       -6.828   2.361  -6.183  0.00  0.00    +0.009 A 
ATOM      9  C   LIG    1       -7.255   2.164  -7.481  0.00  0.00    +0.001 A 
ATOM     10  C   LIG    1       -6.631   2.816  -8.532  0.00  0.00    +0.001 A 
ATOM     11  C   LIG    1       -5.574   3.669  -8.295  0.00  0.00    +0.015 A 
ATOM     12  C   LIG    1       -5.131   3.884  -6.989  0.00  0.00    +0.067 A 
BRANCH  12  13
ATOM     13  C   LIG    1       -4.005   4.801  -6.729  0.00  0.00    +0.337 C 
ATOM     14  O   LIG    1       -3.550   4.900  -5.607  0.00  0.00    -0.245 OA
BRANCH  13  15
ATOM     15  O   LIG    1       -3.482   5.528  -7.735  0.00  0.00    -0.477 OA
ATOM     16  H   LIG    1       -3.833   5.452  -8.600  0.00  0.00    +0.295 HD
ENDBRANCH  13  15
ENDBRANCH  12  13
ENDBRANCH   4   7
BRANCH   1  17
ATOM     17  C   LIG    1       -3.965   4.048  -0.517  0.00  0.00    +0.158 C 
BRANCH  17  27
ATOM     18  C   LIG    1       -1.554   3.324  -0.373  0.00  0.00    +0.088 A 
ATOM     19  N   LIG    1       -0.374   3.872  -0.416  0.00  0.00    -0.343 N 
ATOM     20  H   LIG    1        0.516   3.368  -0.334  0.00  0.00    +0.167 HD
ATOM     21  C   LIG    1       -0.502   5.214  -0.586  0.00  0.00    +0.064 A 
ATOM     22  C   LIG    1        0.415   6.263  -0.697  0.00  0.00    +0.028 A 
ATOM     23  C   LIG    1       -0.032   7.542  -0.866  0.00  0.00    +0.002 A 
ATOM     24  C   LIG    1       -1.391   7.815  -0.929  0.00  0.00    +0.002 A 
ATOM     25  C   LIG    1       -2.314   6.798  -0.817  0.00  0.00    +0.028 A 
ATOM     26  C   LIG    1       -1.878   5.490  -0.650  0.00  0.00    +0.067 A 
ATOM     27  N   LIG    1       -2.518   4.274  -0.513  0.00  0.00    -0.325 N 
BRANCH  18  28
ATOM     28  C   LIG    1       -1.814   1.850  -0.195  0.00  0.00    +0.072 C 
BRANCH  28  29
ATOM     29  C   LIG    1       -1.795   1.506   1.296  0.00  0.00    +0.007 C 
BRANCH  29  31
ATOM     30  C   LIG    1       -1.917  -0.351   2.962  0.00  0.00    +0.004 C 
ATOM     31  C   LIG    1       -1.936  -0.007   1.472  0.00  0.00    -0.003 C 
ENDBRANCH  29  31
ENDBRANCH  28  29
ENDBRANCH  18  28
ENDBRANCH  17  27
ENDBRANCH   1  17
TORSDOF 8
