REMARK  Name = ZINC01490299
REMARK                            x       y       z     vdW  Elec       q    Type
REMARK                         _______ _______ _______ _____ _____    ______ ____
ROOT
ATOM      1  N   LIG    1       -6.101  -0.882  -0.670  0.00  0.00    -0.342 N 
ATOM      2  C   LIG    1       -6.851   0.083  -0.058  0.00  0.00    +0.087 A 
ATOM      3  C   LIG    1       -7.596   0.722  -0.978  0.00  0.00    +0.028 A 
ATOM      4  C   LIG    1       -7.315   0.145  -2.239  0.00  0.00    +0.012 A 
ATOM      5  C   LIG    1       -7.785   0.386  -3.596  0.00  0.00    +0.049 A 
ATOM      6  C   LIG    1       -8.735   1.381  -3.902  0.00  0.00    +0.130 A 
ATOM      7  N   LIG    1       -9.106   1.530  -5.167  0.00  0.00    -0.199 NA
ATOM      8  C   LIG    1       -8.601   0.766  -6.130  0.00  0.00    +0.218 A 
ATOM      9  N   LIG    1       -7.697  -0.167  -5.899  0.00  0.00    -0.214 NA
ATOM     10  C   LIG    1       -7.262  -0.397  -4.651  0.00  0.00    +0.079 A 
ATOM     11  C   LIG    1       -6.314  -1.394  -4.369  0.00  0.00    +0.030 A 
ATOM     12  C   LIG    1       -5.885  -1.614  -3.099  0.00  0.00    +0.028 A 
ATOM     13  C   LIG    1       -6.364  -0.863  -2.022  0.00  0.00    +0.050 A 
ENDROOT
BRANCH   6  14
ATOM     14  N   LIG    1       -9.267   2.181  -2.910  0.00  0.00    -0.343 N 
ATOM     15  H   LIG    1      -10.117   2.627  -3.050  0.00  0.00    +0.144 HD
ATOM     16  H   LIG    1       -8.790   2.297  -2.073  0.00  0.00    +0.144 HD
ENDBRANCH   6  14
BRANCH   8  17
ATOM     17  N   LIG    1       -9.028   0.969  -7.431  0.00  0.00    -0.311 N 
ATOM     18  H   LIG    1       -8.672   0.422  -8.149  0.00  0.00    +0.149 HD
BRANCH  17  19
ATOM     19  C   LIG    1      -10.017   2.009  -7.724  0.00  0.00    +0.073 C 
ATOM     20  C   LIG    1      -11.150   1.655  -8.688  0.00  0.00    +0.024 C 
ATOM     21  C   LIG    1      -10.029   2.594  -9.138  0.00  0.00    +0.024 C 
ENDBRANCH  17  19
ENDBRANCH   8  17
BRANCH   1  22
ATOM     22  C   LIG    1       -5.164  -1.785   0.003  0.00  0.00    +0.157 C 
BRANCH  22  26
ATOM     23  C   LIG    1       -1.222  -0.151  -0.188  0.00  0.00    -0.045 A 
ATOM     24  C   LIG    1       -2.048   0.160   0.876  0.00  0.00    +0.004 A 
ATOM     25  C   LIG    1       -3.324  -0.369   0.938  0.00  0.00    +0.005 A 
ATOM     26  C   LIG    1       -3.774  -1.208  -0.065  0.00  0.00    -0.028 A 
ATOM     27  C   LIG    1       -2.948  -1.518  -1.129  0.00  0.00    +0.005 A 
ATOM     28  C   LIG    1       -1.673  -0.986  -1.193  0.00  0.00    +0.004 A 
BRANCH  23  30
ATOM     29  C   LIG    1        0.087   1.953  -0.277  0.00  0.00    +0.012 C 
ATOM     30  C   LIG    1        0.169   0.425  -0.255  0.00  0.00    +0.013 C 
ATOM     31  C   LIG    1        0.967  -0.025   0.971  0.00  0.00    +0.012 C 
ENDBRANCH  23  30
ENDBRANCH  22  26
ENDBRANCH   1  22
TORSDOF 6
