REMARK  Name = ZINC01430592
REMARK                            x       y       z     vdW  Elec       q    Type
REMARK                         _______ _______ _______ _____ _____    ______ ____
ROOT
ATOM      1  N   LIG    1        0.026  -0.016   2.416  0.00  0.00    -0.245 N 
ATOM      2  C   LIG    1        1.093   0.322   3.154  0.00  0.00    +0.270 A 
ATOM      3  C   LIG    1        0.876   1.046   4.400  0.00  0.00    +0.056 A 
ATOM      4  C   LIG    1        1.801   1.517   5.355  0.00  0.00    +0.017 A 
ATOM      5  C   LIG    1        1.373   2.179   6.464  0.00  0.00    +0.039 A 
ATOM      6  C   LIG    1        0.020   2.412   6.692  0.00  0.00    +0.125 A 
ATOM      7  F   LIG    1       -0.377   3.071   7.802  0.00  0.00    -0.205 F 
ATOM      8  C   LIG    1       -0.916   1.964   5.777  0.00  0.00    +0.055 A 
ATOM      9  C   LIG    1       -0.492   1.292   4.650  0.00  0.00    +0.044 A 
ATOM     10  O   LIG    1        2.220   0.030   2.791  0.00  0.00    -0.266 OA
ATOM     11  S   LIG    1       -1.302   0.567   3.251  0.00  0.00    -0.003 S 
ENDROOT
BRANCH   1  18
ATOM     12  C   LIG    1       -0.018   1.503   0.010  0.00  0.00    +0.046 C 
ATOM     13  C   LIG    1        0.002  -0.004   0.002  0.00  0.00    -0.026 A 
ATOM     14  C   LIG    1        0.006  -0.689  -1.197  0.00  0.00    +0.005 A 
ATOM     15  C   LIG    1        0.024  -2.071  -1.206  0.00  0.00    +0.000 A 
ATOM     16  C   LIG    1        0.040  -2.773  -0.014  0.00  0.00    +0.002 A 
ATOM     17  C   LIG    1        0.035  -2.095   1.188  0.00  0.00    +0.027 A 
ATOM     18  C   LIG    1        0.023  -0.706   1.201  0.00  0.00    +0.060 A 
ENDBRANCH   1  18
TORSDOF 1
