REMARK  Name = ZINC01491591
REMARK                            x       y       z     vdW  Elec       q    Type
REMARK                         _______ _______ _______ _____ _____    ______ ____
ROOT
ATOM      1  N   LIG    1        2.895  -0.232  -8.039  0.00  0.00    -0.322 N 
ATOM      2  H   LIG    1        2.378   0.574  -7.884  0.00  0.00    +0.148 HD
ENDROOT
BRANCH   1   3
ATOM      3  C   LIG    1        3.067  -1.125  -7.045  0.00  0.00    +0.131 C 
ATOM      4  S   LIG    1        3.979  -2.547  -7.319  0.00  0.00    -0.019 S 
BRANCH   3   5
ATOM      5  N   LIG    1        2.520  -0.898  -5.833  0.00  0.00    -0.322 N 
ATOM      6  H   LIG    1        2.003  -0.092  -5.678  0.00  0.00    +0.148 HD
BRANCH   5   7
ATOM      7  C   LIG    1        2.707  -1.868  -4.752  0.00  0.00    +0.138 C 
BRANCH   7  11
ATOM      8  C   LIG    1        0.707  -0.490  -1.238  0.00  0.00    -0.042 A 
ATOM      9  C   LIG    1        0.036  -1.284  -2.148  0.00  0.00    +0.004 A 
ATOM     10  C   LIG    1        0.683  -1.730  -3.286  0.00  0.00    +0.005 A 
ATOM     11  C   LIG    1        2.001  -1.381  -3.513  0.00  0.00    -0.030 A 
ATOM     12  C   LIG    1        2.672  -0.586  -2.603  0.00  0.00    +0.005 A 
ATOM     13  C   LIG    1        2.024  -0.137  -1.467  0.00  0.00    +0.004 A 
BRANCH   8  15
ATOM     14  C   LIG    1       -0.019   1.526   0.010  0.00  0.00    +0.015 C 
ATOM     15  C   LIG    1        0.002  -0.004   0.002  0.00  0.00    -0.013 C 
ATOM     16  C   LIG    1       -1.433  -0.534   0.013  0.00  0.00    +0.015 C 
ATOM     17  C   LIG    1        0.742  -0.511   1.242  0.00  0.00    +0.015 C 
ENDBRANCH   8  15
ENDBRANCH   7  11
ENDBRANCH   5   7
ENDBRANCH   3   5
ENDBRANCH   1   3
BRANCH   1  18
ATOM     18  C   LIG    1        3.489  -0.478  -9.356  0.00  0.00    +0.138 C 
BRANCH  18  19
ATOM     19  C   LIG    1        3.150   0.662 -10.281  0.00  0.00    -0.028 A 
ATOM     20  C   LIG    1        1.997   0.614 -11.042  0.00  0.00    +0.007 A 
ATOM     21  C   LIG    1        1.683   1.657 -11.892  0.00  0.00    +0.028 A 
ATOM     22  C   LIG    1        2.527   2.756 -11.982  0.00  0.00    +0.083 A 
ATOM     23  C   LIG    1        3.687   2.802 -11.215  0.00  0.00    +0.146 A 
ATOM     24  F   LIG    1        4.511   3.869 -11.299  0.00  0.00    -0.203 F 
ATOM     25  C   LIG    1        3.991   1.757 -10.363  0.00  0.00    +0.045 A 
BRANCH  22  26
ATOM     26  N   LIG    1        2.213   3.813 -12.841  0.00  0.00    -0.218 N 
ATOM     27  H   LIG    1        1.392   3.778 -13.384  0.00  0.00    +0.173 HD
BRANCH  26  28
ATOM     28  S   LIG    1        3.221   5.122 -12.947  0.00  0.00    +0.040 S 
ATOM     29  C   LIG    1        2.433   6.221 -14.157  0.00  0.00    +0.218 C 
ATOM     30  O   LIG    1        4.434   4.604 -13.474  0.00  0.00    -0.155 OA
ATOM     31  O   LIG    1        3.185   5.712 -11.655  0.00  0.00    -0.155 OA
ENDBRANCH  26  28
ENDBRANCH  22  26
ENDBRANCH  18  19
ENDBRANCH   1  18
TORSDOF 9
