REMARK  Name = ZINC01530689
REMARK                            x       y       z     vdW  Elec       q    Type
REMARK                         _______ _______ _______ _____ _____    ______ ____
ROOT
ATOM      1  C   LIG    1        0.845  -0.397  -1.185  0.00  0.00    -0.032 C 
ATOM      2  C   LIG    1        2.109  -0.851  -0.997  0.00  0.00    -0.007 C 
ENDROOT
BRANCH   1   3
ATOM      3  C   LIG    1        0.301  -0.277  -2.546  0.00  0.00    -0.021 A 
ATOM      4  C   LIG    1        0.864   0.630  -3.450  0.00  0.00    +0.008 A 
ATOM      5  C   LIG    1        0.349   0.736  -4.725  0.00  0.00    +0.001 A 
ATOM      6  C   LIG    1       -0.722  -0.051  -5.110  0.00  0.00    +0.000 A 
ATOM      7  C   LIG    1       -1.285  -0.951  -4.221  0.00  0.00    +0.001 A 
ATOM      8  C   LIG    1       -0.777  -1.073  -2.945  0.00  0.00    +0.008 A 
ENDBRANCH   1   3
BRANCH   2   9
ATOM      9  C   LIG    1        2.891  -1.357  -2.146  0.00  0.00    -0.017 A 
ATOM     10  C   LIG    1        2.476  -2.504  -2.824  0.00  0.00    +0.012 A 
ATOM     11  C   LIG    1        3.208  -2.972  -3.894  0.00  0.00    +0.046 A 
ATOM     12  C   LIG    1        4.357  -2.304  -4.298  0.00  0.00    +0.120 A 
ATOM     13  C   LIG    1        4.773  -1.163  -3.625  0.00  0.00    +0.046 A 
ATOM     14  C   LIG    1        4.043  -0.685  -2.558  0.00  0.00    +0.012 A 
BRANCH  12  15
ATOM     15  O   LIG    1        5.075  -2.769  -5.353  0.00  0.00    -0.494 OA
BRANCH  15  16
ATOM     16  C   LIG    1        6.246  -2.034  -5.715  0.00  0.00    +0.210 C 
BRANCH  16  17
ATOM     17  C   LIG    1        6.918  -2.703  -6.915  0.00  0.00    -0.038 C 
BRANCH  17  18
ATOM     18  N   LIG    1        6.031  -2.620  -8.083  0.00  0.00    +0.378 N 
ATOM     19  H   LIG    1        5.133  -3.017  -7.851  0.00  0.00    -0.082 HD
ATOM     20  C   LIG    1        6.622  -3.365  -9.202  0.00  0.00    -0.096 C 
ATOM     21  C   LIG    1        5.860  -1.213  -8.468  0.00  0.00    -0.096 C 
ENDBRANCH  17  18
ENDBRANCH  16  17
ENDBRANCH  15  16
ENDBRANCH  12  15
ENDBRANCH   2   9
BRANCH   2  22
ATOM     22  C   LIG    1        2.705  -0.840   0.357  0.00  0.00    -0.017 A 
ATOM     23  C   LIG    1        2.927   0.371   1.015  0.00  0.00    +0.008 A 
ATOM     24  C   LIG    1        3.484   0.374   2.278  0.00  0.00    +0.001 A 
ATOM     25  C   LIG    1        3.822  -0.819   2.891  0.00  0.00    +0.000 A 
ATOM     26  C   LIG    1        3.604  -2.023   2.244  0.00  0.00    +0.001 A 
ATOM     27  C   LIG    1        3.043  -2.040   0.984  0.00  0.00    +0.008 A 
ENDBRANCH   2  22
BRANCH   1  29
ATOM     28  C   LIG    1       -0.862  -1.210   0.420  0.00  0.00    +0.009 C 
ATOM     29  C   LIG    1       -0.003  -0.015   0.001  0.00  0.00    +0.033 C 
ENDBRANCH   1  29
TORSDOF 8
