REMARK  Name = ZINC01529772
REMARK                            x       y       z     vdW  Elec       q    Type
REMARK                         _______ _______ _______ _____ _____    ______ ____
ROOT
ATOM      1  C   LIG    1       -1.258  -0.759   0.027  0.00  0.00    +0.008 C 
ATOM      2  C   LIG    1       -2.441  -0.100   0.036  0.00  0.00    +0.001 C 
ENDROOT
BRANCH   1  11
ATOM      3  C   LIG    1       -0.016   1.395   0.026  0.00  0.00    +0.012 A 
ATOM      4  C   LIG    1        1.168   2.099   0.021  0.00  0.00    +0.050 A 
ATOM      5  C   LIG    1        2.382   1.425   0.012  0.00  0.00    +0.166 A 
ATOM      6  C   LIG    1        2.409   0.029   0.007  0.00  0.00    +0.167 A 
ATOM      7  O   LIG    1        3.711  -0.381  -0.002  0.00  0.00    -0.453 OA
ATOM      8  C   LIG    1        4.473   0.769  -0.416  0.00  0.00    +0.466 C 
ATOM      9  C   LIG    1        1.227  -0.684   0.012  0.00  0.00    +0.057 A 
ATOM     10  O   LIG    1        3.667   1.885   0.006  0.00  0.00    -0.453 OA
ATOM     11  C   LIG    1        0.002  -0.005   0.022  0.00  0.00    -0.021 A 
ENDBRANCH   1  11
BRANCH   2  12
ATOM     12  C   LIG    1       -3.651  -0.824   0.042  0.00  0.00    +0.005 C 
ATOM     13  C   LIG    1       -4.838  -0.164   0.051  0.00  0.00    +0.067 C 
BRANCH  13  14
ATOM     14  C   LIG    1       -6.053  -0.890   0.056  0.00  0.00    +0.239 C 
ATOM     15  N   LIG    1       -7.227  -0.239   0.173  0.00  0.00    -0.298 N 
ATOM     16  C   LIG    1       -8.487  -0.984   0.299  0.00  0.00    +0.108 C 
ATOM     17  C   LIG    1       -9.228  -0.492   1.546  0.00  0.00    +0.019 C 
ATOM     18  C   LIG    1       -9.401   1.026   1.466  0.00  0.00    +0.003 C 
ATOM     19  C   LIG    1       -8.026   1.697   1.425  0.00  0.00    +0.019 C 
ATOM     20  C   LIG    1       -7.271   1.230   0.183  0.00  0.00    +0.108 C 
ATOM     21  O   LIG    1       -6.037  -2.104  -0.044  0.00  0.00    -0.271 OA
ENDBRANCH  13  14
ENDBRANCH   2  12
TORSDOF 3
