REMARK  Name = ZINC01661527
REMARK                            x       y       z     vdW  Elec       q    Type
REMARK                         _______ _______ _______ _____ _____    ______ ____
ROOT
ATOM      1  C   LIG    1       -2.247  -0.499  -1.505  0.00  0.00    +0.105 A 
ATOM      2  C   LIG    1       -3.117   0.573  -1.584  0.00  0.00    +0.030 A 
ATOM      3  C   LIG    1       -3.765   0.850  -2.773  0.00  0.00    +0.022 A 
ATOM      4  C   LIG    1       -3.543   0.055  -3.884  0.00  0.00    +0.041 A 
ATOM      5 CL   LIG    1       -4.358   0.402  -5.377  0.00  0.00    -0.084 Cl
ATOM      6  C   LIG    1       -2.672  -1.017  -3.803  0.00  0.00    +0.022 A 
ATOM      7  C   LIG    1       -2.020  -1.290  -2.615  0.00  0.00    +0.030 A 
ENDROOT
BRANCH   1   8
ATOM      8  S   LIG    1       -1.421  -0.852   0.011  0.00  0.00    +0.058 S 
ATOM      9  O   LIG    1       -2.218  -0.295   1.047  0.00  0.00    -0.153 OA
ATOM     10  O   LIG    1       -1.073  -2.229  -0.027  0.00  0.00    -0.153 OA
BRANCH   8  12
ATOM     11  C   LIG    1       -0.018   1.461   0.010  0.00  0.00    +0.127 C 
ATOM     12  N   LIG    1        0.002  -0.004   0.002  0.00  0.00    -0.193 NA
ATOM     13  H   LIG    1        0.849  -0.478  -0.009  0.00  0.00    +0.148 HD
ENDBRANCH   8  12
ENDBRANCH   1   8
TORSDOF 2
