REMARK  Name = ZINC01561846
REMARK                            x       y       z     vdW  Elec       q    Type
REMARK                         _______ _______ _______ _____ _____    ______ ____
ROOT
ATOM      1  C   LIG    1       -3.728   7.091  -0.243  0.00  0.00    +0.120 A 
ATOM      2  C   LIG    1       -2.560   7.838  -0.252  0.00  0.00    +0.049 A 
ATOM      3  C   LIG    1       -1.335   7.205  -0.160  0.00  0.00    +0.050 A 
ATOM      4  C   LIG    1       -1.274   5.823  -0.060  0.00  0.00    +0.129 A 
ATOM      5  C   LIG    1       -2.443   5.076  -0.056  0.00  0.00    +0.050 A 
ATOM      6  C   LIG    1       -3.667   5.709  -0.142  0.00  0.00    +0.049 A 
ENDROOT
BRANCH   1   8
ATOM      7  C   LIG    1       -6.096   6.882  -0.318  0.00  0.00    +0.277 C 
ATOM      8  O   LIG    1       -4.934   7.713  -0.333  0.00  0.00    -0.495 OA
ENDBRANCH   1   8
BRANCH   4   9
ATOM      9  O   LIG    1       -0.069   5.201   0.030  0.00  0.00    -0.456 OA
BRANCH   9  10
ATOM     10  C   LIG    1       -0.048   3.842  -0.001  0.00  0.00    +0.128 A 
ATOM     11  C   LIG    1       -0.401   3.168  -1.161  0.00  0.00    +0.046 A 
ATOM     12  C   LIG    1       -0.379   1.787  -1.190  0.00  0.00    +0.004 A 
ATOM     13  C   LIG    1       -0.006   1.077  -0.064  0.00  0.00    +0.000 A 
ATOM     14  C   LIG    1        0.340   1.746   1.096  0.00  0.00    +0.004 A 
ATOM     15  C   LIG    1        0.326   3.127   1.128  0.00  0.00    +0.046 A 
ENDBRANCH   9  10
ENDBRANCH   4   9
TORSDOF 3
