REMARK  Name = ZINC01439372
REMARK                            x       y       z     vdW  Elec       q    Type
REMARK                         _______ _______ _______ _____ _____    ______ ____
ROOT
ATOM      1  C   LIG    1        2.249   2.733  -0.004  0.00  0.00    +0.018 A 
ATOM      2  C   LIG    1        1.080   2.030   0.002  0.00  0.00    +0.027 A 
ATOM      3  C   LIG    1       -0.140   2.700   0.017  0.00  0.00    +0.047 A 
ATOM      4  C   LIG    1       -0.162   4.108   0.024  0.00  0.00    +0.000 A 
ATOM      5  C   LIG    1        1.034   4.823   0.017  0.00  0.00    +0.025 A 
ATOM      6  C   LIG    1       -1.576   4.492   0.039  0.00  0.00    +0.027 A 
ATOM      7  C   LIG    1       -2.289   3.355   0.035  0.00  0.00    +0.083 A 
ATOM      8  N   LIG    1       -1.448   2.275   0.027  0.00  0.00    -0.361 N 
ATOM      9  H   LIG    1       -1.733   1.348   0.024  0.00  0.00    +0.165 HD
ATOM     10  C   LIG    1        2.241   4.133   0.002  0.00  0.00    +0.061 A 
ENDROOT
BRANCH  10  11
ATOM     11  C   LIG    1        3.519   4.880  -0.006  0.00  0.00    +0.266 C 
ATOM     12  N   LIG    1        3.444   6.202   0.001  0.00  0.00    -0.288 N 
ATOM     13  H   LIG    1        2.527   6.664   0.012  0.00  0.00    +0.301 HD
ATOM     14  H   LIG    1        4.297   6.761  -0.004  0.00  0.00    +0.301 HD
BRANCH  11  15
ATOM     15  N   LIG    1        4.716   4.197  -0.020  0.00  0.00    -0.250 N 
ATOM     16  H   LIG    1        5.553   4.686  -0.026  0.00  0.00    +0.288 HD
ATOM     17  H   LIG    1        4.721   3.227  -0.025  0.00  0.00    +0.288 HD
ENDBRANCH  11  15
ENDBRANCH  10  11
TORSDOF 2
