REMARK  Name = ZINC01661889
REMARK                            x       y       z     vdW  Elec       q    Type
REMARK                         _______ _______ _______ _____ _____    ______ ____
ROOT
ATOM      1  C   LIG    1       -3.093   1.164   2.323  0.00  0.00    +0.054 A 
ATOM      2  C   LIG    1       -2.193   1.208   1.182  0.00  0.00    -0.025 A 
ATOM      3  C   LIG    1       -2.753   0.896  -0.005  0.00  0.00    -0.005 A 
ATOM      4  C   LIG    1       -2.076   0.859  -1.341  0.00  0.00    +0.043 C 
ATOM      5  C   LIG    1       -0.732   1.591  -1.224  0.00  0.00    +0.005 C 
ATOM      6  C   LIG    1       -0.001   1.083   0.023  0.00  0.00    +0.005 C 
ATOM      7  S   LIG    1       -4.447   0.546   0.368  0.00  0.00    -0.078 S 
ATOM      8  C   LIG    1       -0.719   1.575   1.281  0.00  0.00    +0.037 C 
ATOM      9  C   LIG    1       -4.418   0.810   2.080  0.00  0.00    +0.074 A 
ENDROOT
BRANCH   9  10
ATOM     10  N   LIG    1       -5.455   0.698   2.984  0.00  0.00    -0.352 N 
ATOM     11  H   LIG    1       -6.320   0.370   2.691  0.00  0.00    +0.143 HD
ATOM     12  H   LIG    1       -5.319   0.946   3.912  0.00  0.00    +0.143 HD
ENDBRANCH   9  10
BRANCH   1  13
ATOM     13  C   LIG    1       -2.626   1.479   3.673  0.00  0.00    +0.196 C 
ATOM     14  O   LIG    1       -2.271   0.584   4.419  0.00  0.00    -0.287 OA
BRANCH  13  22
ATOM     15  C   LIG    1       -2.038   3.198   5.378  0.00  0.00    +0.013 A 
ATOM     16  C   LIG    1       -2.001   4.511   5.801  0.00  0.00    +0.022 A 
ATOM     17  C   LIG    1       -2.504   5.516   4.992  0.00  0.00    +0.059 A 
ATOM     18 CL   LIG    1       -2.453   7.165   5.532  0.00  0.00    -0.082 Cl
ATOM     19  C   LIG    1       -3.046   5.211   3.753  0.00  0.00    +0.060 A 
ATOM     20 CL   LIG    1       -3.673   6.478   2.746  0.00  0.00    -0.082 Cl
ATOM     21  C   LIG    1       -3.084   3.902   3.318  0.00  0.00    +0.033 A 
ATOM     22  C   LIG    1       -2.584   2.884   4.132  0.00  0.00    +0.024 A 
ENDBRANCH  13  22
ENDBRANCH   1  13
TORSDOF 3
