REMARK  Name = ZINC01530487
REMARK                            x       y       z     vdW  Elec       q    Type
REMARK                         _______ _______ _______ _____ _____    ______ ____
ROOT
ATOM      1  C   LIG    1        2.102  -3.458  -3.144  0.00  0.00    +0.132 A 
ATOM      2  C   LIG    1        3.258  -4.027  -2.630  0.00  0.00    +0.048 A 
ATOM      3  C   LIG    1        3.583  -5.332  -2.945  0.00  0.00    +0.036 A 
ATOM      4  C   LIG    1        2.757  -6.072  -3.771  0.00  0.00    +0.122 A 
ATOM      5  C   LIG    1        1.604  -5.507  -4.284  0.00  0.00    +0.036 A 
ATOM      6  C   LIG    1        1.272  -4.204  -3.968  0.00  0.00    +0.048 A 
ENDROOT
BRANCH   4   7
ATOM      7  N   LIG    1        3.108  -7.470  -4.106  0.00  0.00    +0.006 N 
ATOM      8  O   LIG    1        4.116  -7.964  -3.658  0.00  0.00    -0.130 OA
BRANCH   7   9
ATOM      9  O   LIG    1        2.386  -8.117  -4.828  0.00  0.00    -0.396 OA
ATOM     10  H   LIG    1        1.605  -7.734  -5.176  0.00  0.00    +0.329 HD
ENDBRANCH   7   9
ENDBRANCH   4   7
BRANCH   1  11
ATOM     11  O   LIG    1        1.779  -2.174  -2.836  0.00  0.00    -0.404 OA
BRANCH  11  12
ATOM     12  P   LIG    1        0.877  -2.026  -1.510  0.00  0.00    +0.533 P 
ATOM     13  O   LIG    1        1.556  -2.690  -0.375  0.00  0.00    -0.215 OA
BRANCH  12  14
ATOM     14  O   LIG    1        0.671  -0.465  -1.174  0.00  0.00    -0.277 OA
BRANCH  14  16
ATOM     15  C   LIG    1       -0.019   1.526   0.010  0.00  0.00    +0.035 C 
ATOM     16  C   LIG    1        0.002  -0.004   0.002  0.00  0.00    +0.170 C 
ENDBRANCH  14  16
ENDBRANCH  12  14
BRANCH  12  17
ATOM     17  O   LIG    1       -0.556  -2.716  -1.757  0.00  0.00    -0.277 OA
BRANCH  17  18
ATOM     18  C   LIG    1       -1.455  -2.297  -2.786  0.00  0.00    +0.170 C 
ATOM     19  C   LIG    1       -2.718  -3.159  -2.742  0.00  0.00    +0.035 C 
ENDBRANCH  17  18
ENDBRANCH  12  17
ENDBRANCH  11  12
ENDBRANCH   1  11
TORSDOF 8
