REMARK  Name = ZINC01599927
REMARK                            x       y       z     vdW  Elec       q    Type
REMARK                         _______ _______ _______ _____ _____    ______ ____
ROOT
ATOM      1  C   LIG    1        2.344   5.112   1.113  0.00  0.00    +0.001 A 
ATOM      2  C   LIG    1        1.149   5.823   1.129  0.00  0.00    +0.001 A 
ATOM      3  C   LIG    1       -0.038   5.201   0.872  0.00  0.00    +0.009 A 
ATOM      4  C   LIG    1       -0.054   3.832   0.589  0.00  0.00    -0.010 A 
ATOM      5  C   LIG    1        1.159   3.105   0.572  0.00  0.00    -0.017 A 
ATOM      6  C   LIG    1        1.145   1.723   0.287  0.00  0.00    +0.009 A 
ATOM      7  C   LIG    1       -0.014   1.074   0.028  0.00  0.00    +0.010 A 
ATOM      8  C   LIG    1       -1.248   1.746   0.026  0.00  0.00    -0.009 A 
ATOM      9  C   LIG    1       -2.499   1.038  -0.249  0.00  0.00    -0.008 A 
ATOM     10  C   LIG    1       -2.518  -0.330  -0.532  0.00  0.00    +0.009 A 
ATOM     11  C   LIG    1       -3.706  -0.952  -0.789  0.00  0.00    +0.001 A 
ATOM     12  C   LIG    1       -4.900  -0.240  -0.772  0.00  0.00    +0.001 A 
ATOM     13  C   LIG    1       -4.916   1.096  -0.500  0.00  0.00    +0.011 A 
ATOM     14  C   LIG    1       -3.712   1.766  -0.232  0.00  0.00    +0.013 A 
ATOM     15  C   LIG    1       -3.697   3.148   0.052  0.00  0.00    +0.130 A 
ATOM     16  C   LIG    1       -2.539   3.797   0.311  0.00  0.00    +0.042 A 
ATOM     17  C   LIG    1       -1.304   3.124   0.308  0.00  0.00    -0.007 A 
ATOM     18  C   LIG    1        2.362   3.777   0.840  0.00  0.00    +0.008 A 
ENDROOT
BRANCH  15  19
ATOM     19  N   LIG    1       -4.972   3.901   0.068  0.00  0.00    +0.007 N 
ATOM     20  O   LIG    1       -5.014   5.036  -0.372  0.00  0.00    -0.130 OA
BRANCH  19  21
ATOM     21  O   LIG    1       -5.978   3.386   0.521  0.00  0.00    -0.396 OA
ATOM     22  H   LIG    1       -5.946   2.512   0.859  0.00  0.00    +0.329 HD
ENDBRANCH  19  21
ENDBRANCH  15  19
TORSDOF 2
