REMARK  Name = ZINC01612328
REMARK                            x       y       z     vdW  Elec       q    Type
REMARK                         _______ _______ _______ _____ _____    ______ ____
ROOT
ATOM      1  C   LIG    1        0.211   6.048  -0.479  0.00  0.00    +0.040 C 
ENDROOT
BRANCH   1   2
ATOM      2  C   LIG    1       -0.366   5.119   0.558  0.00  0.00    -0.040 A 
ATOM      3  C   LIG    1       -1.000   5.638   1.672  0.00  0.00    +0.053 A 
ATOM      4  C   LIG    1       -1.531   4.787   2.629  0.00  0.00    +0.165 A 
ATOM      5  C   LIG    1       -1.431   3.410   2.464  0.00  0.00    +0.204 A 
ATOM      6  C   LIG    1       -0.787   2.893   1.346  0.00  0.00    +0.165 A 
ATOM      7  C   LIG    1       -0.259   3.751   0.394  0.00  0.00    +0.053 A 
BRANCH   4   8
ATOM      8  O   LIG    1       -2.156   5.298   3.723  0.00  0.00    -0.491 OA
ATOM      9  C   LIG    1       -2.228   6.721   3.823  0.00  0.00    +0.277 C 
ENDBRANCH   4   8
BRANCH   5  10
ATOM     10  O   LIG    1       -1.957   2.571   3.398  0.00  0.00    -0.488 OA
ATOM     11  C   LIG    1       -1.102   2.182   4.475  0.00  0.00    +0.277 C 
ENDBRANCH   5  10
BRANCH   6  12
ATOM     12  O   LIG    1       -0.682   1.547   1.184  0.00  0.00    -0.491 OA
ATOM     13  C   LIG    1       -0.013   1.086   0.008  0.00  0.00    +0.277 C 
ENDBRANCH   6  12
ENDBRANCH   1   2
BRANCH   1  14
ATOM     14  C   LIG    1       -0.850   6.349  -1.540  0.00  0.00    +0.040 C 
BRANCH  14  18
ATOM     15  C   LIG    1        0.785   8.990  -4.480  0.00  0.00    +0.161 A 
ATOM     16  C   LIG    1        0.148   9.503  -3.361  0.00  0.00    +0.049 A 
ATOM     17  C   LIG    1       -0.385   8.647  -2.416  0.00  0.00    +0.007 A 
ATOM     18  C   LIG    1       -0.273   7.278  -2.577  0.00  0.00    -0.043 A 
ATOM     19  C   LIG    1        0.362   6.760  -3.690  0.00  0.00    +0.052 A 
ATOM     20  C   LIG    1        0.893   7.612  -4.645  0.00  0.00    +0.159 A 
BRANCH  15  22
ATOM     21  C   LIG    1        1.157  11.233  -5.179  0.00  0.00    +0.277 C 
ATOM     22  O   LIG    1        1.304   9.831  -5.414  0.00  0.00    -0.491 OA
ENDBRANCH  15  22
BRANCH  20  23
ATOM     23  O   LIG    1        1.518   7.104  -5.740  0.00  0.00    -0.503 OA
ATOM     24  H   LIG    1        0.930   6.949  -6.492  0.00  0.00    +0.292 HD
ENDBRANCH  20  23
ENDBRANCH  14  18
ENDBRANCH   1  14
TORSDOF 8
