REMARK  Name = ZINC01665651
REMARK                            x       y       z     vdW  Elec       q    Type
REMARK                         _______ _______ _______ _____ _____    ______ ____
ROOT
ATOM      1  C   LIG    1        3.066  -0.031  -0.027  0.00  0.00    +0.082 C 
ENDROOT
BRANCH   1   2
ATOM      2  C   LIG    1        1.581  -0.397  -0.014  0.00  0.00    +0.232 C 
BRANCH   2   3
ATOM      3  O   LIG    1        0.796   0.797  -0.001  0.00  0.00    -0.491 OA
BRANCH   3   6
ATOM      4  C   LIG    1       -2.479  -0.781   0.018  0.00  0.00    +0.019 A 
ATOM      5  C   LIG    1       -1.110  -0.625   0.011  0.00  0.00    +0.047 A 
ATOM      6  C   LIG    1       -0.554   0.647   0.012  0.00  0.00    +0.134 A 
ATOM      7  C   LIG    1       -1.376   1.768   0.025  0.00  0.00    +0.060 A 
ATOM      8 BR   LIG    1       -0.613   3.499   0.026  0.00  0.00    -0.046 Br
ATOM      9  C   LIG    1       -2.746   1.620   0.037  0.00  0.00    +0.034 A 
ATOM     10  C   LIG    1       -3.308   0.342   0.036  0.00  0.00    +0.062 A 
BRANCH  10  11
ATOM     11  C   LIG    1       -4.778   0.178   0.049  0.00  0.00    +0.266 C 
ATOM     12  N   LIG    1       -5.507   1.284   0.061  0.00  0.00    -0.288 N 
ATOM     13  H   LIG    1       -5.048   2.202   0.061  0.00  0.00    +0.301 HD
ATOM     14  H   LIG    1       -6.526   1.223   0.070  0.00  0.00    +0.301 HD
BRANCH  11  15
ATOM     15  N   LIG    1       -5.331  -1.084   0.048  0.00  0.00    -0.250 N 
ATOM     16  H   LIG    1       -6.295  -1.192   0.057  0.00  0.00    +0.288 HD
ATOM     17  H   LIG    1       -4.756  -1.865   0.040  0.00  0.00    +0.288 HD
ENDBRANCH  11  15
ENDBRANCH  10  11
ENDBRANCH   3   6
ENDBRANCH   2   3
ENDBRANCH   1   2
BRANCH   1  18
ATOM     18  C   LIG    1        3.906  -1.309  -0.041  0.00  0.00    +0.232 C 
BRANCH  18  19
ATOM     19  O   LIG    1        5.294  -0.967  -0.053  0.00  0.00    -0.491 OA
BRANCH  19  20
ATOM     20  C   LIG    1        6.182  -1.994  -0.067  0.00  0.00    +0.134 A 
ATOM     21  C   LIG    1        5.725  -3.306  -0.069  0.00  0.00    +0.047 A 
ATOM     22  C   LIG    1        6.623  -4.351  -0.083  0.00  0.00    +0.019 A 
ATOM     23  C   LIG    1        7.994  -4.090  -0.096  0.00  0.00    +0.062 A 
ATOM     24  C   LIG    1        8.451  -2.772  -0.093  0.00  0.00    +0.034 A 
ATOM     25  C   LIG    1        7.547  -1.731  -0.084  0.00  0.00    +0.060 A 
ATOM     26 BR   LIG    1        8.164   0.057  -0.088  0.00  0.00    -0.046 Br
BRANCH  23  27
ATOM     27  C   LIG    1        8.961  -5.210  -0.111  0.00  0.00    +0.266 C 
ATOM     28  N   LIG    1        8.462  -6.437  -0.112  0.00  0.00    -0.288 N 
ATOM     29  H   LIG    1        7.445  -6.578  -0.102  0.00  0.00    +0.301 HD
ATOM     30  H   LIG    1        9.089  -7.242  -0.122  0.00  0.00    +0.301 HD
BRANCH  27  31
ATOM     31  N   LIG    1       10.315  -4.951  -0.123  0.00  0.00    -0.250 N 
ATOM     32  H   LIG    1       10.949  -5.685  -0.133  0.00  0.00    +0.288 HD
ATOM     33  H   LIG    1       10.633  -4.035  -0.122  0.00  0.00    +0.288 HD
ENDBRANCH  27  31
ENDBRANCH  23  27
ENDBRANCH  19  20
ENDBRANCH  18  19
ENDBRANCH   1  18
TORSDOF 10
