REMARK  Name = ZINC01642928
REMARK                            x       y       z     vdW  Elec       q    Type
REMARK                         _______ _______ _______ _____ _____    ______ ____
ROOT
ATOM      1  C   LIG    1       -0.017   1.383   0.010  0.00  0.00    +0.020 A 
ATOM      2  C   LIG    1        1.177   2.085   0.002  0.00  0.00    +0.015 A 
ATOM      3  C   LIG    1        2.371   1.358  -0.014  0.00  0.00    +0.046 A 
ATOM      4  C   LIG    1        2.304  -0.049  -0.024  0.00  0.00    +0.123 A 
ATOM      5  C   LIG    1        3.580  -0.807  -0.051  0.00  0.00    +0.230 C 
ATOM      6  C   LIG    1        4.767  -0.058  -0.587  0.00  0.00    +0.111 C 
ATOM      7  C   LIG    1        4.820   1.383  -0.290  0.00  0.00    +0.077 C 
ATOM      8  N   LIG    1        5.700  -0.652  -1.280  0.00  0.00    -0.280 NA
ATOM      9  O   LIG    1        3.659  -1.956   0.335  0.00  0.00    -0.283 OA
ATOM     10  N   LIG    1        1.137  -0.672  -0.014  0.00  0.00    -0.251 NA
ATOM     11  C   LIG    1        3.671   2.046  -0.019  0.00  0.00    +0.128 C 
ATOM     12  C   LIG    1        0.002  -0.004   0.002  0.00  0.00    +0.111 A 
ENDROOT
BRANCH  11  13
ATOM     13  O   LIG    1        3.719   3.373   0.252  0.00  0.00    -0.506 OA
ATOM     14  H   LIG    1        2.930   3.842   0.441  0.00  0.00    +0.292 HD
ENDBRANCH  11  13
BRANCH   8  15
ATOM     15  C   LIG    1        6.841   0.117  -1.784  0.00  0.00    +0.147 C 
BRANCH  15  16
ATOM     16  C   LIG    1        8.124  -0.372  -1.110  0.00  0.00    +0.058 C 
BRANCH  16  17
ATOM     17  C   LIG    1        9.297   0.419  -1.628  0.00  0.00    -0.043 A 
ATOM     18  C   LIG    1        9.985  -0.018  -2.745  0.00  0.00    +0.022 A 
ATOM     19  C   LIG    1       11.061   0.706  -3.223  0.00  0.00    +0.061 A 
ATOM     20 BR   LIG    1       12.002   0.107  -4.750  0.00  0.00    -0.046 Br
ATOM     21  C   LIG    1       11.451   1.873  -2.580  0.00  0.00    +0.145 A 
ATOM     22  C   LIG    1       10.759   2.309  -1.460  0.00  0.00    +0.061 A 
ATOM     23 BR   LIG    1       11.287   3.898  -0.581  0.00  0.00    -0.046 Br
ATOM     24  C   LIG    1        9.680   1.584  -0.990  0.00  0.00    +0.022 A 
BRANCH  21  25
ATOM     25  O   LIG    1       12.510   2.586  -3.047  0.00  0.00    -0.505 OA
ATOM     26  H   LIG    1       12.273   3.259  -3.700  0.00  0.00    +0.292 HD
ENDBRANCH  21  25
ENDBRANCH  16  17
ENDBRANCH  15  16
ENDBRANCH   8  15
TORSDOF 5
