REMARK  Name = ZINC01488208
REMARK                            x       y       z     vdW  Elec       q    Type
REMARK                         _______ _______ _______ _____ _____    ______ ____
ROOT
ATOM      1  C   LIG    1       -1.165   3.514   0.791  0.00  0.00    +0.034 A 
ATOM      2  C   LIG    1        0.064   4.181   0.826  0.00  0.00    +0.025 A 
ATOM      3  C   LIG    1        0.126   5.538   0.745  0.00  0.00    +0.030 A 
ATOM      4  C   LIG    1       -1.055   6.285   0.635  0.00  0.00    +0.076 A 
ATOM      5  C   LIG    1       -2.303   5.617   0.604  0.00  0.00    +0.042 A 
ATOM      6  C   LIG    1       -3.479   6.398   0.492  0.00  0.00    +0.134 A 
ATOM      7  N   LIG    1       -3.350   7.716   0.421  0.00  0.00    -0.220 NA
ATOM      8  C   LIG    1       -2.162   8.298   0.455  0.00  0.00    +0.223 A 
ATOM      9  N   LIG    1       -1.040   7.625   0.557  0.00  0.00    -0.235 NA
ATOM     10  C   LIG    1       -2.345   4.221   0.683  0.00  0.00    +0.036 A 
ENDROOT
BRANCH   1  12
ATOM     11  C   LIG    1       -0.215   1.387   0.310  0.00  0.00    +0.241 C 
ATOM     12  N   LIG    1       -1.198   2.118   0.871  0.00  0.00    -0.282 N 
ATOM     13  H   LIG    1       -1.929   1.675   1.331  0.00  0.00    +0.155 HD
ATOM     14  O   LIG    1        0.650   1.934  -0.348  0.00  0.00    -0.271 OA
BRANCH  11  16
ATOM     15  C   LIG    1        0.777  -0.795  -0.070  0.00  0.00    +0.013 C 
ATOM     16  C   LIG    1       -0.190  -0.073   0.488  0.00  0.00    +0.060 C 
ENDBRANCH  11  16
ENDBRANCH   1  12
BRANCH   6  17
ATOM     17  N   LIG    1       -4.724   5.805   0.457  0.00  0.00    -0.299 N 
ATOM     18  H   LIG    1       -4.800   4.838   0.427  0.00  0.00    +0.154 HD
BRANCH  17  19
ATOM     19  C   LIG    1       -5.876   6.596   0.464  0.00  0.00    +0.033 A 
ATOM     20  C   LIG    1       -7.015   6.174  -0.212  0.00  0.00    +0.023 A 
ATOM     21  C   LIG    1       -8.152   6.958  -0.203  0.00  0.00    +0.003 A 
ATOM     22  C   LIG    1       -8.158   8.162   0.477  0.00  0.00    +0.015 A 
ATOM     23  C   LIG    1       -7.027   8.585   1.151  0.00  0.00    +0.020 A 
ATOM     24 BR   LIG    1       -7.042  10.232   2.081  0.00  0.00    -0.050 Br
ATOM     25  C   LIG    1       -5.887   7.803   1.151  0.00  0.00    +0.038 A 
ENDBRANCH  17  19
ENDBRANCH   6  17
TORSDOF 4
