REMARK  Name = ZINC01601014
REMARK                            x       y       z     vdW  Elec       q    Type
REMARK                         _______ _______ _______ _____ _____    ______ ____
ROOT
ATOM      1  C   LIG    1       -0.070   5.320   0.029  0.00  0.00    +0.233 C 
ATOM      2  O   LIG    1       -0.721   5.230   1.050  0.00  0.00    -0.283 OA
ENDROOT
BRANCH   1   5
ATOM      3  C   LIG    1       -0.404   4.450  -3.607  0.00  0.00    +0.003 A 
ATOM      4  C   LIG    1        0.096   4.968  -2.431  0.00  0.00    +0.012 A 
ATOM      5  C   LIG    1       -0.598   4.769  -1.233  0.00  0.00    +0.028 A 
ATOM      6  C   LIG    1       -1.795   4.045  -1.237  0.00  0.00    +0.044 A 
ATOM      7  C   LIG    1       -2.285   3.539  -2.422  0.00  0.00    +0.122 A 
ATOM      8  C   LIG    1       -1.590   3.735  -3.603  0.00  0.00    +0.032 A 
BRANCH   7   9
ATOM      9  N   LIG    1       -3.555   2.778  -2.431  0.00  0.00    +0.006 N 
ATOM     10  O   LIG    1       -3.987   2.326  -3.476  0.00  0.00    -0.130 OA
BRANCH   9  11
ATOM     11  O   LIG    1       -4.168   2.604  -1.393  0.00  0.00    -0.396 OA
ATOM     12  H   LIG    1       -3.835   2.952  -0.589  0.00  0.00    +0.329 HD
ENDBRANCH   9  11
ENDBRANCH   7   9
ENDBRANCH   1   5
BRANCH   1  13
ATOM     13  C   LIG    1        1.263   5.988   0.051  0.00  0.00    +0.233 C 
ATOM     14  O   LIG    1        2.277   5.322   0.005  0.00  0.00    -0.283 OA
BRANCH  13  15
ATOM     15  C   LIG    1        1.350   7.458   0.130  0.00  0.00    +0.028 A 
ATOM     16  C   LIG    1        2.593   8.094   0.045  0.00  0.00    +0.012 A 
ATOM     17  C   LIG    1        2.666   9.469   0.118  0.00  0.00    +0.003 A 
ATOM     18  C   LIG    1        1.514  10.219   0.275  0.00  0.00    +0.032 A 
ATOM     19  C   LIG    1        0.280   9.597   0.360  0.00  0.00    +0.122 A 
ATOM     20  C   LIG    1        0.190   8.223   0.283  0.00  0.00    +0.044 A 
BRANCH  19  21
ATOM     21  N   LIG    1       -0.947  10.409   0.527  0.00  0.00    +0.006 N 
ATOM     22  O   LIG    1       -0.869  11.623   0.590  0.00  0.00    -0.130 OA
BRANCH  21  23
ATOM     23  O   LIG    1       -2.033   9.863   0.602  0.00  0.00    -0.396 OA
ATOM     24  H   LIG    1       -2.092   8.929   0.554  0.00  0.00    +0.329 HD
ENDBRANCH  21  23
ENDBRANCH  19  21
ENDBRANCH  13  15
ENDBRANCH   1  13
TORSDOF 7
