REMARK  Name = ZINC01529201
REMARK                            x       y       z     vdW  Elec       q    Type
REMARK                         _______ _______ _______ _____ _____    ______ ____
ROOT
ATOM      1  C   GLU A  1        3.319   3.625   1.153  0.00  0.00    +0.199 C 
ATOM      2  N   GLU A  2        2.634   3.529  -0.004  0.00  0.00    -0.304 N 
ATOM      3  H   GLU A  2        3.067   3.747  -0.844  0.00  0.00    +0.149 HD
ATOM      4  O   GLU A  1        2.777   3.352   2.203  0.00  0.00    -0.278 OA
ENDROOT
BRANCH   1   5
ATOM      5  CA  GLU A  1        4.758   4.072   1.141  0.00  0.00    +0.013 C 
BRANCH   5   6
ATOM      6  N   GLU A  1        5.157   4.558   2.474  0.00  0.00    +0.386 N 
ATOM      7  H1  GLU A  1        6.147   4.826   2.453  0.00  0.00    -0.089 HD
ATOM      8  H2  GLU A  1        5.025   3.823   3.167  0.00  0.00    -0.089 HD
ATOM      9  H3  GLU A  1        4.598   5.370   2.731  0.00  0.00    -0.089 HD
ENDBRANCH   5   6
BRANCH   5  10
ATOM     10  CB  GLU A  1        5.655   2.895   0.753  0.00  0.00    +0.004 C 
BRANCH  10  11
ATOM     11  CG  GLU A  1        7.101   3.377   0.620  0.00  0.00    +0.119 C 
BRANCH  11  12
ATOM     12  CD  GLU A  1        7.984   2.217   0.237  0.00  0.00    +0.305 C 
ATOM     13  OE1 GLU A  1        7.506   1.118   0.087  0.00  0.00    -0.251 OA
BRANCH  12  14
ATOM     14  OE2 GLU A  1        9.301   2.406   0.064  0.00  0.00    -0.481 OA
ATOM     15  HE2 GLU A  1        9.672   3.258   0.181  0.00  0.00    +0.295 HD
ENDBRANCH  12  14
ENDBRANCH  11  12
ENDBRANCH  10  11
ENDBRANCH   5  10
ENDBRANCH   1   5
BRANCH   2  16
ATOM     16  CA  GLU A  2        1.235   3.094   0.007  0.00  0.00    +0.182 C 
BRANCH  16  17
ATOM     17  C   GLU A  2        1.177   1.588  -0.001  0.00  0.00    +0.325 C 
ATOM     18  O   GLU A  2        2.199   0.944  -0.014  0.00  0.00    -0.249 OA
BRANCH  17  19
ATOM     19  OXT GLU A  2       -0.011   0.963   0.007  0.00  0.00    -0.479 OA
ATOM     20  HXT GLU A  2       -0.804   1.462   0.018  0.00  0.00    +0.295 HD
ENDBRANCH  17  19
ENDBRANCH  16  17
BRANCH  16  21
ATOM     21  CB  GLU A  2        0.522   3.639  -1.233  0.00  0.00    +0.045 C 
BRANCH  21  22
ATOM     22  CG  GLU A  2        0.472   5.166  -1.163  0.00  0.00    +0.123 C 
BRANCH  22  23
ATOM     23  CD  GLU A  2       -0.230   5.702  -2.384  0.00  0.00    +0.305 C 
ATOM     24  OE1 GLU A  2       -0.647   4.941  -3.224  0.00  0.00    -0.251 OA
BRANCH  23  25
ATOM     25  OE2 GLU A  2       -0.391   7.026  -2.538  0.00  0.00    -0.481 OA
ATOM     26  HE2 GLU A  2       -0.068   7.616  -1.887  0.00  0.00    +0.295 HD
ENDBRANCH  23  25
ENDBRANCH  22  23
ENDBRANCH  21  22
ENDBRANCH  16  21
ENDBRANCH   2  16
TORSDOF 13
