REMARK  Name = ZINC01587127
REMARK                            x       y       z     vdW  Elec       q    Type
REMARK                         _______ _______ _______ _____ _____    ______ ____
ROOT
ATOM      1  C   LIG    1       -3.342   3.333   4.077  0.00  0.00    +0.188 C 
ATOM      2  C   LIG    1       -2.393   2.708   3.086  0.00  0.00    +0.008 A 
ATOM      3  C   LIG    1       -2.647   2.872   1.718  0.00  0.00    +0.035 A 
ATOM      4  C   LIG    1       -1.807   2.305   0.784  0.00  0.00    +0.071 A 
ATOM      5  N   LIG    1       -0.728   1.573   1.195  0.00  0.00    -0.302 N 
ATOM      6  C   LIG    1       -0.013   1.086   0.008  0.00  0.00    +0.162 C 
ATOM      7  C   LIG    1       -0.769   1.599  -1.190  0.00  0.00    +0.000 A 
ATOM      8  C   LIG    1       -0.578   1.466  -2.529  0.00  0.00    +0.017 A 
ATOM      9  C   LIG    1       -1.497   2.090  -3.398  0.00  0.00    +0.002 A 
ATOM     10  C   LIG    1       -1.361   1.994  -4.790  0.00  0.00    +0.032 A 
ATOM     11  C   LIG    1       -2.281   2.617  -5.606  0.00  0.00    +0.025 A 
ATOM     12  C   LIG    1       -3.346   3.341  -5.056  0.00  0.00    +0.025 A 
ATOM     13  C   LIG    1       -3.498   3.449  -3.710  0.00  0.00    +0.030 A 
ATOM     14  C   LIG    1       -2.577   2.826  -2.846  0.00  0.00    +0.072 A 
ATOM     15  N   LIG    1       -2.713   2.921  -1.523  0.00  0.00    -0.245 NA
ATOM     16  C   LIG    1       -0.478   1.403   2.506  0.00  0.00    +0.259 A 
ATOM     17  O   LIG    1        0.483   0.736   2.855  0.00  0.00    -0.267 OA
ATOM     18  C   LIG    1       -1.858   2.339  -0.697  0.00  0.00    +0.093 A 
ATOM     19  C   LIG    1       -1.312   1.986   3.483  0.00  0.00    +0.061 A 
ATOM     20  C   LIG    1       -0.963   1.786   4.934  0.00  0.00    +0.273 C 
ATOM     21  O   LIG    1       -2.093   2.116   5.783  0.00  0.00    -0.457 OA
ATOM     22  C   LIG    1       -2.730   3.265   5.457  0.00  0.00    +0.344 C 
ATOM     23  O   LIG    1       -2.806   4.189   6.231  0.00  0.00    -0.247 OA
ENDROOT
BRANCH  11  24
ATOM     24  N   LIG    1       -2.150   2.525  -6.992  0.00  0.00    -0.358 N 
ATOM     25  H   LIG    1       -2.795   2.961  -7.571  0.00  0.00    +0.142 HD
ATOM     26  H   LIG    1       -1.414   2.024  -7.378  0.00  0.00    +0.142 HD
ENDBRANCH  11  24
BRANCH   1  28
ATOM     27  C   LIG    1       -5.631   3.208   5.072  0.00  0.00    +0.007 C 
ATOM     28  C   LIG    1       -4.669   2.572   4.066  0.00  0.00    +0.048 C 
ENDBRANCH   1  28
BRANCH   1  29
ATOM     29  O   LIG    1       -3.571   4.699   3.724  0.00  0.00    -0.373 OA
ATOM     30  H   LIG    1       -4.174   5.164   4.320  0.00  0.00    +0.211 HD
ENDBRANCH   1  29
TORSDOF 3
