REMARK  Name = ZINC01482927
REMARK                            x       y       z     vdW  Elec       q    Type
REMARK                         _______ _______ _______ _____ _____    ______ ____
ROOT
ATOM      1  C   LIG    1       -4.908   0.880  -0.916  0.00  0.00    +0.082 A 
ATOM      2  C   LIG    1       -3.925   1.818  -1.030  0.00  0.00    +0.063 A 
ATOM      3  C   LIG    1       -2.730   1.250  -0.549  0.00  0.00    +0.148 A 
ATOM      4  N   LIG    1       -2.984   0.014  -0.165  0.00  0.00    -0.161 NA
ATOM      5  N   LIG    1       -4.344  -0.245  -0.378  0.00  0.00    -0.230 N 
ENDROOT
BRANCH   5   6
ATOM      6  C   LIG    1       -5.006  -1.440  -0.097  0.00  0.00    +0.077 A 
ATOM      7  C   LIG    1       -6.201  -1.447   0.601  0.00  0.00    +0.048 A 
ATOM      8  C   LIG    1       -6.837  -2.654   0.865  0.00  0.00    +0.113 A 
ATOM      9  N   LIG    1       -6.336  -3.801   0.471  0.00  0.00    -0.255 NA
ATOM     10  C   LIG    1       -5.186  -3.868  -0.206  0.00  0.00    +0.074 A 
ATOM     11  C   LIG    1       -4.662  -5.105  -0.622  0.00  0.00    +0.048 A 
ATOM     12  C   LIG    1       -3.487  -5.144  -1.311  0.00  0.00    +0.043 A 
ATOM     13 CL   LIG    1       -2.847  -6.675  -1.821  0.00  0.00    -0.083 Cl
ATOM     14  C   LIG    1       -2.792  -3.974  -1.614  0.00  0.00    +0.021 A 
ATOM     15  C   LIG    1       -3.270  -2.759  -1.227  0.00  0.00    +0.013 A 
ATOM     16  C   LIG    1       -4.479  -2.682  -0.521  0.00  0.00    +0.026 A 
ENDBRANCH   5   6
BRANCH   1  22
ATOM     17  C   LIG    1       -6.924   0.143  -2.187  0.00  0.00    +0.133 A 
ATOM     18  C   LIG    1       -8.254   0.305  -2.540  0.00  0.00    +0.046 A 
ATOM     19  C   LIG    1       -8.986   1.362  -2.030  0.00  0.00    +0.007 A 
ATOM     20  C   LIG    1       -8.400   2.263  -1.161  0.00  0.00    +0.046 A 
ATOM     21  C   LIG    1       -7.072   2.114  -0.792  0.00  0.00    +0.133 A 
ATOM     22  C   LIG    1       -6.325   1.048  -1.303  0.00  0.00    +0.084 A 
BRANCH  17  24
ATOM     23  C   LIG    1       -6.849  -1.711  -3.672  0.00  0.00    +0.277 C 
ATOM     24  O   LIG    1       -6.206  -0.892  -2.693  0.00  0.00    -0.494 OA
ENDBRANCH  17  24
BRANCH  21  25
ATOM     25  O   LIG    1       -6.499   3.001   0.062  0.00  0.00    -0.494 OA
ATOM     26  C   LIG    1       -7.323   4.065   0.543  0.00  0.00    +0.277 C 
ENDBRANCH  21  25
ENDBRANCH   1  22
BRANCH   3  27
ATOM     27  C   LIG    1       -1.415   1.921  -0.491  0.00  0.00    +0.265 C 
ATOM     28  N   LIG    1       -0.344   1.263  -0.006  0.00  0.00    -0.294 N 
ATOM     29  H   LIG    1       -0.435   0.349   0.305  0.00  0.00    +0.150 HD
ATOM     30  O   LIG    1       -1.300   3.067  -0.880  0.00  0.00    -0.268 OA
BRANCH  28  31
ATOM     31  C   LIG    1        0.962   1.927   0.046  0.00  0.00    +0.137 C 
ATOM     32  C   LIG    1        1.382   2.338  -1.366  0.00  0.00    +0.024 C 
ATOM     33  C   LIG    1        2.745   3.031  -1.312  0.00  0.00    +0.009 C 
ATOM     34  C   LIG    1        3.783   2.069  -0.730  0.00  0.00    -0.010 C 
ATOM     35  C   LIG    1        3.878   0.825  -1.616  0.00  0.00    +0.007 C 
ATOM     36  C   LIG    1        2.515   0.132  -1.671  0.00  0.00    -0.010 C 
ATOM     37  C   LIG    1        2.095  -0.279  -0.258  0.00  0.00    +0.009 C 
ATOM     38  C   LIG    1        3.363   1.658   0.682  0.00  0.00    +0.009 C 
ATOM     39  C   LIG    1        1.477   1.094  -2.252  0.00  0.00    +0.009 C 
ATOM     40  C   LIG    1        2.000   0.965   0.628  0.00  0.00    +0.024 C 
BRANCH  31  41
ATOM     41  C   LIG    1        0.868   3.152   0.919  0.00  0.00    +0.329 C 
ATOM     42  O   LIG    1        1.431   4.170   0.593  0.00  0.00    -0.249 OA
BRANCH  41  43
ATOM     43  O   LIG    1        0.158   3.112   2.057  0.00  0.00    -0.479 OA
ATOM     44  H   LIG    1       -0.279   2.323   2.309  0.00  0.00    +0.295 HD
ENDBRANCH  41  43
ENDBRANCH  31  41
ENDBRANCH  28  31
ENDBRANCH   3  27
TORSDOF 8
