REMARK  Name = ZINC01492232
REMARK                            x       y       z     vdW  Elec       q    Type
REMARK                         _______ _______ _______ _____ _____    ______ ____
ROOT
ATOM      1  C   UNK    1       -0.554   3.383  -2.763  0.00  0.00    -0.048 C 
ATOM      2  N   UNK    1       -0.646   3.049  -1.335  0.00  0.00    +0.386 N 
ATOM      3  H   UNK    1        0.195   3.375  -0.844  0.00  0.00    -0.085 HD
ATOM      4  H   UNK    1       -1.476   3.492  -0.923  0.00  0.00    -0.085 HD
ATOM      5  C   UNK    1       -0.753   1.593  -1.232  0.00  0.00    -0.014 C 
ATOM      6  C   UNK    1       -0.100   1.019  -2.503  0.00  0.00    +0.129 C 
ATOM      7  C   UNK    1        0.350   2.253  -3.318  0.00  0.00    +0.125 C 
ENDROOT
BRANCH   6   8
ATOM      8  O   UNK    1       -1.051   0.254  -3.246  0.00  0.00    -0.391 OA
ATOM      9  H   UNK    1       -0.696  -0.132  -4.059  0.00  0.00    +0.210 HD
ENDBRANCH   6   8
BRANCH   7  10
ATOM     10  O   UNK    1        0.111   2.053  -4.713  0.00  0.00    -0.391 OA
ATOM     11  H   UNK    1        0.304   2.827  -5.260  0.00  0.00    +0.210 HD
ENDBRANCH   7  10
BRANCH   5  12
ATOM     12  C   UNK    1       -0.013   1.086   0.008  0.00  0.00    +0.143 C 
BRANCH  12  13
ATOM     13  O   UNK    1       -0.682   1.547   1.184  0.00  0.00    -0.397 OA
ATOM     14  H   UNK    1       -0.266   1.262   2.009  0.00  0.00    +0.209 HD
ENDBRANCH  12  13
ENDBRANCH   5  12
TORSDOF 4
