REMARK  Name = ZINC01599730
REMARK                            x       y       z     vdW  Elec       q    Type
REMARK                         _______ _______ _______ _____ _____    ______ ____
ROOT
ATOM      1  C   LIG    1       -0.016   1.360   0.009  0.00  0.00    +0.007 A 
ATOM      2  C   LIG    1        1.200   2.052   0.002  0.00  0.00    +0.022 A 
ATOM      3  C   LIG    1        2.378   1.377  -0.044  0.00  0.00    +0.023 A 
ATOM      4  N   LIG    1        2.394   0.027  -0.138  0.00  0.00    -0.312 N 
ATOM      5  C   LIG    1        3.609  -0.743  -0.407  0.00  0.00    +0.126 C 
ATOM      6  C   LIG    1        4.871   0.042  -0.091  0.00  0.00    -0.008 C 
ATOM      7  C   LIG    1        4.767   1.440  -0.710  0.00  0.00    +0.011 C 
ATOM      8  C   LIG    1        5.111   0.146   1.407  0.00  0.00    -0.077 C 
ATOM      9  N   LIG    1        4.074   0.923   2.068  0.00  0.00    +0.380 N 
ATOM     10  H   LIG    1        3.178   0.484   1.920  0.00  0.00    -0.086 HD
ATOM     11  H   LIG    1        4.264   0.968   3.058  0.00  0.00    -0.086 HD
ATOM     12  C   LIG    1        4.050   2.284   1.513  0.00  0.00    -0.073 C 
ATOM     13  C   LIG    1        1.235  -0.670  -0.035  0.00  0.00    +0.251 A 
ATOM     14  O   LIG    1        1.266  -1.889   0.028  0.00  0.00    -0.268 OA
ATOM     15  C   LIG    1        3.652   2.188   0.031  0.00  0.00    +0.019 C 
ATOM     16  C   LIG    1        0.002  -0.004   0.002  0.00  0.00    +0.070 A 
ENDROOT
TORSDOF 0
