REMARK  Name = ZINC01492564
REMARK                            x       y       z     vdW  Elec       q    Type
REMARK                         _______ _______ _______ _____ _____    ______ ____
ROOT
ATOM      1  C   LIG    1       -0.017   1.375   0.010  0.00  0.00    +0.039 A 
ATOM      2  C   LIG    1        0.002  -0.004   0.002  0.00  0.00    +0.016 A 
ATOM      3  C   LIG    1        1.222  -0.679  -0.013  0.00  0.00    +0.042 A 
ATOM      4  C   LIG    1        2.417   0.055  -0.022  0.00  0.00    -0.008 A 
ATOM      5  C   LIG    1        3.705  -0.719  -0.039  0.00  0.00    +0.157 C 
ATOM      6  C   LIG    1        3.639  -2.224  -0.041  0.00  0.00    +0.242 C 
ATOM      7  N   LIG    1        2.435  -2.829  -0.033  0.00  0.00    -0.233 N 
ATOM      8  O   LIG    1        4.657  -2.882  -0.051  0.00  0.00    -0.274 OA
ATOM      9  C   LIG    1        4.512  -0.278  -1.268  0.00  0.00    +0.126 C 
ATOM     10  C   LIG    1        5.740   0.373  -0.662  0.00  0.00    +0.221 C 
ATOM     11  N   LIG    1        5.654   0.315   0.674  0.00  0.00    -0.255 N 
ATOM     12  H   LIG    1        6.337   0.675   1.260  0.00  0.00    +0.158 HD
ATOM     13  O   LIG    1        6.654   0.866  -1.287  0.00  0.00    -0.275 OA
ATOM     14  C   LIG    1        4.543  -0.281   1.133  0.00  0.00    +0.239 C 
ATOM     15  O   LIG    1        4.261  -0.442   2.300  0.00  0.00    -0.274 OA
ATOM     16  C   LIG    1        2.389   1.427  -0.013  0.00  0.00    +0.044 A 
ATOM     17  C   LIG    1        1.279  -2.151  -0.020  0.00  0.00    +0.253 C 
ATOM     18  O   LIG    1        0.237  -2.775  -0.015  0.00  0.00    -0.270 OA
ATOM     19  C   LIG    1        1.170   2.092   0.002  0.00  0.00    +0.124 A 
ATOM     20  F   LIG    1        1.140   3.443   0.010  0.00  0.00    -0.205 F 
ENDROOT
BRANCH   7  21
ATOM     21  C   LIG    1        2.388  -4.293  -0.037  0.00  0.00    +0.154 C 
BRANCH  21  22
ATOM     22  C   LIG    1        2.384  -4.800   1.382  0.00  0.00    +0.006 A 
ATOM     23  C   LIG    1        3.552  -5.272   1.951  0.00  0.00    +0.009 A 
ATOM     24  C   LIG    1        3.550  -5.731   3.255  0.00  0.00    +0.016 A 
ATOM     25  C   LIG    1        2.377  -5.730   3.988  0.00  0.00    +0.021 A 
ATOM     26 BR   LIG    1        2.375  -6.366   5.769  0.00  0.00    -0.050 Br
ATOM     27  C   LIG    1        1.206  -5.264   3.419  0.00  0.00    +0.054 A 
ATOM     28  C   LIG    1        1.209  -4.798   2.115  0.00  0.00    +0.129 A 
ATOM     29  F   LIG    1        0.066  -4.343   1.557  0.00  0.00    -0.205 F 
ENDBRANCH  21  22
ENDBRANCH   7  21
TORSDOF 2
