REMARK  Name = ZINC01532216
REMARK                            x       y       z     vdW  Elec       q    Type
REMARK                         _______ _______ _______ _____ _____    ______ ____
ROOT
ATOM      1  C   LIG    1        3.762  -1.998   0.705  0.00  0.00    +0.041 A 
ATOM      2  C   LIG    1        2.642  -2.740   1.016  0.00  0.00    +0.024 A 
ATOM      3  C   LIG    1        2.706  -4.128   1.089  0.00  0.00    +0.002 A 
ATOM      4  C   LIG    1        3.872  -4.792   0.856  0.00  0.00    +0.009 A 
ATOM      5  C   LIG    1        5.036  -4.073   0.536  0.00  0.00    -0.014 A 
ATOM      6  C   LIG    1        6.254  -4.731   0.291  0.00  0.00    +0.009 A 
ATOM      7  C   LIG    1        7.359  -4.005  -0.033  0.00  0.00    +0.003 A 
ATOM      8  C   LIG    1        7.307  -2.615  -0.108  0.00  0.00    +0.030 A 
ATOM      9  C   LIG    1        6.146  -1.944   0.129  0.00  0.00    +0.126 A 
ATOM     10  C   LIG    1        4.983  -2.660   0.454  0.00  0.00    +0.031 A 
ENDROOT
BRANCH   9  11
ATOM     11  S   LIG    1        6.103  -0.185   0.027  0.00  0.00    +0.110 S 
ATOM     12  O   LIG    1        7.483   0.266  -0.070  0.00  0.00    -0.142 OA
ATOM     13  O   LIG    1        5.460   0.293   1.241  0.00  0.00    -0.142 OA
BRANCH  11  14
ATOM     14  O   LIG    1        5.337   0.151  -1.163  0.00  0.00    -0.250 OA
ATOM     15  H   LIG    1        4.425  -0.165  -1.060  0.00  0.00    +0.245 HD
ENDBRANCH  11  14
ENDBRANCH   9  11
BRANCH   1  16
ATOM     16  N   LIG    1        3.687  -0.609   0.635  0.00  0.00    -0.314 N 
ATOM     17  H   LIG    1        4.003  -0.146  -0.157  0.00  0.00    +0.152 HD
BRANCH  16  21
ATOM     18  C   LIG    1        2.109   1.556   3.822  0.00  0.00    +0.000 A 
ATOM     19  C   LIG    1        2.396   2.195   2.630  0.00  0.00    +0.002 A 
ATOM     20  C   LIG    1        2.919   1.480   1.570  0.00  0.00    +0.023 A 
ATOM     21  C   LIG    1        3.158   0.118   1.704  0.00  0.00    +0.031 A 
ATOM     22  C   LIG    1        2.869  -0.520   2.904  0.00  0.00    +0.023 A 
ATOM     23  C   LIG    1        2.346   0.201   3.959  0.00  0.00    +0.002 A 
ENDBRANCH  16  21
ENDBRANCH   1  16
TORSDOF 4
