REMARK  Name = ZINC01492320
REMARK                            x       y       z     vdW  Elec       q    Type
REMARK                         _______ _______ _______ _____ _____    ______ ____
ROOT
ATOM      1  C   LIG    1       -2.806   3.445  -4.955  0.00  0.00    +0.025 A 
ATOM      2  C   LIG    1       -2.810   4.805  -4.761  0.00  0.00    +0.066 A 
ATOM      3  C   LIG    1       -2.279   5.422  -3.636  0.00  0.00    +0.182 A 
ATOM      4  C   LIG    1       -1.663   4.905  -2.511  0.00  0.00    +0.081 A 
ATOM      5  C   LIG    1       -1.455   3.561  -2.305  0.00  0.00    +0.072 A 
ATOM      6  O   LIG    1       -2.374   6.642  -3.641  0.00  0.00    -0.288 OA
ATOM      7  S   LIG    1       -2.048   2.523  -3.630  0.00  0.00    -0.073 S 
ENDROOT
BRANCH   1  14
ATOM      8  C   LIG    1       -3.956   3.582  -7.161  0.00  0.00    +0.010 A 
ATOM      9  C   LIG    1       -4.481   2.978  -8.284  0.00  0.00    +0.020 A 
ATOM     10  C   LIG    1       -4.442   1.599  -8.414  0.00  0.00    +0.041 A 
ATOM     11 CL   LIG    1       -5.111   0.845  -9.827  0.00  0.00    -0.084 Cl
ATOM     12  C   LIG    1       -3.873   0.820  -7.421  0.00  0.00    +0.020 A 
ATOM     13  C   LIG    1       -3.340   1.414  -6.295  0.00  0.00    +0.010 A 
ATOM     14  C   LIG    1       -3.376   2.802  -6.159  0.00  0.00    -0.011 A 
ENDBRANCH   1  14
BRANCH   5  15
ATOM     15  N   LIG    1       -0.839   3.061  -1.178  0.00  0.00    -0.320 N 
ATOM     16  C   LIG    1       -0.755   1.594  -1.231  0.00  0.00    +0.133 C 
ATOM     17  C   LIG    1       -0.013   1.086   0.008  0.00  0.00    +0.178 C 
ATOM     18  O   LIG    1       -0.684   1.548   1.183  0.00  0.00    -0.377 OA
ATOM     19  C   LIG    1       -0.784   2.972   1.267  0.00  0.00    +0.178 C 
ATOM     20  C   LIG    1       -1.534   3.499   0.041  0.00  0.00    +0.133 C 
ENDBRANCH   5  15
TORSDOF 2
