REMARK  Name = ZINC01465336
REMARK                            x       y       z     vdW  Elec       q    Type
REMARK                         _______ _______ _______ _____ _____    ______ ____
ROOT
ATOM      1  C   LIG    1        3.584  -1.891   0.841  0.00  0.00    +0.103 C 
ATOM      2  C   LIG    1        4.031  -3.022   1.568  0.00  0.00    +0.018 C 
ATOM      3  C   LIG    1        3.211  -3.719   2.460  0.00  0.00    +0.006 C 
ATOM      4  C   LIG    1        3.712  -4.801   3.125  0.00  0.00    +0.000 C 
ATOM      5  C   LIG    1        5.026  -5.218   2.929  0.00  0.00    +0.000 C 
ATOM      6  C   LIG    1        5.851  -4.559   2.067  0.00  0.00    +0.007 C 
ATOM      7  C   LIG    1        5.369  -3.447   1.369  0.00  0.00    +0.027 C 
ATOM      8  C   LIG    1        6.163  -2.713   0.457  0.00  0.00    +0.142 C 
ATOM      9  N   LIG    1        5.632  -1.673  -0.163  0.00  0.00    -0.239 NA
ATOM     10  H   LIG    1        6.185  -1.177  -0.785  0.00  0.00    +0.142 HD
ATOM     11  N   LIG    1        4.422  -1.291   0.013  0.00  0.00    -0.248 NA
ATOM     12  H   LIG    1        4.478  -0.322   0.325  0.00  0.00    +0.141 HD
ENDROOT
BRANCH   8  13
ATOM     13  N   LIG    1        7.478  -3.077   0.218  0.00  0.00    -0.283 NA
ATOM     14  C   LIG    1        7.808  -4.026  -0.854  0.00  0.00    +0.105 C 
ATOM     15  C   LIG    1        8.833  -3.372  -1.789  0.00  0.00    +0.123 C 
ATOM     16  N   LIG    1        9.923  -2.817  -0.975  0.00  0.00    -0.293 N 
ATOM     17  C   LIG    1       11.202  -3.171  -1.207  0.00  0.00    +0.282 C 
ATOM     18  O   LIG    1       12.084  -2.798  -0.456  0.00  0.00    -0.267 OA
ATOM     19  C   LIG    1        9.593  -1.868   0.098  0.00  0.00    +0.123 C 
ATOM     20  C   LIG    1        8.568  -2.517   1.029  0.00  0.00    +0.105 C 
BRANCH  17  21
ATOM     21  C   LIG    1       11.533  -4.008  -2.366  0.00  0.00    +0.189 A 
ATOM     22  C   LIG    1       12.752  -4.559  -2.636  0.00  0.00    +0.054 A 
ATOM     23  C   LIG    1       12.614  -5.276  -3.835  0.00  0.00    +0.042 A 
ATOM     24  C   LIG    1       11.333  -5.132  -4.239  0.00  0.00    +0.196 A 
ATOM     25  O   LIG    1       10.683  -4.371  -3.349  0.00  0.00    -0.458 OA
ENDBRANCH  17  21
ENDBRANCH   8  13
BRANCH   1  29
ATOM     26  C   LIG    1       -0.391  -0.459   1.302  0.00  0.00    +0.000 A 
ATOM     27  C   LIG    1        0.351  -0.804   2.418  0.00  0.00    +0.000 A 
ATOM     28  C   LIG    1        1.642  -1.270   2.275  0.00  0.00    +0.005 A 
ATOM     29  C   LIG    1        2.199  -1.392   1.002  0.00  0.00    -0.029 A 
ATOM     30  C   LIG    1        1.446  -1.042  -0.119  0.00  0.00    +0.005 A 
ATOM     31  C   LIG    1        0.156  -0.578   0.037  0.00  0.00    +0.000 A 
ENDBRANCH   1  29
TORSDOF 3
