REMARK  Name = ZINC01572003
REMARK                            x       y       z     vdW  Elec       q    Type
REMARK                         _______ _______ _______ _____ _____    ______ ____
ROOT
ATOM      1  C   LIG    1       -1.025  -2.004  -0.017  0.00  0.00    +0.166 A 
ATOM      2  C   LIG    1       -1.026  -0.640  -0.114  0.00  0.00    +0.063 A 
ATOM      3  C   LIG    1        0.188   0.058  -0.105  0.00  0.00    +0.047 A 
ATOM      4  C   LIG    1        1.410  -0.650   0.003  0.00  0.00    +0.121 A 
ATOM      5  N   LIG    1        2.559   0.043   0.009  0.00  0.00    -0.231 NA
ATOM      6  C   LIG    1        2.547   1.351  -0.085  0.00  0.00    +0.224 A 
ATOM      7  N   LIG    1        1.430   2.055  -0.188  0.00  0.00    -0.220 NA
ATOM      8  C   LIG    1        1.389  -2.051   0.101  0.00  0.00    +0.191 A 
ATOM      9  C   LIG    1        0.240   1.469  -0.203  0.00  0.00    +0.130 A 
ATOM     10  C   LIG    1        0.177  -2.714   0.090  0.00  0.00    +0.206 A 
ENDROOT
BRANCH   1  12
ATOM     11  C   LIG    1       -3.397  -1.899  -0.137  0.00  0.00    +0.277 C 
ATOM     12  O   LIG    1       -2.205  -2.679  -0.025  0.00  0.00    -0.491 OA
ENDBRANCH   1  12
BRANCH   8  13
ATOM     13  O   LIG    1        2.551  -2.749   0.206  0.00  0.00    -0.489 OA
ATOM     14  C   LIG    1        3.052  -2.981   1.524  0.00  0.00    +0.277 C 
ENDBRANCH   8  13
BRANCH   9  15
ATOM     15  N   LIG    1       -0.915   2.215  -0.317  0.00  0.00    -0.328 N 
ATOM     16  H   LIG    1       -1.778   1.772  -0.331  0.00  0.00    +0.147 HD
BRANCH  15  17
ATOM     17  C   LIG    1       -0.838   3.674  -0.417  0.00  0.00    +0.103 C 
BRANCH  17  18
ATOM     18  C   LIG    1       -2.250   4.253  -0.533  0.00  0.00    +0.019 C 
BRANCH  18  19
ATOM     19  C   LIG    1       -2.170   5.777  -0.637  0.00  0.00    +0.004 C 
BRANCH  19  20
ATOM     20  C   LIG    1       -3.581   6.355  -0.752  0.00  0.00    +0.028 C 
BRANCH  20  21
ATOM     21  C   LIG    1       -3.501   7.880  -0.857  0.00  0.00    +0.156 C 
BRANCH  21  22
ATOM     22  O   LIG    1       -4.819   8.420  -0.965  0.00  0.00    -0.395 OA
ATOM     23  H   LIG    1       -4.845   9.384  -1.035  0.00  0.00    +0.209 HD
ENDBRANCH  21  22
ENDBRANCH  20  21
ENDBRANCH  19  20
ENDBRANCH  18  19
ENDBRANCH  17  18
ENDBRANCH  15  17
ENDBRANCH   9  15
BRANCH  10  24
ATOM     24  O   LIG    1        0.151  -4.070   0.185  0.00  0.00    -0.488 OA
ATOM     25  C   LIG    1        0.202  -4.807  -1.038  0.00  0.00    +0.277 C 
ENDBRANCH  10  24
TORSDOF 10
