REMARK  Name = ZINC01542002
REMARK                            x       y       z     vdW  Elec       q    Type
REMARK                         _______ _______ _______ _____ _____    ______ ____
ROOT
ATOM      1  C   LIG    1       -0.718   1.572   1.248  0.00  0.00    -0.047 A 
ATOM      2  C   LIG    1       -0.360   2.779   1.819  0.00  0.00    +0.004 A 
ATOM      3  C   LIG    1       -1.010   3.227   2.953  0.00  0.00    +0.004 A 
ATOM      4  C   LIG    1       -2.012   2.463   3.523  0.00  0.00    -0.047 A 
ATOM      5  C   LIG    1       -2.366   1.254   2.955  0.00  0.00    +0.004 A 
ATOM      6  C   LIG    1       -1.719   0.808   1.818  0.00  0.00    +0.004 A 
ENDROOT
BRANCH   1   7
ATOM      7  C   LIG    1       -0.013   1.086   0.008  0.00  0.00    +0.035 C 
BRANCH   7   8
ATOM      8  C   LIG    1       -0.753   1.593  -1.232  0.00  0.00    +0.005 C 
BRANCH   8   9
ATOM      9  C   LIG    1       -0.037   1.099  -2.490  0.00  0.00    +0.000 C 
BRANCH   9  10
ATOM     10  C   LIG    1       -0.777   1.606  -3.730  0.00  0.00    +0.000 C 
BRANCH  10  11
ATOM     11  C   LIG    1       -0.060   1.113  -4.989  0.00  0.00    -0.000 C 
BRANCH  11  12
ATOM     12  C   LIG    1       -0.800   1.619  -6.228  0.00  0.00    -0.000 C 
BRANCH  12  14
ATOM     13  C   LIG    1       -0.824   1.633  -8.726  0.00  0.00    +0.004 C 
ATOM     14  C   LIG    1       -0.084   1.126  -7.487  0.00  0.00    -0.003 C 
ENDBRANCH  12  14
ENDBRANCH  11  12
ENDBRANCH  10  11
ENDBRANCH   9  10
ENDBRANCH   8   9
ENDBRANCH   7   8
ENDBRANCH   1   7
BRANCH   4  15
ATOM     15  C   LIG    1       -2.718   2.950   4.762  0.00  0.00    +0.034 C 
BRANCH  15  16
ATOM     16  C   LIG    1       -1.979   2.442   6.002  0.00  0.00    -0.004 C 
BRANCH  16  17
ATOM     17  C   LIG    1       -2.696   2.936   7.260  0.00  0.00    -0.024 C 
BRANCH  17  18
ATOM     18  N   LIG    1       -4.083   2.438   7.248  0.00  0.00    +0.385 N 
ATOM     19  H   LIG    1       -4.550   2.762   6.393  0.00  0.00    -0.089 HD
ATOM     20  H   LIG    1       -4.589   2.793   8.057  0.00  0.00    -0.089 HD
ATOM     21  H   LIG    1       -4.088   1.420   7.264  0.00  0.00    -0.089 HD
ENDBRANCH  17  18
BRANCH  17  22
ATOM     22  C   LIG    1       -2.716   4.466   7.269  0.00  0.00    +0.145 C 
BRANCH  22  23
ATOM     23  O   LIG    1       -1.375   4.960   7.260  0.00  0.00    -0.396 OA
ATOM     24  H   LIG    1       -1.311   5.925   7.264  0.00  0.00    +0.209 HD
ENDBRANCH  22  23
ENDBRANCH  17  22
BRANCH  17  25
ATOM     25  C   LIG    1       -1.958   2.429   8.501  0.00  0.00    +0.145 C 
BRANCH  25  26
ATOM     26  O   LIG    1       -2.690   2.791   9.673  0.00  0.00    -0.396 OA
ATOM     27  H   LIG    1       -2.279   2.501  10.499  0.00  0.00    +0.209 HD
ENDBRANCH  25  26
ENDBRANCH  17  25
ENDBRANCH  16  17
ENDBRANCH  15  16
ENDBRANCH   4  15
TORSDOF 15
