REMARK  Name = ZINC01596410
REMARK                            x       y       z     vdW  Elec       q    Type
REMARK                         _______ _______ _______ _____ _____    ______ ____
ROOT
ATOM      1  C   LIG    1        3.698  -0.688  -0.038  0.00  0.00    +0.079 A 
ATOM      2  C   LIG    1        3.728  -2.054  -0.051  0.00  0.00    +0.076 A 
ATOM      3  S   LIG    1        5.491  -2.349  -0.068  0.00  0.00    -0.069 S 
ATOM      4  C   LIG    1        6.007  -0.638  -0.057  0.00  0.00    +0.132 A 
ATOM      5  N   LIG    1        4.844  -0.011  -0.047  0.00  0.00    -0.233 NA
ENDROOT
BRANCH   1   9
ATOM      6  C   LIG    1       -0.017   1.379   0.010  0.00  0.00    +0.000 A 
ATOM      7  C   LIG    1        1.169   2.092   0.002  0.00  0.00    +0.001 A 
ATOM      8  C   LIG    1        2.377   1.427  -0.013  0.00  0.00    +0.010 A 
ATOM      9  C   LIG    1        2.402   0.033  -0.021  0.00  0.00    +0.001 A 
ATOM     10  C   LIG    1        1.205  -0.680  -0.013  0.00  0.00    +0.010 A 
ATOM     11  C   LIG    1        0.002  -0.004   0.002  0.00  0.00    +0.001 A 
ENDBRANCH   1   9
BRANCH   4  12
ATOM     12  S   LIG    1        7.636   0.035  -0.065  0.00  0.00    -0.116 S 
ATOM     13  H   LIG    1        8.544  -0.977  -0.074  0.00  0.00    +0.109 HD
ENDBRANCH   4  12
TORSDOF 2
