REMARK  Name = ZINC01532369
REMARK                            x       y       z     vdW  Elec       q    Type
REMARK                         _______ _______ _______ _____ _____    ______ ____
ROOT
ATOM      1  C   LIG    1        0.111   6.154  -2.949  0.00  0.00    +0.129 C 
ATOM      2  N   LIG    1        0.742   5.538  -1.773  0.00  0.00    -0.326 N 
ATOM      3  C   LIG    1       -0.205   5.235  -0.802  0.00  0.00    +0.039 A 
ATOM      4  C   LIG    1       -1.446   5.852  -0.794  0.00  0.00    +0.024 A 
ATOM      5  C   LIG    1       -2.378   5.511   0.168  0.00  0.00    +0.002 A 
ATOM      6  C   LIG    1       -2.080   4.555   1.125  0.00  0.00    +0.001 A 
ATOM      7  C   LIG    1       -0.846   3.940   1.138  0.00  0.00    +0.012 A 
ATOM      8  C   LIG    1        0.106   4.282   0.174  0.00  0.00    +0.022 A 
ATOM      9  C   LIG    1        1.446   3.660   0.182  0.00  0.00    +0.077 C 
ATOM     10  N   LIG    1        2.497   4.434   0.099  0.00  0.00    -0.281 NA
ATOM     11  C   LIG    1        2.315   5.886   0.096  0.00  0.00    +0.166 C 
ATOM     12  C   LIG    1        1.820   6.380  -1.256  0.00  0.00    +0.111 C 
ENDROOT
BRANCH   9  13
ATOM     13  C   LIG    1        1.595   2.191   0.277  0.00  0.00    +0.036 A 
ATOM     14  C   LIG    1        0.467   1.375   0.365  0.00  0.00    +0.013 A 
ATOM     15  C   LIG    1        0.612   0.007   0.453  0.00  0.00    +0.001 A 
ATOM     16  C   LIG    1        1.875  -0.560   0.453  0.00  0.00    +0.003 A 
ATOM     17  C   LIG    1        2.999   0.239   0.366  0.00  0.00    +0.039 A 
ATOM     18  C   LIG    1        2.868   1.613   0.278  0.00  0.00    +0.133 A 
ATOM     19  F   LIG    1        3.966   2.395   0.194  0.00  0.00    -0.205 F 
ENDBRANCH   9  13
BRANCH  12  20
ATOM     20  C   LIG    1        2.984   6.366  -2.249  0.00  0.00    +0.128 C 
BRANCH  20  21
ATOM     21  N   LIG    1        3.993   7.344  -1.834  0.00  0.00    -0.309 N 
ATOM     22  H   LIG    1        3.886   7.826  -0.999  0.00  0.00    +0.149 HD
ATOM     23  C   LIG    1        5.069   7.574  -2.612  0.00  0.00    +0.245 C 
ATOM     24  O   LIG    1        5.202   6.970  -3.659  0.00  0.00    -0.270 OA
BRANCH  23  25
ATOM     25  C   LIG    1        6.082   8.556  -2.195  0.00  0.00    +0.044 A 
ATOM     26  C   LIG    1        7.245   8.827  -3.002  0.00  0.00    +0.020 A 
ATOM     27  C   LIG    1        8.116   9.744  -2.536  0.00  0.00    +0.046 A 
ATOM     28  S   LIG    1        7.377  10.255  -0.998  0.00  0.00    -0.104 S 
ATOM     29  C   LIG    1        5.958   9.263  -1.017  0.00  0.00    +0.058 A 
ENDBRANCH  23  25
ENDBRANCH  20  21
ENDBRANCH  12  20
TORSDOF 4
