REMARK  Name = ZINC01645258
REMARK                            x       y       z     vdW  Elec       q    Type
REMARK                         _______ _______ _______ _____ _____    ______ ____
ROOT
ATOM      1  C   LIG    1       -0.634  -2.308  -0.004  0.00  0.00    +0.001 A 
ATOM      2  C   LIG    1        0.704  -2.678  -0.019  0.00  0.00    +0.002 A 
ATOM      3  C   LIG    1        1.697  -1.724  -0.023  0.00  0.00    +0.026 A 
ATOM      4  C   LIG    1        1.359  -0.374  -0.013  0.00  0.00    +0.047 A 
ATOM      5  C   LIG    1        0.002  -0.004   0.002  0.00  0.00    +0.003 A 
ATOM      6  C   LIG    1       -0.018   1.461   0.010  0.00  0.00    -0.021 A 
ATOM      7  C   LIG    1        1.260   1.871   0.000  0.00  0.00    +0.087 A 
ATOM      8  N   LIG    1        2.097   0.788  -0.014  0.00  0.00    -0.360 N 
ATOM      9  H   LIG    1        3.066   0.833  -0.023  0.00  0.00    +0.165 HD
ATOM     10  C   LIG    1       -0.989  -0.988   0.007  0.00  0.00    +0.010 A 
ENDROOT
BRANCH   6  11
ATOM     11  C   LIG    1       -1.241   2.341   0.021  0.00  0.00    +0.056 C 
BRANCH  11  12
ATOM     12  C   LIG    1       -1.722   2.528   1.461  0.00  0.00    +0.109 C 
BRANCH  12  13
ATOM     13  N   LIG    1       -2.911   3.384   1.472  0.00  0.00    -0.315 N 
ATOM     14  H   LIG    1       -3.266   3.731   0.639  0.00  0.00    +0.149 HD
ATOM     15  C   LIG    1       -3.511   3.688   2.639  0.00  0.00    +0.216 C 
ATOM     16  O   LIG    1       -3.067   3.254   3.681  0.00  0.00    -0.276 OA
BRANCH  15  17
ATOM     17  C   LIG    1       -4.735   4.568   2.650  0.00  0.00    +0.075 C 
ATOM     18  C   LIG    1       -4.595   5.965   3.257  0.00  0.00    +0.013 C 
ATOM     19  C   LIG    1       -5.370   4.879   4.007  0.00  0.00    +0.013 C 
ENDBRANCH  15  17
ENDBRANCH  12  13
ENDBRANCH  11  12
ENDBRANCH   6  11
TORSDOF 4
