REMARK  Name = ZINC01481850
REMARK                            x       y       z     vdW  Elec       q    Type
REMARK                         _______ _______ _______ _____ _____    ______ ____
ROOT
ATOM      1  N   LIG    1        0.010   1.100   2.453  0.00  0.00    +0.380 N 
ATOM      2  H   LIG    1        1.000   1.356   2.355  0.00  0.00    -0.082 HD
ATOM      3  C   LIG    1       -0.530   1.734   3.675  0.00  0.00    -0.078 C 
ATOM      4  C   LIG    1        0.326   1.315   4.872  0.00  0.00    -0.012 C 
ATOM      5  C   LIG    1        0.280  -0.208   5.018  0.00  0.00    +0.019 C 
ATOM      6  C   LIG    1        0.772  -0.852   3.719  0.00  0.00    -0.012 C 
ATOM      7  C   LIG    1       -0.097  -0.370   2.555  0.00  0.00    -0.078 C 
ENDROOT
BRANCH   1   8
ATOM      8  C   LIG    1       -0.729   1.579   1.267  0.00  0.00    -0.074 C 
BRANCH   8   9
ATOM      9  C   LIG    1       -0.013   1.086   0.008  0.00  0.00    +0.016 C 
BRANCH   9  13
ATOM     10  C   LIG    1       -2.079   2.501  -3.453  0.00  0.00    +0.000 A 
ATOM     11  C   LIG    1       -1.066   3.259  -2.894  0.00  0.00    +0.000 A 
ATOM     12  C   LIG    1       -0.398   2.801  -1.774  0.00  0.00    +0.003 A 
ATOM     13  C   LIG    1       -0.742   1.585  -1.213  0.00  0.00    -0.049 A 
ATOM     14  C   LIG    1       -1.750   0.825  -1.775  0.00  0.00    +0.003 A 
ATOM     15  C   LIG    1       -2.422   1.285  -2.892  0.00  0.00    +0.000 A 
ENDBRANCH   9  13
ENDBRANCH   8   9
ENDBRANCH   1   8
BRANCH   5  16
ATOM     16  C   LIG    1        1.182  -0.638   6.176  0.00  0.00    +0.147 C 
BRANCH  16  17
ATOM     17  C   LIG    1        1.136  -2.138   6.319  0.00  0.00    -0.019 A 
ATOM     18  C   LIG    1        1.964  -2.931   5.546  0.00  0.00    +0.006 A 
ATOM     19  C   LIG    1        1.925  -4.306   5.681  0.00  0.00    +0.000 A 
ATOM     20  C   LIG    1        1.051  -4.889   6.579  0.00  0.00    +0.000 A 
ATOM     21  C   LIG    1        0.220  -4.096   7.348  0.00  0.00    +0.000 A 
ATOM     22  C   LIG    1        0.262  -2.720   7.217  0.00  0.00    +0.006 A 
ENDBRANCH  16  17
BRANCH  16  23
ATOM     23  O   LIG    1        2.525  -0.226   5.912  0.00  0.00    -0.387 OA
ATOM     24  H   LIG    1        2.900  -0.601   5.104  0.00  0.00    +0.210 HD
ENDBRANCH  16  23
ENDBRANCH   5  16
TORSDOF 6
