REMARK  Name = ZINC01529253
REMARK                            x       y       z     vdW  Elec       q    Type
REMARK                         _______ _______ _______ _____ _____    ______ ____
ROOT
ATOM      1  C   LIG    1       -0.019   1.526   0.010  0.00  0.00    -0.004 C 
ENDROOT
BRANCH   1   2
ATOM      2  C   LIG    1        1.417   2.055  -0.000  0.00  0.00    -0.020 C 
BRANCH   2   3
ATOM      3  C   LIG    1        1.396   3.585   0.008  0.00  0.00    -0.086 C 
BRANCH   3   4
ATOM      4  N   LIG    1        2.774   4.094  -0.002  0.00  0.00    +0.378 N 
ATOM      5  H   LIG    1        2.760   5.103   0.003  0.00  0.00    -0.090 HD
ATOM      6  H   LIG    1        3.246   3.768  -0.833  0.00  0.00    -0.090 HD
ATOM      7  H   LIG    1        3.262   3.759   0.815  0.00  0.00    -0.090 HD
ENDBRANCH   3   4
ENDBRANCH   2   3
ENDBRANCH   1   2
BRANCH   1   8
ATOM      8  C   LIG    1        0.002  -0.004   0.002  0.00  0.00    -0.020 C 
BRANCH   8   9
ATOM      9  C   LIG    1       -1.433  -0.534   0.013  0.00  0.00    -0.086 C 
BRANCH   9  10
ATOM     10  N   LIG    1       -1.413  -2.002   0.005  0.00  0.00    +0.378 N 
ATOM     11  H   LIG    1       -2.360  -2.352   0.012  0.00  0.00    -0.090 HD
ATOM     12  H   LIG    1       -0.925  -2.337   0.822  0.00  0.00    -0.090 HD
ATOM     13  H   LIG    1       -0.941  -2.328  -0.825  0.00  0.00    -0.090 HD
ENDBRANCH   9  10
ENDBRANCH   8   9
ENDBRANCH   1   8
TORSDOF 6
