REMARK  Name = ZINC01587011
REMARK                            x       y       z     vdW  Elec       q    Type
REMARK                         _______ _______ _______ _____ _____    ______ ____
ROOT
ATOM      1  C   LIG    1        3.639  -0.909  -0.038  0.00  0.00    +0.047 C 
ATOM      2  C   LIG    1        2.384  -0.076  -0.021  0.00  0.00    -0.010 A 
ATOM      3  C   LIG    1        2.462   1.310  -0.014  0.00  0.00    +0.073 A 
ATOM      4  C   LIG    1        1.203   2.055   0.002  0.00  0.00    +0.017 A 
ATOM      5  C   LIG    1        1.181   3.453   0.010  0.00  0.00    +0.049 A 
ATOM      6  C   LIG    1       -0.018   4.108   0.025  0.00  0.00    +0.124 A 
ATOM      7  F   LIG    1       -0.040   5.459   0.033  0.00  0.00    -0.205 F 
ATOM      8  C   LIG    1       -1.220   3.399   0.033  0.00  0.00    +0.040 A 
ATOM      9  C   LIG    1       -1.232   2.039   0.031  0.00  0.00    +0.031 A 
ATOM     10  C   LIG    1       -0.016   1.329   0.009  0.00  0.00    +0.073 A 
ATOM     11  N   LIG    1        0.002  -0.004   0.002  0.00  0.00    -0.246 NA
ATOM     12  C   LIG    1        1.124  -0.694  -0.012  0.00  0.00    +0.075 A 
ENDROOT
BRANCH  12  13
ATOM     13  C   LIG    1        1.053  -2.174  -0.020  0.00  0.00    +0.001 A 
ATOM     14  C   LIG    1        1.999  -2.913  -0.731  0.00  0.00    +0.010 A 
ATOM     15  C   LIG    1        1.937  -4.289  -0.734  0.00  0.00    +0.009 A 
ATOM     16  C   LIG    1        0.921  -4.943  -0.035  0.00  0.00    -0.015 A 
ATOM     17  C   LIG    1       -0.027  -4.203   0.671  0.00  0.00    +0.009 A 
ATOM     18  C   LIG    1        0.038  -2.828   0.679  0.00  0.00    +0.010 A 
BRANCH  16  19
ATOM     19  C   LIG    1        0.851  -6.424  -0.043  0.00  0.00    +0.017 A 
ATOM     20  C   LIG    1        0.911  -7.121  -1.248  0.00  0.00    +0.011 A 
ATOM     21  C   LIG    1        0.845  -8.499  -1.250  0.00  0.00    +0.001 A 
ATOM     22  C   LIG    1        0.721  -9.191  -0.058  0.00  0.00    +0.003 A 
ATOM     23  C   LIG    1        0.660  -8.507   1.142  0.00  0.00    +0.039 A 
ATOM     24  C   LIG    1        0.730  -7.126   1.158  0.00  0.00    +0.131 A 
ATOM     25  F   LIG    1        0.677  -6.458   2.331  0.00  0.00    -0.205 F 
ENDBRANCH  16  19
ENDBRANCH  12  13
BRANCH   3  26
ATOM     26  C   LIG    1        3.766   2.006  -0.024  0.00  0.00    +0.338 C 
ATOM     27  O   LIG    1        4.291   2.298  -1.079  0.00  0.00    -0.245 OA
BRANCH  26  28
ATOM     28  O   LIG    1        4.372   2.317   1.139  0.00  0.00    -0.477 OA
ATOM     29  H   LIG    1        3.967   2.092   1.953  0.00  0.00    +0.295 HD
ENDBRANCH  26  28
ENDBRANCH   3  26
TORSDOF 4
