REMARK  Name = ZINC01651128
REMARK                            x       y       z     vdW  Elec       q    Type
REMARK                         _______ _______ _______ _____ _____    ______ ____
ROOT
ATOM      1  C   LIG    1       -1.340   6.368   0.047  0.00  0.00    +0.158 C 
ENDROOT
BRANCH   1   2
ATOM      2  C   LIG    1       -0.027   5.629   0.031  0.00  0.00    +0.164 C 
ATOM      3  O   LIG    1        1.018   6.248   0.025  0.00  0.00    -0.292 OA
BRANCH   2   5
ATOM      4  C   LIG    1        1.171   3.557   0.009  0.00  0.00    +0.011 C 
ATOM      5  C   LIG    1       -0.011   4.221   0.024  0.00  0.00    +0.047 C 
BRANCH   4   7
ATOM      6  C   LIG    1       -0.017   1.373   0.010  0.00  0.00    +0.012 A 
ATOM      7  C   LIG    1        1.187   2.089   0.002  0.00  0.00    -0.021 A 
ATOM      8  C   LIG    1        2.407   1.400  -0.013  0.00  0.00    +0.057 A 
ATOM      9  C   LIG    1        2.415   0.020  -0.021  0.00  0.00    +0.159 A 
ATOM     10  C   LIG    1        1.212  -0.686  -0.013  0.00  0.00    +0.158 A 
ATOM     11  C   LIG    1        0.002  -0.004   0.002  0.00  0.00    +0.050 A 
BRANCH   9  12
ATOM     12  O   LIG    1        3.598  -0.652  -0.036  0.00  0.00    -0.503 OA
ATOM     13  H   LIG    1        3.948  -0.852   0.843  0.00  0.00    +0.292 HD
ENDBRANCH   9  12
BRANCH  10  14
ATOM     14  O   LIG    1        1.224  -2.044  -0.021  0.00  0.00    -0.503 OA
ATOM     15  H   LIG    1        1.236  -2.442   0.860  0.00  0.00    +0.292 HD
ENDBRANCH  10  14
ENDBRANCH   4   7
ENDBRANCH   2   5
ENDBRANCH   1   2
BRANCH   1  16
ATOM     16  C   LIG    1       -1.081   7.852   0.052  0.00  0.00    +0.164 C 
ATOM     17  O   LIG    1        0.059   8.270   0.044  0.00  0.00    -0.292 OA
BRANCH  16  18
ATOM     18  C   LIG    1       -2.162   8.755   0.067  0.00  0.00    +0.047 C 
ATOM     19  C   LIG    1       -1.929  10.091   0.071  0.00  0.00    +0.011 C 
BRANCH  19  20
ATOM     20  C   LIG    1       -3.055  11.032   0.087  0.00  0.00    -0.021 A 
ATOM     21  C   LIG    1       -2.817  12.412   0.086  0.00  0.00    +0.057 A 
ATOM     22  C   LIG    1       -3.880  13.292   0.100  0.00  0.00    +0.159 A 
ATOM     23  C   LIG    1       -5.188  12.806   0.116  0.00  0.00    +0.158 A 
ATOM     24  C   LIG    1       -5.425  11.438   0.117  0.00  0.00    +0.050 A 
ATOM     25  C   LIG    1       -4.371  10.552   0.097  0.00  0.00    +0.012 A 
BRANCH  22  26
ATOM     26  O   LIG    1       -3.653  14.633   0.100  0.00  0.00    -0.503 OA
ATOM     27  H   LIG    1       -3.598  15.022  -0.784  0.00  0.00    +0.292 HD
ENDBRANCH  22  26
BRANCH  23  28
ATOM     28  O   LIG    1       -6.232  13.674   0.130  0.00  0.00    -0.503 OA
ATOM     29  H   LIG    1       -6.546  13.927  -0.749  0.00  0.00    +0.292 HD
ENDBRANCH  23  28
ENDBRANCH  19  20
ENDBRANCH  16  18
ENDBRANCH   1  16
TORSDOF 10
