REMARK  Name = ZINC01656226
REMARK                            x       y       z     vdW  Elec       q    Type
REMARK                         _______ _______ _______ _____ _____    ______ ____
ROOT
ATOM      1  C   LIG    1       -3.012   4.125  -1.390  0.00  0.00    +0.046 C 
ENDROOT
BRANCH   1   2
ATOM      2  N   LIG    1       -4.308   4.825  -1.360  0.00  0.00    +0.388 N 
ATOM      3  H   LIG    1       -4.987   4.258  -0.840  0.00  0.00    -0.089 HD
ATOM      4  H   LIG    1       -4.650   4.966  -2.309  0.00  0.00    -0.089 HD
ATOM      5  H   LIG    1       -4.207   5.728  -0.899  0.00  0.00    -0.089 HD
ENDBRANCH   1   2
BRANCH   1   6
ATOM      6  P   LIG    1       -1.763   5.132  -2.256  0.00  0.00    +0.314 P 
ATOM      7  O   LIG    1       -1.509   6.371  -1.488  0.00  0.00    -0.261 OA
BRANCH   6   8
ATOM      8  O   LIG    1       -2.305   5.512  -3.724  0.00  0.00    -0.325 OA
ATOM      9  H   LIG    1       -3.129   6.017  -3.644  0.00  0.00    +0.220 HD
ENDBRANCH   6   8
BRANCH   6  10
ATOM     10  O   LIG    1       -0.396   4.293  -2.389  0.00  0.00    -0.325 OA
ATOM     11  H   LIG    1       -0.070   4.064  -1.505  0.00  0.00    +0.220 HD
ENDBRANCH   6  10
ENDBRANCH   1   6
BRANCH   1  12
ATOM     12  C   LIG    1       -2.553   3.869   0.047  0.00  0.00    +0.031 C 
BRANCH  12  16
ATOM     13  C   LIG    1        1.175   1.783   0.000  0.00  0.00    +0.000 A 
ATOM     14  C   LIG    1       -0.013   1.076   0.008  0.00  0.00    +0.000 A 
ATOM     15  C   LIG    1       -1.219   1.751   0.017  0.00  0.00    +0.003 A 
ATOM     16  C   LIG    1       -1.238   3.133   0.030  0.00  0.00    -0.048 A 
ATOM     17  C   LIG    1       -0.050   3.840   0.022  0.00  0.00    +0.003 A 
ATOM     18  C   LIG    1        1.156   3.165   0.008  0.00  0.00    +0.000 A 
ENDBRANCH  12  16
ENDBRANCH   1  12
TORSDOF 6
