REMARK  Name = ZINC01489070
REMARK                            x       y       z     vdW  Elec       q    Type
REMARK                         _______ _______ _______ _____ _____    ______ ____
ROOT
ATOM      1  C   LIG    1       -4.689   0.886   0.032  0.00  0.00    +0.207 A 
ATOM      2  N   LIG    1       -4.142  -0.314   0.023  0.00  0.00    -0.125 NA
ATOM      3  N   LIG    1       -2.860  -0.213   0.017  0.00  0.00    -0.127 NA
ATOM      4  C   LIG    1       -2.514   1.061   0.021  0.00  0.00    +0.186 A 
ATOM      5  C   LIG    1       -1.227   1.761   0.017  0.00  0.00    +0.033 A 
ATOM      6  C   LIG    1       -0.013   1.076   0.008  0.00  0.00    +0.012 A 
ATOM      7  C   LIG    1        1.168   1.785   0.001  0.00  0.00    +0.001 A 
ATOM      8  C   LIG    1        1.161   3.174   0.007  0.00  0.00    +0.001 A 
ATOM      9  C   LIG    1       -0.027   3.871   0.021  0.00  0.00    +0.014 A 
ATOM     10  C   LIG    1       -1.236   3.175   0.029  0.00  0.00    +0.049 A 
ATOM     11  C   LIG    1       -2.526   3.870   0.044  0.00  0.00    +0.241 A 
ATOM     12  N   LIG    1       -3.640   3.191   0.037  0.00  0.00    -0.125 NA
ATOM     13  N   LIG    1       -3.668   1.797   0.030  0.00  0.00    -0.187 N 
ENDROOT
BRANCH   1  17
ATOM     14  C   LIG    1       -9.745   0.548   0.060  0.00  0.00    +0.089 C 
ATOM     15  C   LIG    1       -8.316   1.026   0.053  0.00  0.00    +0.135 A 
ATOM     16  C   LIG    1       -7.208   0.252   0.037  0.00  0.00    +0.079 A 
ATOM     17  C   LIG    1       -6.135   1.190   0.042  0.00  0.00    +0.152 A 
ATOM     18  N   LIG    1       -6.692   2.378   0.050  0.00  0.00    -0.075 NA
ATOM     19  O   LIG    1       -7.898   2.300   0.057  0.00  0.00    -0.359 OA
ENDBRANCH   1  17
BRANCH  11  20
ATOM     20  O   LIG    1       -2.562   5.226   0.051  0.00  0.00    -0.469 OA
BRANCH  20  21
ATOM     21  C   LIG    1       -3.852   5.841   0.065  0.00  0.00    +0.289 C 
BRANCH  21  22
ATOM     22  C   LIG    1       -3.695   7.339   0.070  0.00  0.00    +0.120 A 
ATOM     23  C   LIG    1       -2.531   8.031   0.069  0.00  0.00    +0.136 A 
ATOM     24  N   LIG    1       -2.872   9.341   0.072  0.00  0.00    -0.254 N 
ATOM     25  C   LIG    1       -1.938  10.470   0.070  0.00  0.00    +0.174 C 
ATOM     26  N   LIG    1       -4.156   9.424   0.084  0.00  0.00    -0.066 NA
ATOM     27  N   LIG    1       -4.677   8.248   0.084  0.00  0.00    -0.131 NA
ENDBRANCH  21  22
ENDBRANCH  20  21
ENDBRANCH  11  20
TORSDOF 4
