REMARK  Name = ZINC01556993
REMARK                            x       y       z     vdW  Elec       q    Type
REMARK                         _______ _______ _______ _____ _____    ______ ____
ROOT
ATOM      1  C   LIG    1       -0.017   1.391   0.010  0.00  0.00    +0.015 A 
ATOM      2  C   LIG    1        1.170   2.095   0.002  0.00  0.00    +0.029 A 
ATOM      3  C   LIG    1        2.378   1.419  -0.013  0.00  0.00    +0.105 A 
ATOM      4  C   LIG    1        2.403   0.036  -0.022  0.00  0.00    +0.029 A 
ATOM      5  C   LIG    1        1.224  -0.679  -0.014  0.00  0.00    +0.015 A 
ATOM      6  C   LIG    1        0.002  -0.004   0.002  0.00  0.00    +0.038 A 
ENDROOT
BRANCH   6   7
ATOM      7  C   LIG    1       -1.266  -0.764   0.011  0.00  0.00    +0.257 C 
ATOM      8  N   LIG    1       -1.244  -2.111   0.003  0.00  0.00    -0.250 N 
ATOM      9  H   LIG    1       -0.397  -2.583  -0.008  0.00  0.00    +0.169 HD
ATOM     10  O   LIG    1       -2.329  -0.173   0.024  0.00  0.00    -0.269 OA
BRANCH   8  11
ATOM     11  N   LIG    1       -2.416  -2.813   0.011  0.00  0.00    -0.254 NA
ATOM     12  H   LIG    1       -2.243  -3.807   0.004  0.00  0.00    +0.140 HD
ATOM     13  H   LIG    1       -3.005  -2.544  -0.763  0.00  0.00    +0.140 HD
ENDBRANCH   8  11
ENDBRANCH   6   7
BRANCH   3  14
ATOM     14  S   LIG    1        3.889   2.325  -0.024  0.00  0.00    +0.056 S 
ATOM     15  O   LIG    1        3.592   3.604  -0.565  0.00  0.00    -0.153 OA
ATOM     16  O   LIG    1        4.872   1.468  -0.589  0.00  0.00    -0.153 OA
BRANCH  14  17
ATOM     17  N   LIG    1        4.325   2.568   1.555  0.00  0.00    -0.204 NA
ATOM     18  H   LIG    1        5.138   3.053   1.765  0.00  0.00    +0.144 HD
ATOM     19  H   LIG    1        3.767   2.225   2.271  0.00  0.00    +0.144 HD
ENDBRANCH  14  17
ENDBRANCH   3  14
TORSDOF 4
