REMARK  Name = ZINC01627245
REMARK                            x       y       z     vdW  Elec       q    Type
REMARK                         _______ _______ _______ _____ _____    ______ ____
ROOT
ATOM      1  C   LIG    1        0.035   1.432   2.458  0.00  0.00    -0.018 C 
ENDROOT
BRANCH   1   2
ATOM      2  C   LIG    1       -0.682   1.925   3.717  0.00  0.00    -0.002 C 
BRANCH   2   3
ATOM      3  C   LIG    1        0.058   1.418   4.957  0.00  0.00    -0.000 C 
BRANCH   3   5
ATOM      4  C   LIG    1        0.082   1.405   7.455  0.00  0.00    +0.004 C 
ATOM      5  C   LIG    1       -0.658   1.912   6.215  0.00  0.00    -0.003 C 
ENDBRANCH   3   5
ENDBRANCH   2   3
ENDBRANCH   1   2
BRANCH   1   6
ATOM      6  C   LIG    1       -0.705   1.938   1.219  0.00  0.00    -0.076 C 
BRANCH   6   7
ATOM      7  N   LIG    1       -0.018   1.465   0.010  0.00  0.00    +0.374 N 
ATOM      8  C   LIG    1       -0.728   1.951  -1.180  0.00  0.00    -0.093 C 
ATOM      9  C   LIG    1        1.360   1.973  -0.000  0.00  0.00    -0.093 C 
ATOM     10  C   LIG    1        0.002  -0.004   0.002  0.00  0.00    -0.093 C 
ENDBRANCH   6   7
ENDBRANCH   1   6
TORSDOF 5
