REMARK  Name = ZINC01481844
REMARK                            x       y       z     vdW  Elec       q    Type
REMARK                         _______ _______ _______ _____ _____    ______ ____
ROOT
ATOM      1  C   LIG    1        0.006  -0.457  -3.394  0.00  0.00    -0.006 C 
ENDROOT
BRANCH   1   2
ATOM      2  C   LIG    1       -1.195   0.095  -2.624  0.00  0.00    -0.081 C 
BRANCH   2   3
ATOM      3  N   LIG    1       -1.019  -0.165  -1.190  0.00  0.00    +0.383 N 
ATOM      4  H   LIG    1       -0.948  -1.159  -1.034  0.00  0.00    -0.085 HD
ATOM      5  H   LIG    1       -0.177   0.287  -0.867  0.00  0.00    -0.085 HD
BRANCH   3   7
ATOM      6  C   LIG    1       -2.208   1.889  -0.584  0.00  0.00    -0.009 C 
ATOM      7  C   LIG    1       -2.173   0.365  -0.451  0.00  0.00    -0.044 C 
BRANCH   7   8
ATOM      8  C   LIG    1       -2.052  -0.009   1.004  0.00  0.00    -0.062 A 
ATOM      9  C   LIG    1       -0.822   0.045   1.632  0.00  0.00    +0.002 A 
ATOM     10  C   LIG    1       -0.712  -0.297   2.967  0.00  0.00    +0.000 A 
ATOM     11  C   LIG    1       -1.832  -0.694   3.674  0.00  0.00    +0.000 A 
ATOM     12  C   LIG    1       -3.062  -0.747   3.046  0.00  0.00    +0.000 A 
ATOM     13  C   LIG    1       -3.173  -0.400   1.712  0.00  0.00    +0.002 A 
ENDBRANCH   7   8
ENDBRANCH   3   7
ENDBRANCH   2   3
ENDBRANCH   1   2
BRANCH   1  14
ATOM     14  C   LIG    1       -0.177  -0.186  -4.889  0.00  0.00    +0.047 C 
BRANCH  14  15
ATOM     15  C   LIG    1        0.944  -0.836  -5.658  0.00  0.00    -0.040 A 
ATOM     16  C   LIG    1        2.257  -0.601  -5.297  0.00  0.00    +0.004 A 
ATOM     17  C   LIG    1        3.285  -1.197  -6.003  0.00  0.00    +0.000 A 
ATOM     18  C   LIG    1        3.000  -2.029  -7.070  0.00  0.00    +0.000 A 
ATOM     19  C   LIG    1        1.687  -2.265  -7.430  0.00  0.00    +0.000 A 
ATOM     20  C   LIG    1        0.658  -1.672  -6.722  0.00  0.00    +0.004 A 
ENDBRANCH  14  15
BRANCH  14  21
ATOM     21  C   LIG    1       -0.160   1.301  -5.136  0.00  0.00    -0.040 A 
ATOM     22  C   LIG    1       -1.190   1.897  -5.838  0.00  0.00    +0.004 A 
ATOM     23  C   LIG    1       -1.174   3.260  -6.065  0.00  0.00    +0.000 A 
ATOM     24  C   LIG    1       -0.128   4.028  -5.588  0.00  0.00    +0.000 A 
ATOM     25  C   LIG    1        0.902   3.432  -4.885  0.00  0.00    +0.000 A 
ATOM     26  C   LIG    1        0.884   2.069  -4.654  0.00  0.00    +0.004 A 
ENDBRANCH  14  21
ENDBRANCH   1  14
TORSDOF 7
