REMARK  Name = ZINC01481831
REMARK                            x       y       z     vdW  Elec       q    Type
REMARK                         _______ _______ _______ _____ _____    ______ ____
ROOT
ATOM      1  C   LIG    1       -1.647   1.095   4.087  0.00  0.00    +0.081 A 
ATOM      2  C   LIG    1       -2.866   1.496   4.625  0.00  0.00    +0.126 A 
ATOM      3  C   LIG    1       -2.795   2.175   5.815  0.00  0.00    +0.037 A 
ATOM      4  C   LIG    1       -1.579   2.404   6.374  0.00  0.00    +0.048 A 
ATOM      5  S   LIG    1       -0.493   1.698   5.304  0.00  0.00    -0.092 S 
ENDROOT
BRANCH   2   6
ATOM      6  S   LIG    1       -4.401   1.156   3.830  0.00  0.00    +0.076 S 
ATOM      7  O   LIG    1       -5.415   1.731   4.642  0.00  0.00    -0.150 OA
ATOM      8  O   LIG    1       -4.386  -0.224   3.492  0.00  0.00    -0.150 OA
BRANCH   6   9
ATOM      9  N   LIG    1       -4.407   1.993   2.401  0.00  0.00    -0.182 N 
ATOM     10  H   LIG    1       -3.633   2.547   2.151  0.00  0.00    +0.177 HD
BRANCH   9  11
ATOM     11  C   LIG    1       -5.501   1.912   1.557  0.00  0.00    +0.255 A 
ATOM     12  C   LIG    1       -5.636   2.539   0.358  0.00  0.00    +0.126 A 
ATOM     13 CL   LIG    1       -4.466   3.584  -0.384  0.00  0.00    -0.076 Cl
ATOM     14  C   LIG    1       -6.887   2.195  -0.172  0.00  0.00    +0.101 A 
ATOM     15  C   LIG    1       -7.448   2.667  -1.489  0.00  0.00    +0.071 C 
ATOM     16  N   LIG    1       -7.482   1.394   0.670  0.00  0.00    -0.080 NA
ATOM     17  O   LIG    1       -6.618   1.196   1.774  0.00  0.00    -0.336 OA
ENDBRANCH   9  11
ENDBRANCH   6   9
ENDBRANCH   2   6
BRANCH   1  18
ATOM     18  C   LIG    1       -1.391   0.388   2.891  0.00  0.00    +0.176 C 
ATOM     19  O   LIG    1       -2.313   0.052   2.175  0.00  0.00    -0.291 OA
BRANCH  18  20
ATOM     20  C   LIG    1        0.025   0.050   2.503  0.00  0.00    +0.115 C 
BRANCH  20  30
ATOM     21  C   LIG    1       -0.018   1.503   0.010  0.00  0.00    +0.044 C 
ATOM     22  C   LIG    1        0.002  -0.004   0.002  0.00  0.00    -0.043 A 
ATOM     23  C   LIG    1        0.006  -0.687  -1.200  0.00  0.00    +0.053 A 
ATOM     24  C   LIG    1        0.024  -2.072  -1.210  0.00  0.00    +0.166 A 
ATOM     25  C   LIG    1        0.039  -2.774  -0.007  0.00  0.00    +0.167 A 
ATOM     26  O   LIG    1        0.055  -4.111  -0.281  0.00  0.00    -0.453 OA
ATOM     27  C   LIG    1       -0.362  -4.226  -1.655  0.00  0.00    +0.466 C 
ATOM     28  C   LIG    1        0.035  -2.083   1.194  0.00  0.00    +0.054 A 
ATOM     29  O   LIG    1        0.031  -2.970  -2.239  0.00  0.00    -0.453 OA
ATOM     30  C   LIG    1        0.023  -0.700   1.196  0.00  0.00    -0.033 A 
ENDBRANCH  20  30
ENDBRANCH  18  20
ENDBRANCH   1  18
TORSDOF 6
