REMARK  Name = ZINC01599708
REMARK                            x       y       z     vdW  Elec       q    Type
REMARK                         _______ _______ _______ _____ _____    ______ ____
ROOT
ATOM      1  C   LIG    1       -0.013   1.076   0.008  0.00  0.00    +0.001 A 
ATOM      2  C   LIG    1       -1.223   1.747   0.017  0.00  0.00    +0.001 A 
ATOM      3  C   LIG    1       -1.263   3.131   0.031  0.00  0.00    +0.014 A 
ATOM      4  C   LIG    1       -0.078   3.856   0.024  0.00  0.00    +0.048 A 
ATOM      5  C   LIG    1        1.155   3.170   0.008  0.00  0.00    +0.039 A 
ATOM      6  C   LIG    1        2.398   3.967   0.001  0.00  0.00    +0.248 C 
ATOM      7  C   LIG    1        2.272   5.458   0.011  0.00  0.00    +0.291 C 
ATOM      8  N   LIG    1        1.059   6.036   0.026  0.00  0.00    -0.246 N 
ATOM      9  H   LIG    1        1.006   7.004   0.033  0.00  0.00    +0.158 HD
ATOM     10  O   LIG    1        3.269   6.149   0.005  0.00  0.00    -0.266 OA
ATOM     11  O   LIG    1        3.486   3.430  -0.012  0.00  0.00    -0.282 OA
ATOM     12  C   LIG    1       -0.084   5.331   0.033  0.00  0.00    +0.251 C 
ATOM     13  O   LIG    1       -1.146   5.921   0.046  0.00  0.00    -0.270 OA
ATOM     14  C   LIG    1        1.179   1.780   0.000  0.00  0.00    +0.012 A 
ENDROOT
TORSDOF 0
