REMARK  Name = ZINC01530808
REMARK                            x       y       z     vdW  Elec       q    Type
REMARK                         _______ _______ _______ _____ _____    ______ ____
ROOT
ATOM      1  C   LIG    1        2.841  -0.442  -2.476  0.00  0.00    -0.002 C 
ENDROOT
BRANCH   1   2
ATOM      2  C   LIG    1        2.125   0.052  -1.218  0.00  0.00    -0.018 C 
BRANCH   2   3
ATOM      3  C   LIG    1        0.690  -0.478  -1.207  0.00  0.00    -0.076 C 
BRANCH   3   5
ATOM      4  C   LIG    1       -0.018   1.465   0.010  0.00  0.00    -0.093 C 
ATOM      5  N   LIG    1        0.002  -0.004   0.002  0.00  0.00    +0.374 N 
ATOM      6  C   LIG    1       -1.376  -0.512   0.012  0.00  0.00    -0.093 C 
ATOM      7  C   LIG    1        0.713  -0.491   1.192  0.00  0.00    -0.093 C 
ENDBRANCH   3   5
ENDBRANCH   2   3
ENDBRANCH   1   2
BRANCH   1   8
ATOM      8  C   LIG    1        4.277   0.088  -2.487  0.00  0.00    -0.002 C 
BRANCH   8   9
ATOM      9  C   LIG    1        4.993  -0.406  -3.746  0.00  0.00    -0.018 C 
BRANCH   9  10
ATOM     10  C   LIG    1        6.428   0.124  -3.757  0.00  0.00    -0.076 C 
BRANCH  10  11
ATOM     11  N   LIG    1        7.116  -0.350  -4.965  0.00  0.00    +0.374 N 
ATOM     12  C   LIG    1        7.136  -1.819  -4.973  0.00  0.00    -0.093 C 
ATOM     13  C   LIG    1        8.494   0.159  -4.976  0.00  0.00    -0.093 C 
ATOM     14  C   LIG    1        6.405   0.137  -6.155  0.00  0.00    -0.093 C 
ENDBRANCH  10  11
ENDBRANCH   9  10
ENDBRANCH   8   9
ENDBRANCH   1   8
TORSDOF 7
