REMARK  Name = ZINC01547932
REMARK                            x       y       z     vdW  Elec       q    Type
REMARK                         _______ _______ _______ _____ _____    ______ ____
ROOT
ATOM      1  C   LIG    1        2.071   0.032  -1.217  0.00  0.00    -0.119 C 
ATOM      2  C   LIG    1        3.172   0.438  -1.225  0.00  0.00    -0.085 C 
ENDROOT
BRANCH   1   3
ATOM      3  C   LIG    1        0.690  -0.478  -1.207  0.00  0.00    +0.015 C 
BRANCH   3   5
ATOM      4  C   LIG    1       -0.018   1.465   0.010  0.00  0.00    -0.091 C 
ATOM      5  N   LIG    1        0.002  -0.004   0.002  0.00  0.00    +0.382 N 
ATOM      6  C   LIG    1       -1.376  -0.512   0.012  0.00  0.00    -0.091 C 
ATOM      7  C   LIG    1        0.713  -0.491   1.192  0.00  0.00    -0.091 C 
ENDBRANCH   3   5
ENDBRANCH   1   3
BRANCH   2   8
ATOM      8  C   LIG    1        4.553   0.948  -1.236  0.00  0.00    +0.196 C 
BRANCH   8   9
ATOM      9  N   LIG    1        5.239   0.475  -2.441  0.00  0.00    -0.290 N 
ATOM     10  C   LIG    1        5.990  -0.782  -2.527  0.00  0.00    +0.109 C 
ATOM     11  C   LIG    1        6.148  -1.066  -4.037  0.00  0.00    +0.028 C 
ATOM     12  C   LIG    1        6.050   0.356  -4.637  0.00  0.00    +0.097 C 
ATOM     13  C   LIG    1        5.255   1.135  -3.612  0.00  0.00    +0.216 C 
ATOM     14  O   LIG    1        4.714   2.201  -3.817  0.00  0.00    -0.276 OA
ENDBRANCH   8   9
ENDBRANCH   2   8
TORSDOF 4
