REMARK  Name = ZINC01440909
REMARK                            x       y       z     vdW  Elec       q    Type
REMARK                         _______ _______ _______ _____ _____    ______ ____
ROOT
ATOM      1  N   LIG    1        1.069   9.790   1.428  0.00  0.00    -0.297 N 
ATOM      2  C   LIG    1        2.302   8.991   1.437  0.00  0.00    +0.127 C 
ATOM      3  C   LIG    1        2.308   8.054   0.225  0.00  0.00    +0.126 C 
ATOM      4  N   LIG    1        1.061   7.274   0.231  0.00  0.00    -0.309 N 
ATOM      5  C   LIG    1       -0.212   7.999   0.352  0.00  0.00    +0.126 C 
ATOM      6  C   LIG    1       -0.119   8.938   1.565  0.00  0.00    +0.127 C 
ENDROOT
BRANCH   1  14
ATOM      7  N   LIG    1       -1.013  13.360   3.623  0.00  0.00    -0.331 N 
ATOM      8  C   LIG    1       -1.050  14.323   4.557  0.00  0.00    +0.106 A 
ATOM      9  C   LIG    1       -0.013  14.533   5.441  0.00  0.00    +0.122 A 
ATOM     10  C   LIG    1        1.178  13.668   5.358  0.00  0.00    +0.206 A 
ATOM     11  C   LIG    1        1.176  12.627   4.320  0.00  0.00    +0.083 A 
ATOM     12  C   LIG    1        2.248  11.750   4.149  0.00  0.00    +0.129 A 
ATOM     13  N   LIG    1        2.168  10.837   3.196  0.00  0.00    -0.222 NA
ATOM     14  C   LIG    1        1.100  10.758   2.411  0.00  0.00    +0.220 A 
ATOM     15  N   LIG    1        0.060  11.568   2.539  0.00  0.00    -0.196 NA
ATOM     16  O   LIG    1        2.122  13.810   6.115  0.00  0.00    -0.286 OA
ATOM     17  C   LIG    1        0.053  12.512   3.474  0.00  0.00    +0.149 A 
BRANCH   7  19
ATOM     18  C   LIG    1       -3.105  12.141   3.277  0.00  0.00    +0.027 C 
ATOM     19  C   LIG    1       -2.160  13.210   2.724  0.00  0.00    +0.120 C 
ENDBRANCH   7  19
BRANCH   9  20
ATOM     20  C   LIG    1       -0.094  15.599   6.449  0.00  0.00    +0.342 C 
ATOM     21  O   LIG    1        0.827  15.774   7.224  0.00  0.00    -0.245 OA
BRANCH  20  22
ATOM     22  O   LIG    1       -1.189  16.383   6.515  0.00  0.00    -0.477 OA
ATOM     23  H   LIG    1       -1.898  16.248   5.918  0.00  0.00    +0.295 HD
ENDBRANCH  20  22
ENDBRANCH   9  20
ENDBRANCH   1  14
BRANCH   4  24
ATOM     24  C   LIG    1        1.085   5.930   0.123  0.00  0.00    +0.137 C 
ATOM     25  S   LIG    1        2.582   5.098   0.120  0.00  0.00    -0.018 S 
BRANCH  24  26
ATOM     26  N   LIG    1       -0.069   5.242   0.017  0.00  0.00    -0.297 N 
ATOM     27  H   LIG    1       -0.910   5.717  -0.068  0.00  0.00    +0.154 HD
BRANCH  26  28
ATOM     28  C   LIG    1       -0.052   3.843   0.030  0.00  0.00    +0.033 A 
ATOM     29  C   LIG    1        0.783   3.165   0.908  0.00  0.00    +0.023 A 
ATOM     30  C   LIG    1        0.797   1.784   0.918  0.00  0.00    +0.002 A 
ATOM     31  C   LIG    1       -0.020   1.077   0.055  0.00  0.00    +0.012 A 
ATOM     32  C   LIG    1       -0.849   1.749  -0.824  0.00  0.00    +0.057 A 
ATOM     33  C   LIG    1       -0.871   3.130  -0.835  0.00  0.00    +0.035 A 
BRANCH  32  34
ATOM     34  C   LIG    1       -1.733   0.974  -1.767  0.00  0.00    +0.417 C 
ATOM     35  F   LIG    1       -1.407   1.303  -3.087  0.00  0.00    -0.166 F 
ATOM     36  F   LIG    1       -3.072   1.297  -1.522  0.00  0.00    -0.166 F 
ATOM     37  F   LIG    1       -1.539  -0.397  -1.567  0.00  0.00    -0.166 F 
ENDBRANCH  32  34
ENDBRANCH  26  28
ENDBRANCH  24  26
ENDBRANCH   4  24
TORSDOF 8
