REMARK  Name = ZINC01529266
REMARK                            x       y       z     vdW  Elec       q    Type
REMARK                         _______ _______ _______ _____ _____    ______ ____
ROOT
ATOM      1  S   LIG    1        0.764  -1.240  -3.697  0.00  0.00    -0.027 S 
ENDROOT
BRANCH   1   2
ATOM      2  C   LIG    1       -0.013  -0.705  -2.332  0.00  0.00    +0.120 C 
ATOM      3  S   LIG    1       -1.705  -0.442  -2.357  0.00  0.00    -0.027 S 
BRANCH   2   4
ATOM      4  N   LIG    1        0.688  -0.476  -1.203  0.00  0.00    -0.319 N 
BRANCH   4   6
ATOM      5  C   LIG    1       -0.019   1.526   0.010  0.00  0.00    +0.024 C 
ATOM      6  C   LIG    1        0.002  -0.004   0.002  0.00  0.00    +0.103 C 
ENDBRANCH   4   6
BRANCH   4   7
ATOM      7  C   LIG    1        2.135  -0.701  -1.182  0.00  0.00    +0.103 C 
ATOM      8  C   LIG    1        2.421  -2.145  -0.763  0.00  0.00    +0.024 C 
ENDBRANCH   4   7
ENDBRANCH   2   4
ENDBRANCH   1   2
BRANCH   1   9
ATOM      9  S   LIG    1       -0.736  -1.418  -5.084  0.00  0.00    -0.027 S 
BRANCH   9  10
ATOM     10  C   LIG    1       -0.880   0.110  -5.717  0.00  0.00    +0.120 C 
ATOM     11  S   LIG    1        0.131   1.370  -5.152  0.00  0.00    -0.027 S 
BRANCH  10  12
ATOM     12  N   LIG    1       -1.794   0.357  -6.677  0.00  0.00    -0.319 N 
BRANCH  12  13
ATOM     13  C   LIG    1       -1.922   1.706  -7.236  0.00  0.00    +0.103 C 
ATOM     14  C   LIG    1       -0.992   1.847  -8.443  0.00  0.00    +0.024 C 
ENDBRANCH  12  13
BRANCH  12  15
ATOM     15  C   LIG    1       -2.659  -0.721  -7.161  0.00  0.00    +0.103 C 
ATOM     16  C   LIG    1       -3.935  -0.769  -6.317  0.00  0.00    +0.024 C 
ENDBRANCH  12  15
ENDBRANCH  10  12
ENDBRANCH   9  10
ENDBRANCH   1   9
TORSDOF 9
