REMARK  Name = ZINC01529526
REMARK                            x       y       z     vdW  Elec       q    Type
REMARK                         _______ _______ _______ _____ _____    ______ ____
ROOT
ATOM      1  C   LIG    1       -0.017   1.391   0.010  0.00  0.00    +0.001 A 
ATOM      2  C   LIG    1        1.150   2.163   0.003  0.00  0.00    +0.008 A 
ATOM      3  C   LIG    1        2.381   1.513  -0.012  0.00  0.00    -0.017 A 
ATOM      4  C   LIG    1        3.620   2.149  -0.020  0.00  0.00    +0.008 A 
ATOM      5  C   LIG    1        4.777   1.363  -0.035  0.00  0.00    +0.001 A 
ATOM      6  C   LIG    1        4.742  -0.031  -0.044  0.00  0.00    +0.012 A 
ATOM      7  C   LIG    1        3.523  -0.708  -0.036  0.00  0.00    +0.034 A 
ATOM      8  C   LIG    1        3.103  -2.120  -0.041  0.00  0.00    +0.234 C 
ATOM      9  O   LIG    1        3.822  -3.089  -0.055  0.00  0.00    -0.283 OA
ATOM     10  C   LIG    1        1.616  -2.112  -0.026  0.00  0.00    +0.234 C 
ATOM     11  O   LIG    1        0.887  -3.072  -0.025  0.00  0.00    -0.283 OA
ATOM     12  C   LIG    1        1.213  -0.695  -0.014  0.00  0.00    +0.034 A 
ATOM     13  C   LIG    1        2.372   0.050  -0.020  0.00  0.00    +0.004 A 
ATOM     14  C   LIG    1        0.002  -0.004   0.002  0.00  0.00    +0.012 A 
ENDROOT
TORSDOF 0
