REMARK  Name = ZINC01542895
REMARK                            x       y       z     vdW  Elec       q    Type
REMARK                         _______ _______ _______ _____ _____    ______ ____
ROOT
ATOM      1  C   UNK A  0        3.722   3.183  -0.494  0.00  0.00    +0.186 C 
ENDROOT
BRANCH   1   4
ATOM      2  N   LEU A  1        2.424   1.160  -1.079  0.00  0.00    -0.300 N 
ATOM      3  H   LEU A  1        1.760   1.741  -1.483  0.00  0.00    +0.150 HD
ATOM      4  C   UNK A  0        3.523   1.689  -0.506  0.00  0.00    +0.241 C 
ATOM      5  O   UNK A  0        4.353   0.963  -0.001  0.00  0.00    -0.273 OA
BRANCH   2   6
ATOM      6  CA  LEU A  1        2.230  -0.292  -1.091  0.00  0.00    +0.182 C 
BRANCH   6   7
ATOM      7  C   LEU A  1        2.954  -0.885  -2.272  0.00  0.00    +0.325 C 
ATOM      8  O   LEU A  1        3.419  -0.156  -3.131  0.00  0.00    -0.249 OA
BRANCH   7   9
ATOM      9  OXT LEU A  1        3.075  -2.095  -2.368  0.00  0.00    -0.479 OA
ATOM     10  HXT LEU A  1        2.718  -2.655  -1.707  0.00  0.00    +0.295 HD
ENDBRANCH   7   9
ENDBRANCH   6   7
BRANCH   6  11
ATOM     11  CB  LEU A  1        0.737  -0.607  -1.197  0.00  0.00    +0.036 C 
BRANCH  11  13
ATOM     12  CD1 LEU A  1       -1.492  -0.280  -0.117  0.00  0.00    +0.007 C 
ATOM     13  CG  LEU A  1        0.017  -0.090   0.050  0.00  0.00    -0.015 C 
ATOM     14  CD2 LEU A  1        0.496  -0.870   1.276  0.00  0.00    +0.007 C 
ENDBRANCH  11  13
ENDBRANCH   6  11
ENDBRANCH   2   6
ENDBRANCH   1   4
BRANCH   1  15
ATOM     15  O   UNK A  0        4.891   3.502   0.264  0.00  0.00    -0.384 OA
ATOM     16  H   UNK A  0        5.704   3.108  -0.082  0.00  0.00    +0.210 HD
ENDBRANCH   1  15
BRANCH   1  17
ATOM     17  C   UNK A  0        3.892   3.687  -1.929  0.00  0.00    -0.033 C 
BRANCH  17  18
ATOM     18  N   UNK A  0        4.989   2.955  -2.578  0.00  0.00    +0.382 N 
ATOM     19  H   UNK A  0        5.844   3.106  -2.065  0.00  0.00    -0.090 HD
ATOM     20  H   UNK A  0        5.101   3.287  -3.524  0.00  0.00    -0.090 HD
ATOM     21  H   UNK A  0        4.774   1.969  -2.591  0.00  0.00    -0.090 HD
ENDBRANCH  17  18
BRANCH  17  22
ATOM     22  C   UNK A  0        4.218   5.181  -1.910  0.00  0.00    +0.022 C 
BRANCH  22  23
ATOM     23  C   UNK A  0        4.264   5.704  -3.322  0.00  0.00    -0.049 A 
ATOM     24  C   UNK A  0        5.453   5.684  -4.028  0.00  0.00    +0.003 A 
ATOM     25  C   UNK A  0        5.496   6.163  -5.324  0.00  0.00    +0.000 A 
ATOM     26  C   UNK A  0        4.350   6.662  -5.914  0.00  0.00    +0.000 A 
ATOM     27  C   UNK A  0        3.161   6.680  -5.209  0.00  0.00    +0.000 A 
ATOM     28  C   UNK A  0        3.117   6.197  -3.915  0.00  0.00    +0.003 A 
ENDBRANCH  22  23
ENDBRANCH  17  22
ENDBRANCH   1  17
TORSDOF 11
