REMARK  Name = ZINC01640539
REMARK                            x       y       z     vdW  Elec       q    Type
REMARK                         _______ _______ _______ _____ _____    ______ ____
ROOT
ATOM      1  C   LIG    1        4.803   5.289   2.486  0.00  0.00    +0.133 C 
ATOM      2  N   LIG    1        3.717   5.056   1.531  0.00  0.00    -0.287 N 
ATOM      3  C   LIG    1        3.052   3.767   1.302  0.00  0.00    +0.216 C 
ATOM      4  N   LIG    1        2.353   3.888   0.001  0.00  0.00    -0.300 N 
ATOM      5  C   LIG    1        2.101   5.340  -0.109  0.00  0.00    +0.109 C 
ATOM      6  C   LIG    1        0.718   5.676   0.441  0.00  0.00    +0.017 C 
ATOM      7  C   LIG    1        0.458   7.176   0.278  0.00  0.00    -0.076 C 
ATOM      8  N   LIG    1        0.539   7.522  -1.158  0.00  0.00    +0.383 N 
ATOM      9  H   LIG    1       -0.118   6.930  -1.680  0.00  0.00    -0.081 HD
ATOM     10  C   LIG    1        1.907   7.280  -1.664  0.00  0.00    -0.076 C 
ATOM     11  C   LIG    1        2.215   5.784  -1.565  0.00  0.00    +0.017 C 
ATOM     12  C   LIG    1        3.174   5.994   0.726  0.00  0.00    +0.240 C 
ATOM     13  O   LIG    1        3.493   7.163   0.682  0.00  0.00    -0.273 OA
ENDROOT
BRANCH   4  14
ATOM     14  C   LIG    1        1.155   3.171   0.008  0.00  0.00    +0.032 A 
ATOM     15  C   LIG    1        0.269   3.285  -1.056  0.00  0.00    +0.023 A 
ATOM     16  C   LIG    1       -0.915   2.574  -1.046  0.00  0.00    +0.002 A 
ATOM     17  C   LIG    1       -1.222   1.754   0.024  0.00  0.00    +0.000 A 
ATOM     18  C   LIG    1       -0.340   1.633   1.083  0.00  0.00    +0.002 A 
ATOM     19  C   LIG    1        0.846   2.341   1.079  0.00  0.00    +0.023 A 
ENDBRANCH   4  14
BRANCH   8  20
ATOM     20  C   LIG    1        0.170   8.939  -1.356  0.00  0.00    -0.042 C 
BRANCH  20  21
ATOM     21  C   LIG    1       -1.293   9.108  -1.037  0.00  0.00    -0.049 A 
ATOM     22  C   LIG    1       -2.201   9.146  -2.023  0.00  0.00    +0.048 A 
ATOM     23  S   LIG    1       -3.746   9.353  -1.159  0.00  0.00    -0.096 S 
ATOM     24  C   LIG    1       -3.128   9.392   0.504  0.00  0.00    +0.020 A 
ATOM     25  C   LIG    1       -3.712   9.529   1.744  0.00  0.00    +0.015 A 
ATOM     26  C   LIG    1       -2.919   9.518   2.875  0.00  0.00    +0.001 A 
ATOM     27  C   LIG    1       -1.545   9.369   2.744  0.00  0.00    +0.001 A 
ATOM     28  C   LIG    1       -0.957   9.233   1.526  0.00  0.00    +0.009 A 
ATOM     29  C   LIG    1       -1.734   9.239   0.344  0.00  0.00    -0.009 A 
ENDBRANCH  20  21
ENDBRANCH   8  20
TORSDOF 3
