REMARK  Name = ZINC01530856
REMARK                            x       y       z     vdW  Elec       q    Type
REMARK                         _______ _______ _______ _____ _____    ______ ____
ROOT
ATOM      1  C   LIG    1        0.756  -0.597  -1.190  0.00  0.00    +0.072 C 
ATOM      2  C   LIG    1        0.452  -2.089  -1.013  0.00  0.00    +0.030 C 
ATOM      3  C   LIG    1        1.183  -2.591   0.236  0.00  0.00    +0.097 C 
ATOM      4  C   LIG    1        2.651  -2.285   0.106  0.00  0.00    +0.219 C 
ATOM      5  N   LIG    1        3.083  -1.232  -0.603  0.00  0.00    -0.256 N 
ATOM      6  H   LIG    1        4.037  -1.065  -0.655  0.00  0.00    +0.157 HD
ATOM      7  O   LIG    1        3.459  -3.005   0.653  0.00  0.00    -0.275 OA
ATOM      8  C   LIG    1        2.248  -0.400  -1.243  0.00  0.00    +0.230 C 
ATOM      9  O   LIG    1        2.702   0.529  -1.875  0.00  0.00    -0.274 OA
ENDROOT
BRANCH   1  10
ATOM     10  C   LIG    1        0.137  -0.105  -2.473  0.00  0.00    -0.032 A 
ATOM     11  C   LIG    1       -0.487  -0.997  -3.325  0.00  0.00    +0.006 A 
ATOM     12  C   LIG    1       -1.055  -0.549  -4.502  0.00  0.00    +0.023 A 
ATOM     13  C   LIG    1       -0.999   0.800  -4.828  0.00  0.00    +0.025 A 
ATOM     14  C   LIG    1       -0.372   1.694  -3.970  0.00  0.00    +0.023 A 
ATOM     15  C   LIG    1        0.189   1.240  -2.792  0.00  0.00    +0.006 A 
BRANCH  13  16
ATOM     16  N   LIG    1       -1.572   1.257  -6.017  0.00  0.00    -0.358 N 
ATOM     17  H   LIG    1       -1.532   2.199  -6.244  0.00  0.00    +0.142 HD
ATOM     18  H   LIG    1       -2.010   0.632  -6.616  0.00  0.00    +0.142 HD
ENDBRANCH  13  16
ENDBRANCH   1  10
BRANCH   1  20
ATOM     19  C   LIG    1       -1.343   0.016   0.019  0.00  0.00    +0.005 C 
ATOM     20  C   LIG    1        0.177   0.186  -0.010  0.00  0.00    +0.017 C 
ENDBRANCH   1  20
TORSDOF 3
