REMARK  Name = ZINC01611847
REMARK                            x       y       z     vdW  Elec       q    Type
REMARK                         _______ _______ _______ _____ _____    ______ ____
ROOT
ATOM      1  C   LIG    1       -1.975   1.163   1.348  0.00  0.00    +0.120 A 
ATOM      2  C   LIG    1       -2.591   0.359   0.400  0.00  0.00    +0.046 A 
ATOM      3  C   LIG    1       -3.904  -0.021   0.573  0.00  0.00    +0.007 A 
ATOM      4  C   LIG    1       -4.620   0.388   1.692  0.00  0.00    -0.042 A 
ATOM      5  C   LIG    1       -4.005   1.182   2.639  0.00  0.00    -0.014 A 
ATOM      6  C   LIG    1       -4.727   1.638   3.873  0.00  0.00    +0.135 C 
ATOM      7  C   LIG    1       -6.238   1.579   3.650  0.00  0.00    -0.038 C 
ATOM      8  N   LIG    1       -6.917   1.948   4.898  0.00  0.00    +0.384 N 
ATOM      9  H   LIG    1       -7.934   1.910   4.758  0.00  0.00    -0.085 HD
ATOM     10  H   LIG    1       -6.649   1.290   5.640  0.00  0.00    -0.085 HD
ATOM     11  C   LIG    1       -6.527   3.314   5.291  0.00  0.00    -0.054 C 
ATOM     12  C   LIG    1       -5.008   3.401   5.449  0.00  0.00    +0.141 C 
ATOM     13  C   LIG    1       -6.598   0.159   3.216  0.00  0.00    -0.008 C 
ATOM     14  O   LIG    1       -4.365   2.967   4.244  0.00  0.00    -0.375 OA
ATOM     15  C   LIG    1       -6.054  -0.059   1.804  0.00  0.00    +0.034 C 
ATOM     16  C   LIG    1       -2.684   1.567   2.466  0.00  0.00    +0.052 A 
ENDROOT
BRANCH   1  18
ATOM     17  C   LIG    1       -0.013   1.086   0.008  0.00  0.00    +0.277 C 
ATOM     18  O   LIG    1       -0.682   1.547   1.184  0.00  0.00    -0.495 OA
ENDBRANCH   1  18
TORSDOF 1
