REMARK  Name = ZINC01530357
REMARK                            x       y       z     vdW  Elec       q    Type
REMARK                         _______ _______ _______ _____ _____    ______ ____
ROOT
ATOM      1  C   LIG    1       -0.019   1.526   0.010  0.00  0.00    +0.176 C 
ATOM      2  C   LIG    1        1.417   2.055  -0.000  0.00  0.00    +0.176 C 
ATOM      3  C   LIG    1        2.133   1.562  -1.259  0.00  0.00    +0.176 C 
ATOM      4  C   LIG    1        2.154   0.032  -1.268  0.00  0.00    +0.176 C 
ATOM      5  C   LIG    1        0.718  -0.497  -1.257  0.00  0.00    +0.176 C 
ATOM      6  C   LIG    1        0.002  -0.004   0.002  0.00  0.00    +0.176 C 
ENDROOT
BRANCH   1   7
ATOM      7  O   LIG    1       -0.710   1.999  -1.147  0.00  0.00    -0.386 OA
ATOM      8  H   LIG    1       -0.762   2.963  -1.208  0.00  0.00    +0.210 HD
ENDBRANCH   1   7
BRANCH   2   9
ATOM      9  O   LIG    1        1.397   3.484   0.007  0.00  0.00    -0.386 OA
ATOM     10  H   LIG    1        2.275   3.889   0.001  0.00  0.00    +0.210 HD
ENDBRANCH   2   9
BRANCH   3  11
ATOM     11  O   LIG    1        3.474   2.057  -1.269  0.00  0.00    -0.386 OA
ATOM     12  H   LIG    1        3.988   1.782  -2.041  0.00  0.00    +0.210 HD
ENDBRANCH   3  11
BRANCH   4  13
ATOM     13  O   LIG    1        2.845  -0.441  -0.110  0.00  0.00    -0.386 OA
ATOM     14  H   LIG    1        2.897  -1.405  -0.050  0.00  0.00    +0.210 HD
ENDBRANCH   4  13
BRANCH   5  15
ATOM     15  O   LIG    1        0.738  -1.926  -1.265  0.00  0.00    -0.386 OA
ATOM     16  H   LIG    1       -0.140  -2.332  -1.258  0.00  0.00    +0.210 HD
ENDBRANCH   5  15
BRANCH   6  17
ATOM     17  O   LIG    1        0.693  -0.477   1.160  0.00  0.00    -0.386 OA
ATOM     18  H   LIG    1        0.745  -1.441   1.220  0.00  0.00    +0.210 HD
ENDBRANCH   6  17
TORSDOF 6
