REMARK  Name = ZINC01532201
REMARK                            x       y       z     vdW  Elec       q    Type
REMARK                         _______ _______ _______ _____ _____    ______ ____
ROOT
ATOM      1  C   UNK    1       -2.714  -4.620   0.003  0.00  0.00    +0.036 C 
ENDROOT
BRANCH   1   2
ATOM      2  N   UNK    1       -2.091  -5.036  -1.260  0.00  0.00    +0.387 N 
ATOM      3  H   UNK    1       -2.678  -4.757  -2.033  0.00  0.00    -0.089 HD
ATOM      4  H   UNK    1       -1.981  -6.039  -1.267  0.00  0.00    -0.089 HD
ATOM      5  H   UNK    1       -1.186  -4.598  -1.349  0.00  0.00    -0.089 HD
ENDBRANCH   1   2
BRANCH   1   6
ATOM      6  C   UNK    1       -4.065  -5.274   0.136  0.00  0.00    +0.290 C 
ATOM      7  O   UNK    1       -4.551  -5.868  -0.811  0.00  0.00    -0.253 OA
BRANCH   6   8
ATOM      8  O   UNK    1       -4.673  -5.209   1.192  0.00  0.00    -0.482 OA
ATOM      9  H   UNK    1       -4.299  -4.753   1.920  0.00  0.00    +0.295 HD
ENDBRANCH   6   8
ENDBRANCH   1   6
BRANCH   1  10
ATOM     10  C   UNK    1       -2.881  -3.099   0.013  0.00  0.00    +0.005 C 
BRANCH  10  11
ATOM     11  C   UNK    1       -1.502  -2.435   0.003  0.00  0.00    +0.068 C 
BRANCH  11  12
ATOM     12  S   UNK    1       -1.700  -0.632   0.015  0.00  0.00    -0.161 S 
BRANCH  12  14
ATOM     13  C   UNK    1       -0.019   1.526   0.010  0.00  0.00    +0.015 C 
ATOM     14  C   UNK    1        0.002  -0.004   0.002  0.00  0.00    +0.066 C 
ENDBRANCH  12  14
ENDBRANCH  11  12
ENDBRANCH  10  11
ENDBRANCH   1  10
TORSDOF 7
