REMARK  Name = ZINC01530863
REMARK                            x       y       z     vdW  Elec       q    Type
REMARK                         _______ _______ _______ _____ _____    ______ ____
ROOT
ATOM      1  C   LIG    1        2.100  -0.604   1.173  0.00  0.00    +0.057 A 
ATOM      2  C   LIG    1        2.809  -0.256   0.046  0.00  0.00    +0.070 A 
ATOM      3  C   LIG    1        4.201  -0.365   0.015  0.00  0.00    +0.123 A 
ATOM      4  C   LIG    1        4.895  -0.824   1.113  0.00  0.00    +0.055 A 
ATOM      5  C   LIG    1        4.198  -1.185   2.276  0.00  0.00    +0.006 A 
ATOM      6  C   LIG    1        4.876  -1.658   3.417  0.00  0.00    +0.011 A 
ATOM      7  C   LIG    1        4.138  -1.975   4.521  0.00  0.00    +0.020 A 
ATOM      8  C   LIG    1        2.751  -1.845   4.490  0.00  0.00    +0.111 A 
ATOM      9  N   LIG    1        2.123  -1.410   3.425  0.00  0.00    -0.253 NA
ATOM     10  C   LIG    1        2.786  -1.071   2.316  0.00  0.00    +0.092 A 
ENDROOT
BRANCH   1  11
ATOM     11  N   LIG    1        0.711  -0.489   1.189  0.00  0.00    -0.340 N 
ATOM     12  H   LIG    1        0.213  -0.731   1.986  0.00  0.00    +0.146 HD
BRANCH  11  14
ATOM     13  C   LIG    1       -0.019   1.526   0.010  0.00  0.00    +0.028 C 
ATOM     14  C   LIG    1        0.002  -0.004   0.002  0.00  0.00    +0.067 C 
BRANCH  14  15
ATOM     15  C   LIG    1       -1.433  -0.534   0.013  0.00  0.00    +0.020 C 
BRANCH  15  16
ATOM     16  C   LIG    1       -1.416  -2.058  -0.121  0.00  0.00    -0.018 C 
BRANCH  16  17
ATOM     17  C   LIG    1       -2.851  -2.587  -0.110  0.00  0.00    -0.086 C 
BRANCH  17  18
ATOM     18  N   LIG    1       -2.834  -4.051  -0.239  0.00  0.00    +0.378 N 
ATOM     19  H   LIG    1       -3.781  -4.400  -0.232  0.00  0.00    -0.090 HD
ATOM     20  H   LIG    1       -2.322  -4.450   0.533  0.00  0.00    -0.090 HD
ATOM     21  H   LIG    1       -2.388  -4.307  -1.107  0.00  0.00    -0.090 HD
ENDBRANCH  17  18
ENDBRANCH  16  17
ENDBRANCH  15  16
ENDBRANCH  14  15
ENDBRANCH  11  14
ENDBRANCH   1  11
BRANCH   3  22
ATOM     22  O   LIG    1        4.878  -0.017  -1.110  0.00  0.00    -0.495 OA
ATOM     23  C   LIG    1        6.301  -0.151  -1.079  0.00  0.00    +0.277 C 
ENDBRANCH   3  22
TORSDOF 7
