REMARK  Name = ZINC01545440
REMARK                            x       y       z     vdW  Elec       q    Type
REMARK                         _______ _______ _______ _____ _____    ______ ____
ROOT
ATOM      1  C   LIG    1       -6.663   0.848  -3.336  0.00  0.00    -0.000 C 
ENDROOT
BRANCH   1   2
ATOM      2  C   LIG    1       -7.479   1.392  -4.510  0.00  0.00    -0.000 C 
BRANCH   2   3
ATOM      3  C   LIG    1       -8.891   0.803  -4.466  0.00  0.00    -0.000 C 
BRANCH   3   4
ATOM      4  C   LIG    1       -9.707   1.347  -5.640  0.00  0.00    -0.000 C 
BRANCH   4   5
ATOM      5  C   LIG    1      -11.118   0.758  -5.596  0.00  0.00    -0.000 C 
BRANCH   5   6
ATOM      6  C   LIG    1      -11.935   1.301  -6.770  0.00  0.00    -0.000 C 
BRANCH   6   7
ATOM      7  C   LIG    1      -13.346   0.713  -6.726  0.00  0.00    -0.000 C 
BRANCH   7   9
ATOM      8  C   LIG    1      -15.574   0.667  -7.856  0.00  0.00    +0.004 C 
ATOM      9  C   LIG    1      -14.163   1.256  -7.900  0.00  0.00    -0.003 C 
ENDBRANCH   7   9
ENDBRANCH   6   7
ENDBRANCH   5   6
ENDBRANCH   4   5
ENDBRANCH   3   4
ENDBRANCH   2   3
ENDBRANCH   1   2
BRANCH   1  10
ATOM     10  C   LIG    1       -5.251   1.437  -3.380  0.00  0.00    -0.000 C 
BRANCH  10  11
ATOM     11  C   LIG    1       -4.435   0.893  -2.206  0.00  0.00    -0.000 C 
BRANCH  11  12
ATOM     12  C   LIG    1       -3.023   1.482  -2.250  0.00  0.00    -0.002 C 
BRANCH  12  13
ATOM     13  C   LIG    1       -2.207   0.938  -1.076  0.00  0.00    -0.020 C 
BRANCH  13  14
ATOM     14  C   LIG    1       -0.795   1.527  -1.120  0.00  0.00    -0.086 C 
BRANCH  14  15
ATOM     15  N   LIG    1       -0.025   1.014   0.027  0.00  0.00    +0.378 N 
ATOM     16  H   LIG    1       -0.476   1.316   0.899  0.00  0.00    -0.090 HD
ATOM     17  H   LIG    1        0.925   1.379   0.001  0.00  0.00    -0.090 HD
ATOM     18  H   LIG    1        0.002  -0.004   0.002  0.00  0.00    -0.090 HD
ENDBRANCH  14  15
ENDBRANCH  13  14
ENDBRANCH  12  13
ENDBRANCH  11  12
ENDBRANCH  10  11
ENDBRANCH   1  10
TORSDOF 13
