REMARK  Name = ZINC01641291
REMARK                            x       y       z     vdW  Elec       q    Type
REMARK                         _______ _______ _______ _____ _____    ______ ____
ROOT
ATOM      1  C   LIG    1        0.002  -0.004   0.002  0.00  0.00    +0.031 C 
ENDROOT
BRANCH   1   5
ATOM      2  C   LIG    1       -1.664   3.830  -0.874  0.00  0.00    +0.000 A 
ATOM      3  C   LIG    1       -0.326   3.717  -0.545  0.00  0.00    +0.000 A 
ATOM      4  C   LIG    1        0.213   2.476  -0.261  0.00  0.00    +0.004 A 
ATOM      5  C   LIG    1       -0.586   1.349  -0.307  0.00  0.00    -0.042 A 
ATOM      6  C   LIG    1       -1.922   1.462  -0.642  0.00  0.00    +0.004 A 
ATOM      7  C   LIG    1       -2.462   2.703  -0.920  0.00  0.00    +0.000 A 
ENDBRANCH   1   5
BRANCH   1   8
ATOM      8  C   LIG    1       -0.579  -0.521   1.293  0.00  0.00    -0.042 A 
ATOM      9  C   LIG    1        0.225  -0.654   2.409  0.00  0.00    +0.004 A 
ATOM     10  C   LIG    1       -0.309  -1.124   3.594  0.00  0.00    +0.000 A 
ATOM     11  C   LIG    1       -1.645  -1.471   3.660  0.00  0.00    +0.000 A 
ATOM     12  C   LIG    1       -2.449  -1.344   2.542  0.00  0.00    +0.000 A 
ATOM     13  C   LIG    1       -1.916  -0.869   1.359  0.00  0.00    +0.004 A 
ENDBRANCH   1   8
BRANCH   1  14
ATOM     14  C   LIG    1       -0.330  -0.976  -1.133  0.00  0.00    -0.074 C 
BRANCH  14  15
ATOM     15  N   LIG    1        0.361  -0.536  -2.358  0.00  0.00    +0.379 N 
ATOM     16  H   LIG    1        1.375  -0.556  -2.199  0.00  0.00    -0.090 HD
ATOM     17  H   LIG    1        0.080   0.413  -2.596  0.00  0.00    -0.090 HD
ATOM     18  H   LIG    1        0.133  -1.161  -3.130  0.00  0.00    -0.090 HD
ENDBRANCH  14  15
ENDBRANCH   1  14
TORSDOF 4
