REMARK  Name = ZINC01542895
REMARK                            x       y       z     vdW  Elec       q    Type
REMARK                         _______ _______ _______ _____ _____    ______ ____
ROOT
ATOM      1  C   UNK A  0       -2.367   3.114  -2.983  0.00  0.00    +0.217 C 
ENDROOT
BRANCH   1   4
ATOM      2  N   LEU A  1       -2.173   1.101  -1.559  0.00  0.00    -0.300 N 
ATOM      3  H   LEU A  1       -2.206   1.684  -0.784  0.00  0.00    +0.150 HD
ATOM      4  C   UNK A  0       -2.240   1.624  -2.799  0.00  0.00    +0.244 C 
ATOM      5  O   UNK A  0       -2.199   0.895  -3.768  0.00  0.00    -0.273 OA
BRANCH   2   6
ATOM      6  CA  LEU A  1       -2.050  -0.348  -1.381  0.00  0.00    +0.182 C 
BRANCH   6   7
ATOM      7  C   LEU A  1       -3.420  -0.977  -1.415  0.00  0.00    +0.325 C 
ATOM      8  O   LEU A  1       -4.415  -0.272  -1.390  0.00  0.00    -0.249 OA
BRANCH   7   9
ATOM      9  OXT LEU A  1       -3.533  -2.189  -1.468  0.00  0.00    -0.479 OA
ATOM     10  HXT LEU A  1       -2.768  -2.731  -1.487  0.00  0.00    +0.295 HD
ENDBRANCH   7   9
ENDBRANCH   6   7
BRANCH   6  11
ATOM     11  CB  LEU A  1       -1.388  -0.642  -0.033  0.00  0.00    +0.036 C 
BRANCH  11  13
ATOM     12  CD1 LEU A  1        0.653  -0.259   1.356  0.00  0.00    +0.007 C 
ATOM     13  CG  LEU A  1        0.039  -0.089  -0.035  0.00  0.00    -0.015 C 
ATOM     14  CD2 LEU A  1        0.880  -0.852  -1.060  0.00  0.00    +0.007 C 
ENDBRANCH  11  13
ENDBRANCH   6  11
ENDBRANCH   2   6
ENDBRANCH   1   4
BRANCH   1  15
ATOM     15  O   UNK A  0       -2.302   3.430  -4.375  0.00  0.00    -0.381 OA
ATOM     16  H   UNK A  0       -2.998   3.017  -4.905  0.00  0.00    +0.210 HD
ENDBRANCH   1  15
BRANCH   1  17
ATOM     17  C   UNK A  0       -3.707   3.586  -2.415  0.00  0.00    +0.093 C 
BRANCH  17  18
ATOM     18  N   UNK A  0       -4.798   2.825  -3.037  0.00  0.00    -0.324 NA
ATOM     19  H   UNK A  0       -4.735   1.845  -2.802  0.00  0.00    +0.119 HD
ATOM     20  H   UNK A  0       -4.806   2.957  -4.037  0.00  0.00    +0.119 HD
ENDBRANCH  17  18
BRANCH  17  21
ATOM     21  C   UNK A  0       -3.890   5.076  -2.712  0.00  0.00    +0.056 C 
BRANCH  21  22
ATOM     22  C   UNK A  0       -5.150   5.569  -2.047  0.00  0.00    -0.046 A 
ATOM     23  C   UNK A  0       -6.354   5.517  -2.724  0.00  0.00    +0.004 A 
ATOM     24  C   UNK A  0       -7.509   5.969  -2.115  0.00  0.00    +0.000 A 
ATOM     25  C   UNK A  0       -7.460   6.473  -0.829  0.00  0.00    +0.000 A 
ATOM     26  C   UNK A  0       -6.256   6.525  -0.151  0.00  0.00    +0.000 A 
ATOM     27  C   UNK A  0       -5.102   6.068  -0.759  0.00  0.00    +0.004 A 
ENDBRANCH  21  22
ENDBRANCH  17  21
ENDBRANCH   1  17
TORSDOF 11
