REMARK  Name = ZINC01532590
REMARK                            x       y       z     vdW  Elec       q    Type
REMARK                         _______ _______ _______ _____ _____    ______ ____
ROOT
ATOM      1  C   LIG    1        0.786  -0.486  -1.222  0.00  0.00    +0.133 C 
ATOM      2  C   LIG    1        0.002  -0.004   0.002  0.00  0.00    +0.143 C 
ATOM      3  C   LIG    1       -0.019   1.528   0.010  0.00  0.00    +0.110 C 
ATOM      4  C   LIG    1        1.420   2.050  -0.001  0.00  0.00    +0.270 C 
ATOM      5  O   LIG    1        2.102   1.539  -1.148  0.00  0.00    -0.332 OA
ATOM      6  C   LIG    1        2.194   0.114  -1.186  0.00  0.00    +0.176 C 
ENDROOT
BRANCH   1   9
ATOM      7  C   LIG    1       -0.035  -4.196  -1.692  0.00  0.00    +0.109 C 
ATOM      8  C   LIG    1       -0.127  -2.692  -1.712  0.00  0.00    +0.210 C 
ATOM      9  N   LIG    1        0.875  -1.948  -1.202  0.00  0.00    -0.308 N 
ATOM     10  H   LIG    1        1.655  -2.382  -0.821  0.00  0.00    +0.149 HD
ATOM     11  O   LIG    1       -1.102  -2.150  -2.189  0.00  0.00    -0.276 OA
ENDBRANCH   1   9
BRANCH   2  12
ATOM     12  O   LIG    1       -1.337  -0.500  -0.062  0.00  0.00    -0.390 OA
ATOM     13  H   LIG    1       -1.893  -0.227   0.680  0.00  0.00    +0.210 HD
ENDBRANCH   2  12
BRANCH   4  14
ATOM     14  O   LIG    1        1.409   3.478  -0.049  0.00  0.00    -0.356 OA
ATOM     15  H   LIG    1        2.289   3.878  -0.059  0.00  0.00    +0.213 HD
ENDBRANCH   4  14
BRANCH   4  16
ATOM     16  C   LIG    1        2.130   1.595   1.249  0.00  0.00    +0.365 C 
ATOM     17  O   LIG    1        3.167   0.982   1.166  0.00  0.00    -0.245 OA
BRANCH  16  18
ATOM     18  O   LIG    1        1.608   1.871   2.455  0.00  0.00    -0.477 OA
ATOM     19  H   LIG    1        0.803   2.346   2.519  0.00  0.00    +0.295 HD
ENDBRANCH  16  18
ENDBRANCH   4  16
BRANCH   6  20
ATOM     20  C   LIG    1        2.964  -0.315  -2.436  0.00  0.00    +0.176 C 
BRANCH  20  21
ATOM     21  O   LIG    1        3.055  -1.741  -2.474  0.00  0.00    -0.387 OA
ATOM     22  H   LIG    1        3.510  -2.127  -1.713  0.00  0.00    +0.210 HD
ENDBRANCH  20  21
BRANCH  20  23
ATOM     23  C   LIG    1        4.371   0.285  -2.399  0.00  0.00    +0.171 C 
BRANCH  23  24
ATOM     24  O   LIG    1        4.281   1.710  -2.361  0.00  0.00    -0.387 OA
ATOM     25  H   LIG    1        3.826   2.096  -3.122  0.00  0.00    +0.210 HD
ENDBRANCH  23  24
BRANCH  23  26
ATOM     26  C   LIG    1        5.141  -0.144  -3.650  0.00  0.00    +0.189 C 
BRANCH  26  27
ATOM     27  O   LIG    1        6.491   0.318  -3.561  0.00  0.00    -0.392 OA
ATOM     28  H   LIG    1        7.039   0.082  -4.321  0.00  0.00    +0.210 HD
ENDBRANCH  26  27
ENDBRANCH  23  26
ENDBRANCH  20  23
ENDBRANCH   6  20
TORSDOF 11
