REMARK  Name = ZINC01512423
REMARK                            x       y       z     vdW  Elec       q    Type
REMARK                         _______ _______ _______ _____ _____    ______ ____
ROOT
ATOM      1  C   LIG    1       -0.473   1.102  -1.772  0.00  0.00    +0.001 A 
ATOM      2  C   LIG    1        0.580   1.814  -2.327  0.00  0.00    +0.001 A 
ATOM      3  C   LIG    1        0.589   3.193  -2.299  0.00  0.00    +0.014 A 
ATOM      4  C   LIG    1       -0.471   3.877  -1.706  0.00  0.00    +0.047 A 
ATOM      5  C   LIG    1       -1.541   3.152  -1.142  0.00  0.00    -0.003 A 
ATOM      6  C   LIG    1       -2.646   3.902  -0.522  0.00  0.00    +0.020 A 
ATOM      7  C   LIG    1       -3.739   3.228   0.055  0.00  0.00    +0.068 A 
ATOM      8  C   LIG    1       -4.770   3.964   0.635  0.00  0.00    +0.016 A 
ATOM      9  C   LIG    1       -4.717   5.345   0.640  0.00  0.00    +0.003 A 
ATOM     10  C   LIG    1       -3.649   6.012   0.075  0.00  0.00    +0.026 A 
ATOM     11  C   LIG    1       -2.604   5.302  -0.511  0.00  0.00    +0.051 A 
ATOM     12  N   LIG    1       -1.538   5.983  -1.075  0.00  0.00    -0.322 N 
ATOM     13  H   LIG    1       -1.536   6.953  -1.052  0.00  0.00    +0.169 HD
ATOM     14  C   LIG    1       -0.503   5.347  -1.653  0.00  0.00    +0.257 A 
ATOM     15  O   LIG    1        0.411   5.990  -2.134  0.00  0.00    -0.267 OA
ATOM     16  C   LIG    1       -1.534   1.761  -1.186  0.00  0.00    +0.009 A 
ENDROOT
BRANCH   7  17
ATOM     17  C   LIG    1       -3.791   1.754   0.046  0.00  0.00    +0.337 C 
ATOM     18  O   LIG    1       -4.424   1.173  -0.813  0.00  0.00    -0.245 OA
BRANCH  17  19
ATOM     19  O   LIG    1       -3.136   1.051   0.991  0.00  0.00    -0.477 OA
ATOM     20  H   LIG    1       -2.648   1.499   1.654  0.00  0.00    +0.295 HD
ENDBRANCH  17  19
ENDBRANCH   7  17
TORSDOF 2
