REMARK  Name = ZINC01530855
REMARK                            x       y       z     vdW  Elec       q    Type
REMARK                         _______ _______ _______ _____ _____    ______ ____
ROOT
ATOM      1  C   LIG    1        0.786  -0.391  -1.254  0.00  0.00    +0.072 C 
ATOM      2  C   LIG    1        0.801  -1.919  -1.366  0.00  0.00    +0.030 C 
ATOM      3  C   LIG    1       -0.634  -2.407  -1.589  0.00  0.00    +0.097 C 
ATOM      4  C   LIG    1       -1.208  -1.718  -2.798  0.00  0.00    +0.219 C 
ATOM      5  N   LIG    1       -0.803  -0.491  -3.159  0.00  0.00    -0.256 N 
ATOM      6  H   LIG    1       -1.204  -0.079  -3.940  0.00  0.00    +0.157 HD
ATOM      7  O   LIG    1       -2.054  -2.283  -3.459  0.00  0.00    -0.275 OA
ATOM      8  C   LIG    1        0.134   0.188  -2.482  0.00  0.00    +0.230 C 
ATOM      9  O   LIG    1        0.464   1.290  -2.865  0.00  0.00    -0.274 OA
ENDROOT
BRANCH   1  10
ATOM     10  C   LIG    1        2.199   0.121  -1.144  0.00  0.00    -0.032 A 
ATOM     11  C   LIG    1        3.262  -0.751  -1.287  0.00  0.00    +0.006 A 
ATOM     12  C   LIG    1        4.558  -0.284  -1.186  0.00  0.00    +0.023 A 
ATOM     13  C   LIG    1        4.793   1.063  -0.942  0.00  0.00    +0.025 A 
ATOM     14  C   LIG    1        3.722   1.936  -0.799  0.00  0.00    +0.023 A 
ATOM     15  C   LIG    1        2.429   1.464  -0.906  0.00  0.00    +0.006 A 
BRANCH  13  16
ATOM     16  N   LIG    1        6.102   1.538  -0.839  0.00  0.00    -0.358 N 
ATOM     17  H   LIG    1        6.265   2.478  -0.668  0.00  0.00    +0.142 HD
ATOM     18  H   LIG    1        6.849   0.927  -0.939  0.00  0.00    +0.142 HD
ENDBRANCH  13  16
ENDBRANCH   1  10
BRANCH   1  20
ATOM     19  C   LIG    1        0.707  -0.491   1.242  0.00  0.00    +0.005 C 
ATOM     20  C   LIG    1       -0.006   0.022  -0.011  0.00  0.00    +0.017 C 
ENDBRANCH   1  20
TORSDOF 3
