REMARK  Name = ZINC01634175
REMARK                            x       y       z     vdW  Elec       q    Type
REMARK                         _______ _______ _______ _____ _____    ______ ____
ROOT
ATOM      1  N   LIG    1        2.861   4.176  -1.401  0.00  0.00    +0.385 N 
ATOM      2  H   LIG    1        2.863   3.281  -1.906  0.00  0.00    -0.081 HD
ATOM      3  C   LIG    1        1.914   5.095  -2.054  0.00  0.00    -0.042 C 
ATOM      4  C   LIG    1        2.395   5.431  -3.441  0.00  0.00    -0.061 A 
ATOM      5  C   LIG    1        1.485   5.958  -4.346  0.00  0.00    +0.002 A 
ATOM      6  C   LIG    1        1.884   6.284  -5.627  0.00  0.00    +0.000 A 
ATOM      7  C   LIG    1        3.197   6.086  -6.010  0.00  0.00    +0.000 A 
ATOM      8  C   LIG    1        4.104   5.562  -5.111  0.00  0.00    +0.004 A 
ATOM      9  C   LIG    1        3.704   5.232  -3.825  0.00  0.00    -0.048 A 
ATOM     10  C   LIG    1        4.727   4.657  -2.879  0.00  0.00    +0.017 C 
ATOM     11  C   LIG    1        4.220   4.754  -1.440  0.00  0.00    -0.073 C 
ENDROOT
BRANCH   1  12
ATOM     12  C   LIG    1        2.451   3.937   0.001  0.00  0.00    -0.043 C 
BRANCH  12  16
ATOM     13  C   LIG    1       -1.219   1.751   0.017  0.00  0.00    +0.000 A 
ATOM     14  C   LIG    1       -0.013   1.076   0.008  0.00  0.00    +0.000 A 
ATOM     15  C   LIG    1        1.175   1.783   0.000  0.00  0.00    +0.002 A 
ATOM     16  C   LIG    1        1.156   3.165   0.008  0.00  0.00    -0.064 A 
ATOM     17  C   LIG    1       -0.050   3.840   0.023  0.00  0.00    +0.002 A 
ATOM     18  C   LIG    1       -1.238   3.133   0.029  0.00  0.00    +0.000 A 
ENDBRANCH  12  16
ENDBRANCH   1  12
TORSDOF 2
