REMARK  Name = ZINC01539136
REMARK                            x       y       z     vdW  Elec       q    Type
REMARK                         _______ _______ _______ _____ _____    ______ ____
ROOT
ATOM      1  C   LIG    1       -3.310  -2.768   1.241  0.00  0.00    +0.134 A 
ATOM      2  C   LIG    1       -4.581  -3.358   1.312  0.00  0.00    +0.062 A 
ATOM      3  C   LIG    1       -5.564  -3.819   0.333  0.00  0.00    -0.017 A 
ATOM      4  C   LIG    1       -5.431  -3.764  -1.168  0.00  0.00    +0.046 C 
ATOM      5  C   LIG    1       -6.609  -4.300   1.026  0.00  0.00    +0.026 A 
ATOM      6  C   LIG    1       -7.859  -4.883   0.418  0.00  0.00    +0.064 C 
ATOM      7  N   LIG    1       -6.367  -4.181   2.372  0.00  0.00    -0.297 N 
ATOM      8  C   LIG    1       -5.139  -3.610   2.578  0.00  0.00    +0.151 A 
ATOM      9  N   LIG    1       -4.437  -3.279   3.661  0.00  0.00    -0.214 NA
ATOM     10  C   LIG    1       -3.248  -2.727   3.548  0.00  0.00    +0.130 A 
ATOM     11  C   LIG    1       -2.495  -2.371   4.803  0.00  0.00    +0.088 C 
ATOM     12  N   LIG    1       -2.685  -2.479   2.379  0.00  0.00    -0.217 NA
ENDROOT
BRANCH   7  13
ATOM     13  C   LIG    1       -7.247  -4.585   3.386  0.00  0.00    +0.054 A 
ATOM     14  C   LIG    1       -8.193  -3.697   3.879  0.00  0.00    -0.026 A 
ATOM     15  C   LIG    1       -8.276  -2.298   3.326  0.00  0.00    +0.046 C 
ATOM     16  C   LIG    1       -9.059  -4.098   4.878  0.00  0.00    +0.008 A 
ATOM     17  C   LIG    1       -8.983  -5.382   5.387  0.00  0.00    -0.050 A 
ATOM     18  C   LIG    1       -9.929  -5.816   6.477  0.00  0.00    +0.044 C 
ATOM     19  C   LIG    1       -8.041  -6.268   4.898  0.00  0.00    +0.008 A 
ATOM     20  C   LIG    1       -7.177  -5.875   3.894  0.00  0.00    -0.026 A 
ATOM     21  C   LIG    1       -6.155  -6.843   3.357  0.00  0.00    +0.046 C 
ENDBRANCH   7  13
BRANCH   1  22
ATOM     22  N   LIG    1       -2.719  -2.500   0.020  0.00  0.00    -0.315 N 
BRANCH  22  23
ATOM     23  C   LIG    1       -2.750  -1.141  -0.527  0.00  0.00    +0.103 C 
ATOM     24  C   LIG    1       -3.923  -1.010  -1.500  0.00  0.00    +0.024 C 
ENDBRANCH  22  23
BRANCH  22  25
ATOM     25  C   LIG    1       -2.062  -3.575  -0.728  0.00  0.00    +0.106 C 
BRANCH  25  26
ATOM     26  C   LIG    1       -0.589  -3.653  -0.321  0.00  0.00    +0.019 C 
BRANCH  26  28
ATOM     27  C   LIG    1        1.570  -4.853  -0.695  0.00  0.00    +0.004 C 
ATOM     28  C   LIG    1        0.097  -4.775  -1.102  0.00  0.00    -0.002 C 
ENDBRANCH  26  28
ENDBRANCH  25  26
ENDBRANCH  22  25
ENDBRANCH   1  22
TORSDOF 6
