REMARK  Name = ZINC01554888
REMARK                            x       y       z     vdW  Elec       q    Type
REMARK                         _______ _______ _______ _____ _____    ______ ____
ROOT
ATOM      1  C   LIG    1        5.740  -1.842  -1.483  0.00  0.00    +0.145 A 
ATOM      2  N   LIG    1        6.252  -2.129  -0.309  0.00  0.00    -0.334 N 
ATOM      3  H   LIG    1        5.828  -1.892   0.596  0.00  0.00    +0.168 HD
ATOM      4  C   LIG    1        7.419  -2.782  -0.474  0.00  0.00    +0.073 A 
ATOM      5  C   LIG    1        7.643  -2.907  -1.831  0.00  0.00    +0.073 A 
ATOM      6  N   LIG    1        6.566  -2.310  -2.459  0.00  0.00    -0.334 N 
ATOM      7  H   LIG    1        6.421  -2.236  -3.446  0.00  0.00    +0.168 HD
ENDROOT
BRANCH   4   8
ATOM      8  C   LIG    1        8.304  -3.277   0.607  0.00  0.00    +0.000 A 
ATOM      9  C   LIG    1        9.009  -4.469   0.444  0.00  0.00    +0.010 A 
ATOM     10  C   LIG    1        9.835  -4.922   1.452  0.00  0.00    +0.001 A 
ATOM     11  C   LIG    1        9.956  -4.201   2.627  0.00  0.00    +0.000 A 
ATOM     12  C   LIG    1        9.255  -3.020   2.796  0.00  0.00    +0.001 A 
ATOM     13  C   LIG    1        8.430  -2.555   1.793  0.00  0.00    +0.010 A 
ENDBRANCH   4   8
BRANCH   5  14
ATOM     14  C   LIG    1        8.799  -3.555  -2.481  0.00  0.00    +0.000 A 
ATOM     15  C   LIG    1       10.095  -3.297  -2.026  0.00  0.00    +0.010 A 
ATOM     16  C   LIG    1       11.170  -3.911  -2.635  0.00  0.00    +0.001 A 
ATOM     17  C   LIG    1       10.968  -4.771  -3.701  0.00  0.00    +0.000 A 
ATOM     18  C   LIG    1        9.688  -5.025  -4.160  0.00  0.00    +0.001 A 
ATOM     19  C   LIG    1        8.603  -4.424  -3.557  0.00  0.00    +0.010 A 
ENDBRANCH   5  14
BRANCH   1  20
ATOM     20  S   LIG    1        4.220  -0.992  -1.753  0.00  0.00    -0.085 S 
BRANCH  20  21
ATOM     21  C   LIG    1        3.711  -0.707  -0.039  0.00  0.00    +0.112 C 
BRANCH  21  25
ATOM     22  C   LIG    1       -0.017   1.378   0.010  0.00  0.00    +0.000 A 
ATOM     23  C   LIG    1        1.171   2.086   0.002  0.00  0.00    +0.000 A 
ATOM     24  C   LIG    1        2.377   1.411  -0.014  0.00  0.00    +0.004 A 
ATOM     25  C   LIG    1        2.396   0.029  -0.022  0.00  0.00    -0.037 A 
ATOM     26  C   LIG    1        1.208  -0.679  -0.014  0.00  0.00    +0.004 A 
ATOM     27  C   LIG    1        0.002  -0.004   0.002  0.00  0.00    +0.000 A 
ENDBRANCH  21  25
ENDBRANCH  20  21
ENDBRANCH   1  20
TORSDOF 5
