REMARK  Name = ZINC01530812
REMARK                            x       y       z     vdW  Elec       q    Type
REMARK                         _______ _______ _______ _____ _____    ______ ____
ROOT
ATOM      1  C   LIG    1        1.869  -4.460  -0.911  0.00  0.00    +0.204 C 
ATOM      2  N   LIG    1        2.612  -5.566  -0.706  0.00  0.00    -0.286 N 
ATOM      3  H   LIG    1        2.736  -6.207  -1.423  0.00  0.00    +0.155 HD
ATOM      4  O   LIG    1        1.796  -3.610  -0.049  0.00  0.00    -0.277 OA
ENDROOT
BRANCH   2   5
ATOM      5  C   LIG    1        3.204  -5.789   0.542  0.00  0.00    +0.039 A 
ATOM      6  C   LIG    1        2.939  -6.961   1.239  0.00  0.00    -0.029 A 
ATOM      7  C   LIG    1        2.012  -7.994   0.652  0.00  0.00    +0.045 C 
ATOM      8  C   LIG    1        3.525  -7.178   2.470  0.00  0.00    +0.005 A 
ATOM      9  C   LIG    1        4.375  -6.230   3.010  0.00  0.00    +0.001 A 
ATOM     10  C   LIG    1        4.641  -5.062   2.319  0.00  0.00    +0.005 A 
ATOM     11  C   LIG    1        4.063  -4.842   1.084  0.00  0.00    -0.029 A 
ATOM     12  C   LIG    1        4.359  -3.572   0.329  0.00  0.00    +0.045 C 
ENDBRANCH   2   5
BRANCH   1  19
ATOM     13  N   LIG    1       -0.072  -3.470  -1.983  0.00  0.00    +0.387 N 
ATOM     14  H   LIG    1        0.198  -2.550  -1.668  0.00  0.00    -0.081 HD
ATOM     15  C   LIG    1       -0.838  -3.352  -3.230  0.00  0.00    -0.078 C 
ATOM     16  C   LIG    1       -0.004  -2.610  -4.277  0.00  0.00    -0.019 C 
ATOM     17  C   LIG    1        1.287  -3.392  -4.541  0.00  0.00    -0.003 C 
ATOM     18  C   LIG    1        2.041  -3.573  -3.220  0.00  0.00    -0.006 C 
ATOM     19  C   LIG    1        1.131  -4.279  -2.212  0.00  0.00    +0.020 C 
BRANCH  13  20
ATOM     20  C   LIG    1       -0.904  -4.112  -0.958  0.00  0.00    -0.078 C 
BRANCH  20  21
ATOM     21  C   LIG    1       -2.084  -3.200  -0.613  0.00  0.00    -0.019 C 
BRANCH  21  23
ATOM     22  C   LIG    1       -4.130  -2.957   0.799  0.00  0.00    +0.004 C 
ATOM     23  C   LIG    1       -2.951  -3.869   0.455  0.00  0.00    -0.005 C 
ENDBRANCH  21  23
ENDBRANCH  20  21
ENDBRANCH  13  20
ENDBRANCH   1  19
TORSDOF 5
