REMARK  Name = ZINC01529636
REMARK                            x       y       z     vdW  Elec       q    Type
REMARK                         _______ _______ _______ _____ _____    ______ ____
ROOT
ATOM      1  C   LIG    1       -0.019   1.526   0.010  0.00  0.00    +0.006 C 
ENDROOT
BRANCH   1   2
ATOM      2  C   LIG    1        1.417   2.055  -0.000  0.00  0.00    +0.196 C 
BRANCH   2   3
ATOM      3  S   LIG    1        1.392   3.869   0.009  0.00  0.00    +0.080 S 
ATOM      4  O   LIG    1        0.685   4.331  -1.175  0.00  0.00    -0.147 OA
ATOM      5  O   LIG    1        2.764   4.353  -0.001  0.00  0.00    -0.147 OA
BRANCH   3   6
ATOM      6  O   LIG    1        0.708   4.318   1.212  0.00  0.00    -0.254 OA
ATOM      7  H   LIG    1        1.189   4.004   1.994  0.00  0.00    +0.244 HD
ENDBRANCH   3   6
ENDBRANCH   2   3
ENDBRANCH   1   2
BRANCH   1   8
ATOM      8  C   LIG    1        0.002  -0.004   0.002  0.00  0.00    -0.085 C 
BRANCH   8   9
ATOM      9  N   LIG    1       -1.376  -0.512   0.012  0.00  0.00    +0.378 N 
ATOM     10  H   LIG    1       -1.362  -1.521   0.007  0.00  0.00    -0.090 HD
ATOM     11  H   LIG    1       -1.864  -0.178  -0.805  0.00  0.00    -0.090 HD
ATOM     12  H   LIG    1       -1.848  -0.187   0.843  0.00  0.00    -0.090 HD
ENDBRANCH   8   9
ENDBRANCH   1   8
TORSDOF 5
