REMARK  Name = ZINC01529898
REMARK                            x       y       z     vdW  Elec       q    Type
REMARK                         _______ _______ _______ _____ _____    ______ ____
ROOT
ATOM      1  C   LIG    1       -0.013   1.086   0.008  0.00  0.00    +0.226 C 
ATOM      2  C   LIG    1       -0.804   1.620  -1.206  0.00  0.00    +0.088 C 
ATOM      3  C   LIG    1       -2.230   1.847  -0.655  0.00  0.00    +0.150 C 
ATOM      4  C   LIG    1       -2.131   1.423   0.827  0.00  0.00    +0.175 C 
ATOM      5  O   LIG    1       -0.731   1.573   1.163  0.00  0.00    -0.348 OA
ENDROOT
BRANCH   1  15
ATOM      6  C   LIG    1        1.788   2.396   1.036  0.00  0.00    +0.137 A 
ATOM      7  C   LIG    1        3.048   2.882   1.026  0.00  0.00    +0.204 A 
ATOM      8  F   LIG    1        3.492   3.655   2.041  0.00  0.00    -0.198 F 
ATOM      9  C   LIG    1        3.898   2.569  -0.064  0.00  0.00    +0.289 A 
ATOM     10  N   LIG    1        3.432   1.796  -1.066  0.00  0.00    -0.273 N 
ATOM     11  C   LIG    1        2.174   1.321  -1.028  0.00  0.00    +0.331 A 
ATOM     12  O   LIG    1        1.770   0.621  -1.937  0.00  0.00    -0.246 OA
ATOM     13  H   LIG    1        4.025   1.575  -1.840  0.00  0.00    +0.174 HD
ATOM     14  O   LIG    1        5.038   2.995  -0.096  0.00  0.00    -0.265 OA
ATOM     15  N   LIG    1        1.354   1.613  -0.002  0.00  0.00    -0.271 N 
ENDBRANCH   1  15
BRANCH   3  16
ATOM     16  O   LIG    1       -3.172   1.026  -1.348  0.00  0.00    -0.389 OA
ATOM     17  H   LIG    1       -3.230   1.208  -2.296  0.00  0.00    +0.210 HD
ENDBRANCH   3  16
BRANCH   4  18
ATOM     18  C   LIG    1       -2.988   2.341   1.702  0.00  0.00    +0.206 C 
BRANCH  18  19
ATOM     19  O   LIG    1       -2.975   1.863   3.049  0.00  0.00    -0.284 OA
BRANCH  19  20
ATOM     20  P   LIG    1       -3.774   2.588   4.244  0.00  0.00    +0.472 P 
ATOM     21  O   LIG    1       -3.369   4.010   4.317  0.00  0.00    -0.228 OA
BRANCH  20  22
ATOM     22  O   LIG    1       -3.431   1.860   5.638  0.00  0.00    -0.303 OA
ATOM     23  H   LIG    1       -2.478   1.916   5.806  0.00  0.00    +0.222 HD
ENDBRANCH  20  22
BRANCH  20  24
ATOM     24  O   LIG    1       -5.357   2.495   3.965  0.00  0.00    -0.303 OA
ATOM     25  H   LIG    1       -5.564   2.934   3.125  0.00  0.00    +0.222 HD
ENDBRANCH  20  24
ENDBRANCH  19  20
ENDBRANCH  18  19
ENDBRANCH   4  18
TORSDOF 7
