REMARK  Name = ZINC01548888
REMARK                            x       y       z     vdW  Elec       q    Type
REMARK                         _______ _______ _______ _____ _____    ______ ____
ROOT
ATOM      1  C   LIG    1        2.147  -4.590   3.507  0.00  0.00    +0.186 A 
ATOM      2  C   LIG    1        3.506  -4.866   3.438  0.00  0.00    +0.164 A 
ATOM      3  C   LIG    1        4.157  -5.479   4.507  0.00  0.00    +0.050 A 
ATOM      4  C   LIG    1        3.471  -5.818   5.634  0.00  0.00    +0.014 A 
ATOM      5  C   LIG    1        2.095  -5.549   5.727  0.00  0.00    +0.003 A 
ATOM      6  C   LIG    1        1.379  -5.900   6.894  0.00  0.00    +0.028 A 
ATOM      7  C   LIG    1        0.028  -5.609   6.969  0.00  0.00    +0.101 A 
ATOM      8  C   LIG    1       -0.630  -4.962   5.829  0.00  0.00    +0.261 A 
ATOM      9  O   LIG    1       -1.821  -4.710   5.877  0.00  0.00    -0.267 OA
ATOM     10  N   LIG    1        0.079  -4.647   4.729  0.00  0.00    -0.318 N 
ATOM     11  H   LIG    1       -0.365  -4.220   3.980  0.00  0.00    +0.169 HD
ATOM     12  C   LIG    1        1.430  -4.923   4.653  0.00  0.00    +0.095 A 
ENDROOT
BRANCH   7  13
ATOM     13  C   LIG    1       -0.743  -5.956   8.174  0.00  0.00    +0.250 C 
ATOM     14  N   LIG    1       -2.028  -5.565   8.288  0.00  0.00    -0.307 N 
ATOM     15  H   LIG    1       -2.467  -5.119   7.547  0.00  0.00    +0.149 HD
ATOM     16  O   LIG    1       -0.220  -6.595   9.066  0.00  0.00    -0.270 OA
BRANCH  14  17
ATOM     17  C   LIG    1       -2.761  -5.814   9.531  0.00  0.00    +0.140 C 
BRANCH  17  18
ATOM     18  C   LIG    1       -4.166  -5.284   9.401  0.00  0.00    -0.027 A 
ATOM     19  C   LIG    1       -4.447  -3.979   9.760  0.00  0.00    +0.009 A 
ATOM     20  C   LIG    1       -5.734  -3.488   9.641  0.00  0.00    +0.050 A 
ATOM     21  C   LIG    1       -6.746  -4.304   9.162  0.00  0.00    +0.166 A 
ATOM     22  C   LIG    1       -6.462  -5.619   8.800  0.00  0.00    +0.167 A 
ATOM     23  O   LIG    1       -7.613  -6.209   8.363  0.00  0.00    -0.453 OA
ATOM     24  C   LIG    1       -8.681  -5.372   8.845  0.00  0.00    +0.466 C 
ATOM     25  O   LIG    1       -8.074  -4.071   8.952  0.00  0.00    -0.453 OA
ATOM     26  C   LIG    1       -5.169  -6.102   8.916  0.00  0.00    +0.054 A 
ENDBRANCH  17  18
ENDBRANCH  14  17
ENDBRANCH   7  13
BRANCH   2  27
ATOM     27  O   LIG    1        4.205  -4.536   2.322  0.00  0.00    -0.491 OA
ATOM     28  C   LIG    1        5.600  -4.846   2.315  0.00  0.00    +0.277 C 
ENDBRANCH   2  27
BRANCH   1  29
ATOM     29  O   LIG    1        1.519  -3.990   2.459  0.00  0.00    -0.486 OA
BRANCH  29  30
ATOM     30  C   LIG    1        1.482  -2.561   2.457  0.00  0.00    +0.229 C 
BRANCH  30  31
ATOM     31  C   LIG    1        0.741  -2.073   1.211  0.00  0.00    +0.041 C 
BRANCH  31  32
ATOM     32  C   LIG    1        0.702  -0.543   1.208  0.00  0.00    +0.003 C 
BRANCH  32  34
ATOM     33  C   LIG    1       -0.080   1.475  -0.041  0.00  0.00    +0.004 C 
ATOM     34  C   LIG    1       -0.040  -0.054  -0.038  0.00  0.00    -0.003 C 
ENDBRANCH  32  34
ENDBRANCH  31  32
ENDBRANCH  30  31
ENDBRANCH  29  30
ENDBRANCH   1  29
TORSDOF 9
