REMARK  Name = ZINC01537184
REMARK                            x       y       z     vdW  Elec       q    Type
REMARK                         _______ _______ _______ _____ _____    ______ ____
ROOT
ATOM      1  C   LIG    1        4.205  -1.464  -4.834  0.00  0.00    +0.006 C 
ATOM      2  C   LIG    1        4.581  -0.336  -4.203  0.00  0.00    +0.016 C 
ATOM      3  C   LIG    1        3.768   0.262  -3.138  0.00  0.00    -0.013 A 
ATOM      4  C   LIG    1        4.178   1.432  -2.502  0.00  0.00    +0.009 A 
ATOM      5  C   LIG    1        3.397   1.976  -1.500  0.00  0.00    +0.005 A 
ATOM      6  C   LIG    1        2.204   1.377  -1.111  0.00  0.00    -0.038 A 
ATOM      7  C   LIG    1        1.778   0.221  -1.734  0.00  0.00    -0.032 A 
ATOM      8  C   LIG    1        0.492  -0.471  -1.367  0.00  0.00    +0.036 C 
ATOM      9  C   LIG    1        0.002  -0.004   0.002  0.00  0.00    +0.005 C 
ATOM     10  C   LIG    1       -0.019   1.529   0.010  0.00  0.00    +0.011 C 
ATOM     11  C   LIG    1        1.424   2.031  -0.001  0.00  0.00    -0.010 C 
ATOM     12  C   LIG    1        2.082   1.702   1.341  0.00  0.00    +0.016 C 
ATOM     13  C   LIG    1        1.428   3.547  -0.205  0.00  0.00    +0.016 C 
ATOM     14  C   LIG    1        2.558  -0.342  -2.747  0.00  0.00    +0.036 A 
ATOM     15  C   LIG    1        2.125  -1.582  -3.425  0.00  0.00    +0.233 C 
ATOM     16  O   LIG    1        1.089  -2.133  -3.118  0.00  0.00    -0.283 OA
ATOM     17  C   LIG    1        3.004  -2.136  -4.503  0.00  0.00    +0.229 C 
ATOM     18  O   LIG    1        2.690  -3.153  -5.088  0.00  0.00    -0.284 OA
ENDROOT
BRANCH   1  20
ATOM     19  C   LIG    1        5.532  -3.438  -5.535  0.00  0.00    +0.012 C 
ATOM     20  C   LIG    1        5.085  -2.026  -5.920  0.00  0.00    +0.017 C 
ATOM     21  C   LIG    1        4.303  -2.080  -7.234  0.00  0.00    +0.012 C 
ENDBRANCH   1  20
TORSDOF 1
