REMARK  Name = ZINC01533688
REMARK                            x       y       z     vdW  Elec       q    Type
REMARK                         _______ _______ _______ _____ _____    ______ ____
ROOT
ATOM      1  C   LIG    1        0.154  -1.004  -0.872  0.00  0.00    +0.023 C 
ATOM      2  C   LIG    1        0.446  -0.407  -2.064  0.00  0.00    +0.077 C 
ATOM      3  C   LIG    1        0.305  -0.930  -3.436  0.00  0.00    +0.259 C 
ATOM      4  N   LIG    1        0.670  -0.123  -4.418  0.00  0.00    -0.244 N 
ATOM      5  C   LIG    1        1.146   1.115  -4.174  0.00  0.00    +0.121 C 
ATOM      6  S   LIG    1        1.664   2.297  -5.299  0.00  0.00    -0.027 S 
ATOM      7  O   LIG    1       -0.125  -2.048  -3.653  0.00  0.00    -0.269 OA
ATOM      8  S   LIG    1        1.097   1.225  -2.392  0.00  0.00    -0.061 S 
ENDROOT
BRANCH   1  10
ATOM      9  C   LIG    1        1.301   0.908   0.316  0.00  0.00    +0.044 C 
ATOM     10  C   LIG    1        0.499  -0.368   0.337  0.00  0.00    -0.049 C 
ATOM     11  C   LIG    1        0.110  -0.903   1.518  0.00  0.00    +0.011 C 
BRANCH  11  12
ATOM     12  C   LIG    1        0.314  -0.154   2.767  0.00  0.00    -0.025 A 
ATOM     13  C   LIG    1        0.105   1.229   2.800  0.00  0.00    +0.008 A 
ATOM     14  C   LIG    1        0.298   1.923   3.976  0.00  0.00    +0.001 A 
ATOM     15  C   LIG    1        0.699   1.256   5.120  0.00  0.00    +0.000 A 
ATOM     16  C   LIG    1        0.908  -0.112   5.096  0.00  0.00    +0.001 A 
ATOM     17  C   LIG    1        0.713  -0.822   3.930  0.00  0.00    +0.008 A 
ENDBRANCH  11  12
ENDBRANCH   1  10
BRANCH   4  18
ATOM     18  C   LIG    1        0.554  -0.585  -5.804  0.00  0.00    +0.235 C 
BRANCH  18  19
ATOM     19  C   LIG    1       -0.806  -0.224  -6.342  0.00  0.00    +0.323 C 
ATOM     20  O   LIG    1       -1.605   0.365  -5.634  0.00  0.00    -0.249 OA
BRANCH  19  21
ATOM     21  O   LIG    1       -1.108  -0.520  -7.486  0.00  0.00    -0.480 OA
ATOM     22  H   LIG    1       -0.494  -0.972  -8.030  0.00  0.00    +0.295 HD
ENDBRANCH  19  21
ENDBRANCH  18  19
ENDBRANCH   4  18
TORSDOF 5
