REMARK  Name = ZINC01596184
REMARK                            x       y       z     vdW  Elec       q    Type
REMARK                         _______ _______ _______ _____ _____    ______ ____
ROOT
ATOM      1  C   LIG    1       -0.606  -5.719  -3.078  0.00  0.00    +0.230 C 
ENDROOT
BRANCH   1   2
ATOM      2  C   LIG    1       -0.390  -4.221  -2.851  0.00  0.00    +0.023 C 
BRANCH   2   3
ATOM      3  C   LIG    1        1.109  -3.932  -2.749  0.00  0.00    -0.076 C 
BRANCH   3   4
ATOM      4  N   LIG    1        1.317  -2.495  -2.531  0.00  0.00    +0.380 N 
ATOM      5  H   LIG    1        0.856  -1.974  -3.261  0.00  0.00    -0.082 HD
BRANCH   4   6
ATOM      6  C   LIG    1        0.758  -2.111  -1.228  0.00  0.00    -0.079 C 
BRANCH   6   7
ATOM      7  C   LIG    1        0.846  -0.593  -1.062  0.00  0.00    -0.019 C 
BRANCH   7   9
ATOM      8  C   LIG    1        0.232   1.339   0.399  0.00  0.00    +0.004 C 
ATOM      9  C   LIG    1        0.144  -0.179   0.234  0.00  0.00    -0.005 C 
ENDBRANCH   7   9
ENDBRANCH   6   7
ENDBRANCH   4   6
BRANCH   4  10
ATOM     10  C   LIG    1        2.756  -2.199  -2.552  0.00  0.00    -0.079 C 
BRANCH  10  11
ATOM     11  C   LIG    1        3.310  -2.463  -3.954  0.00  0.00    -0.019 C 
BRANCH  11  12
ATOM     12  C   LIG    1        4.776  -2.030  -4.013  0.00  0.00    -0.005 C 
ATOM     13  C   LIG    1        5.330  -2.294  -5.414  0.00  0.00    +0.004 C 
ENDBRANCH  11  12
ENDBRANCH  10  11
ENDBRANCH   4  10
ENDBRANCH   3   4
ENDBRANCH   2   3
ENDBRANCH   1   2
BRANCH   1  14
ATOM     14  O   LIG    1       -2.006  -5.988  -3.173  0.00  0.00    -0.461 OA
BRANCH  14  15
ATOM     15  C   LIG    1       -2.370  -7.270  -3.374  0.00  0.00    +0.339 C 
ATOM     16  O   LIG    1       -1.522  -8.135  -3.467  0.00  0.00    -0.245 OA
BRANCH  15  17
ATOM     17  C   LIG    1       -3.797  -7.623  -3.483  0.00  0.00    +0.059 A 
ATOM     18  C   LIG    1       -4.775  -6.628  -3.383  0.00  0.00    +0.017 A 
ATOM     19  C   LIG    1       -6.101  -6.959  -3.485  0.00  0.00    +0.023 A 
ATOM     20  C   LIG    1       -6.476  -8.285  -3.687  0.00  0.00    +0.025 A 
ATOM     21  C   LIG    1       -5.505  -9.278  -3.787  0.00  0.00    +0.023 A 
ATOM     22  C   LIG    1       -4.176  -8.953  -3.692  0.00  0.00    +0.017 A 
BRANCH  20  23
ATOM     23  N   LIG    1       -7.821  -8.618  -3.789  0.00  0.00    -0.358 N 
ATOM     24  H   LIG    1       -8.083  -9.541  -3.930  0.00  0.00    +0.142 HD
ATOM     25  H   LIG    1       -8.498  -7.927  -3.719  0.00  0.00    +0.142 HD
ENDBRANCH  20  23
ENDBRANCH  15  17
ENDBRANCH  14  15
ENDBRANCH   1  14
TORSDOF 13
