REMARK  Name = ZINC01531790
REMARK                            x       y       z     vdW  Elec       q    Type
REMARK                         _______ _______ _______ _____ _____    ______ ____
ROOT
ATOM      1  C   LIG    1       -0.019   1.526   0.010  0.00  0.00    +0.055 C 
ATOM      2  C   LIG    1        0.002  -0.004   0.002  0.00  0.00    +0.105 C 
ATOM      3  C   LIG    1        0.703  -0.504  -1.263  0.00  0.00    +0.055 C 
ATOM      4  C   LIG    1       -1.435  -0.542   0.048  0.00  0.00    +0.052 C 
ATOM      5  C   LIG    1       -1.370  -2.067  -0.054  0.00  0.00    +0.047 C 
ATOM      6  C   LIG    1       -0.340  -2.604   0.913  0.00  0.00    +0.045 C 
ATOM      7  C   LIG    1        0.617  -1.802   1.449  0.00  0.00    +0.136 C 
ATOM      8  C   LIG    1        1.628  -2.341   2.386  0.00  0.00    +0.028 A 
ATOM      9  C   LIG    1        2.604  -1.499   2.915  0.00  0.00    +0.012 A 
ATOM     10  C   LIG    1        3.548  -2.006   3.794  0.00  0.00    +0.001 A 
ATOM     11  C   LIG    1        3.532  -3.341   4.151  0.00  0.00    +0.001 A 
ATOM     12  C   LIG    1        2.569  -4.193   3.634  0.00  0.00    +0.012 A 
ATOM     13  C   LIG    1        1.616  -3.698   2.752  0.00  0.00    +0.036 A 
ATOM     14  C   LIG    1        0.575  -4.578   2.182  0.00  0.00    +0.233 C 
ATOM     15  O   LIG    1        0.524  -5.755   2.471  0.00  0.00    -0.283 OA
ATOM     16  C   LIG    1       -0.413  -3.974   1.238  0.00  0.00    +0.232 C 
ATOM     17  O   LIG    1       -1.284  -4.667   0.747  0.00  0.00    -0.283 OA
ATOM     18  O   LIG    1        0.691  -0.483   1.156  0.00  0.00    -0.485 OA
ENDROOT
TORSDOF 0
