REMARK  Name = ZINC01510083
REMARK                            x       y       z     vdW  Elec       q    Type
REMARK                         _______ _______ _______ _____ _____    ______ ____
ROOT
ATOM      1  C   LIG    1        0.484  -2.107  -0.473  0.00  0.00    +0.167 A 
ATOM      2  N   LIG    1        0.784  -0.818  -0.797  0.00  0.00    -0.332 N 
ATOM      3  C   LIG    1        0.002  -0.004   0.002  0.00  0.00    +0.075 A 
ATOM      4  C   LIG    1       -0.761  -0.847   0.786  0.00  0.00    +0.098 A 
ATOM      5  H   LIG    1        1.446  -0.517  -1.483  0.00  0.00    +0.168 HD
ATOM      6  N   LIG    1       -0.435  -2.114   0.464  0.00  0.00    -0.221 NA
ENDROOT
BRANCH   3   7
ATOM      7  C   LIG    1       -0.018   1.471   0.010  0.00  0.00    +0.000 A 
ATOM      8  C   LIG    1       -1.235   2.157   0.020  0.00  0.00    +0.010 A 
ATOM      9  C   LIG    1       -1.246   3.536   0.034  0.00  0.00    +0.001 A 
ATOM     10  C   LIG    1       -0.056   4.241   0.026  0.00  0.00    +0.000 A 
ATOM     11  C   LIG    1        1.154   3.568   0.010  0.00  0.00    +0.001 A 
ATOM     12  C   LIG    1        1.181   2.190   0.003  0.00  0.00    +0.010 A 
ENDBRANCH   3   7
BRANCH   4  13
ATOM     13  C   LIG    1       -1.758  -0.432   1.800  0.00  0.00    +0.002 A 
ATOM     14  C   LIG    1       -1.542   0.713   2.567  0.00  0.00    +0.010 A 
ATOM     15  C   LIG    1       -2.477   1.096   3.507  0.00  0.00    +0.001 A 
ATOM     16  C   LIG    1       -3.621   0.342   3.696  0.00  0.00    +0.000 A 
ATOM     17  C   LIG    1       -3.838  -0.798   2.942  0.00  0.00    +0.001 A 
ATOM     18  C   LIG    1       -2.913  -1.189   1.996  0.00  0.00    +0.010 A 
ENDBRANCH   4  13
BRANCH   1  19
ATOM     19  S   LIG    1        1.209  -3.537  -1.203  0.00  0.00    -0.088 S 
BRANCH  19  21
ATOM     20  C   LIG    1        0.807  -6.205  -0.774  0.00  0.00    +0.016 C 
ATOM     21  C   LIG    1        0.329  -4.833  -0.296  0.00  0.00    +0.074 C 
ENDBRANCH  19  21
ENDBRANCH   1  19
TORSDOF 4
