REMARK  Name = ZINC01660914
REMARK                            x       y       z     vdW  Elec       q    Type
REMARK                         _______ _______ _______ _____ _____    ______ ____
ROOT
ATOM      1  C   LIG    1        1.163   1.765   0.000  0.00  0.00    +0.000 C 
ATOM      2  C   LIG    1        1.177   3.157   0.013  0.00  0.00    +0.002 C 
ATOM      3  C   LIG    1        0.016   3.867   0.028  0.00  0.00    +0.019 C 
ATOM      4  C   LIG    1       -1.214   3.190   0.027  0.00  0.00    +0.058 C 
ATOM      5  N   LIG    1       -2.371   3.932   0.026  0.00  0.00    -0.310 NA
ATOM      6  H   LIG    1       -2.353   4.959   0.027  0.00  0.00    +0.122 HD
ATOM      7  C   LIG    1       -3.550   3.234   0.026  0.00  0.00    +0.058 C 
ATOM      8  C   LIG    1       -4.732   4.172   0.012  0.00  0.00    +0.019 C 
ATOM      9  C   LIG    1       -5.311   4.240  -1.399  0.00  0.00    +0.002 C 
ATOM     10  C   LIG    1       -5.663   2.848  -1.907  0.00  0.00    +0.000 C 
ATOM     11  C   LIG    1       -6.734   2.366  -0.955  0.00  0.00    +0.000 C 
ATOM     12  C   LIG    1       -6.224   1.656   0.286  0.00  0.00    +0.000 C 
ATOM     13  C   LIG    1       -4.887   0.972   0.045  0.00  0.00    +0.006 C 
ATOM     14  C   LIG    1       -3.669   1.860   0.036  0.00  0.00    +0.023 C 
ATOM     15  C   LIG    1       -2.471   1.115   0.028  0.00  0.00    +0.060 C 
ATOM     16  C   LIG    1       -1.228   1.774   0.018  0.00  0.00    +0.023 C 
ATOM     17  C   LIG    1       -0.013   1.075   0.008  0.00  0.00    +0.006 C 
ENDROOT
BRANCH  15  18
ATOM     18  N   LIG    1       -2.515  -0.272   0.026  0.00  0.00    -0.327 NA
ATOM     19  H   LIG    1       -1.691  -0.783   0.020  0.00  0.00    +0.118 HD
ATOM     20  H   LIG    1       -3.370  -0.730   0.029  0.00  0.00    +0.118 HD
ENDBRANCH  15  18
TORSDOF 1
