REMARK  Name = ZINC01587667
REMARK                            x       y       z     vdW  Elec       q    Type
REMARK                         _______ _______ _______ _____ _____    ______ ____
ROOT
ATOM      1  C   LIG    1        2.308   1.123   0.109  0.00  0.00    +0.045 C 
ENDROOT
BRANCH   1   2
ATOM      2  C   LIG    1        2.829   0.494  -1.157  0.00  0.00    -0.034 A 
ATOM      3  C   LIG    1        3.941   1.023  -1.785  0.00  0.00    +0.004 A 
ATOM      4  C   LIG    1        4.422   0.443  -2.944  0.00  0.00    +0.000 A 
ATOM      5  C   LIG    1        3.785  -0.660  -3.481  0.00  0.00    +0.000 A 
ATOM      6  C   LIG    1        2.670  -1.187  -2.856  0.00  0.00    +0.000 A 
ATOM      7  C   LIG    1        2.192  -0.609  -1.694  0.00  0.00    +0.004 A 
ENDBRANCH   1   2
BRANCH   1   8
ATOM      8  C   LIG    1        0.852   1.473  -0.066  0.00  0.00    -0.034 A 
ATOM      9  C   LIG    1        0.121   1.947   1.007  0.00  0.00    +0.004 A 
ATOM     10  C   LIG    1       -1.215   2.263   0.847  0.00  0.00    +0.000 A 
ATOM     11  C   LIG    1       -1.818   2.113  -0.387  0.00  0.00    +0.000 A 
ATOM     12  C   LIG    1       -1.087   1.639  -1.461  0.00  0.00    +0.000 A 
ATOM     13  C   LIG    1        0.248   1.319  -1.300  0.00  0.00    +0.004 A 
ENDBRANCH   1   8
BRANCH   1  14
ATOM     14  C   LIG    1        2.460   0.137   1.269  0.00  0.00    +0.129 C 
BRANCH  14  16
ATOM     15  C   LIG    1        4.049  -1.374   2.465  0.00  0.00    +0.006 C 
ATOM     16  C   LIG    1        3.911  -0.342   1.344  0.00  0.00    +0.029 C 
ENDBRANCH  14  16
BRANCH  14  17
ATOM     17  O   LIG    1        2.107   0.784   2.493  0.00  0.00    -0.391 OA
ATOM     18  H   LIG    1        2.652   1.555   2.701  0.00  0.00    +0.210 HD
ENDBRANCH  14  17
ENDBRANCH   1  14
BRANCH   1  19
ATOM     19  C   LIG    1        3.104   2.394   0.412  0.00  0.00    +0.003 C 
BRANCH  19  20
ATOM     20  C   LIG    1        2.834   3.437  -0.674  0.00  0.00    -0.071 C 
ATOM     21  C   LIG    1        3.767   4.633  -0.476  0.00  0.00    -0.013 C 
BRANCH  20  22
ATOM     22  N   LIG    1        1.421   3.862  -0.583  0.00  0.00    +0.378 N 
ATOM     23  H   LIG    1        0.827   3.029  -0.501  0.00  0.00    -0.082 HD
ATOM     24  C   LIG    1        1.038   4.608  -1.800  0.00  0.00    -0.096 C 
ATOM     25  C   LIG    1        1.225   4.711   0.612  0.00  0.00    -0.096 C 
ENDBRANCH  20  22
ENDBRANCH  19  20
ENDBRANCH   1  19
TORSDOF 8
