REMARK  Name = ZINC01532339
REMARK                            x       y       z     vdW  Elec       q    Type
REMARK                         _______ _______ _______ _____ _____    ______ ____
ROOT
ATOM      1  C   LIG    1        4.993  -0.406  -3.746  0.00  0.00    -0.000 C 
ENDROOT
BRANCH   1   2
ATOM      2  C   LIG    1        4.277   0.088  -2.487  0.00  0.00    -0.000 C 
BRANCH   2   3
ATOM      3  C   LIG    1        2.841  -0.442  -2.476  0.00  0.00    -0.002 C 
BRANCH   3   4
ATOM      4  C   LIG    1        2.125   0.052  -1.218  0.00  0.00    -0.018 C 
BRANCH   4   5
ATOM      5  C   LIG    1        0.690  -0.478  -1.207  0.00  0.00    -0.076 C 
BRANCH   5   7
ATOM      6  C   LIG    1       -0.018   1.465   0.010  0.00  0.00    -0.093 C 
ATOM      7  N   LIG    1        0.002  -0.004   0.002  0.00  0.00    +0.374 N 
ATOM      8  C   LIG    1       -1.376  -0.512   0.012  0.00  0.00    -0.093 C 
ATOM      9  C   LIG    1        0.713  -0.491   1.192  0.00  0.00    -0.093 C 
ENDBRANCH   5   7
ENDBRANCH   4   5
ENDBRANCH   3   4
ENDBRANCH   2   3
ENDBRANCH   1   2
BRANCH   1  10
ATOM     10  C   LIG    1        6.428   0.124  -3.757  0.00  0.00    -0.000 C 
BRANCH  10  11
ATOM     11  C   LIG    1        7.144  -0.369  -5.016  0.00  0.00    -0.000 C 
BRANCH  11  12
ATOM     12  C   LIG    1        8.580   0.160  -5.027  0.00  0.00    -0.002 C 
BRANCH  12  13
ATOM     13  C   LIG    1        9.296  -0.333  -6.285  0.00  0.00    -0.018 C 
BRANCH  13  14
ATOM     14  C   LIG    1       10.731   0.196  -6.296  0.00  0.00    -0.076 C 
BRANCH  14  15
ATOM     15  N   LIG    1       11.419  -0.277  -7.505  0.00  0.00    +0.374 N 
ATOM     16  C   LIG    1       11.439  -1.746  -7.513  0.00  0.00    -0.093 C 
ATOM     17  C   LIG    1       12.797   0.231  -7.515  0.00  0.00    -0.093 C 
ATOM     18  C   LIG    1       10.708   0.209  -8.695  0.00  0.00    -0.093 C 
ENDBRANCH  14  15
ENDBRANCH  13  14
ENDBRANCH  12  13
ENDBRANCH  11  12
ENDBRANCH  10  11
ENDBRANCH   1  10
TORSDOF 11
