REMARK  Name = ZINC01509872
REMARK                            x       y       z     vdW  Elec       q    Type
REMARK                         _______ _______ _______ _____ _____    ______ ____
ROOT
ATOM      1  C   LIG    1       -0.525   1.473   0.137  0.00  0.00    +0.046 C 
ATOM      2  C   LIG    1       -0.310  -0.017   0.083  0.00  0.00    -0.024 A 
ATOM      3  C   LIG    1       -0.335  -0.673  -1.135  0.00  0.00    +0.006 A 
ATOM      4  C   LIG    1       -0.138  -2.037  -1.192  0.00  0.00    +0.015 A 
ATOM      5  C   LIG    1        0.087  -2.756  -0.016  0.00  0.00    +0.061 A 
ATOM      6  C   LIG    1        0.111  -2.088   1.210  0.00  0.00    +0.043 A 
ATOM      7  C   LIG    1       -0.082  -0.723   1.251  0.00  0.00    +0.109 A 
ENDROOT
BRANCH   7   8
ATOM      8  S   LIG    1       -0.045   0.123   2.796  0.00  0.00    +0.061 S 
ATOM      9  O   LIG    1        0.130  -0.869   3.799  0.00  0.00    -0.153 OA
ATOM     10  O   LIG    1       -1.149   1.019   2.795  0.00  0.00    -0.153 OA
BRANCH   8  11
ATOM     11  N   LIG    1        1.322   1.057   2.811  0.00  0.00    -0.177 NA
ATOM     12  C   LIG    1        2.610   0.492   3.235  0.00  0.00    +0.109 C 
ATOM     13  C   LIG    1        3.647   0.749   2.137  0.00  0.00    +0.017 C 
ATOM     14  C   LIG    1        3.691   2.246   1.823  0.00  0.00    +0.003 C 
ATOM     15  C   LIG    1        2.322   2.702   1.311  0.00  0.00    +0.017 C 
ATOM     16  C   LIG    1        1.272   2.465   2.394  0.00  0.00    +0.109 C 
ENDBRANCH   8  11
ENDBRANCH   7   8
BRANCH   5  17
ATOM     17  C   LIG    1        0.298  -4.217  -0.069  0.00  0.00    +0.345 C 
ATOM     18  O   LIG    1        0.494  -4.840   0.956  0.00  0.00    -0.245 OA
BRANCH  17  19
ATOM     19  O   LIG    1        0.274  -4.859  -1.253  0.00  0.00    -0.420 OA
BRANCH  19  20
ATOM     20  C   LIG    1        0.577  -6.183  -1.268  0.00  0.00    +0.158 A 
ATOM     21  C   LIG    1        1.852  -6.593  -1.535  0.00  0.00    +0.048 A 
ATOM     22  C   LIG    1        2.181  -7.946  -1.554  0.00  0.00    +0.004 A 
ATOM     23  C   LIG    1        1.240  -8.899  -1.306  0.00  0.00    +0.010 A 
ATOM     24  C   LIG    1       -0.082  -8.517  -1.027  0.00  0.00    +0.004 A 
ATOM     25  C   LIG    1       -1.081  -9.473  -0.766  0.00  0.00    +0.011 A 
ATOM     26  C   LIG    1       -2.342  -9.027  -0.488  0.00  0.00    +0.020 A 
ATOM     27  C   LIG    1       -2.611  -7.660  -0.483  0.00  0.00    +0.111 A 
ATOM     28  N   LIG    1       -1.678  -6.773  -0.732  0.00  0.00    -0.251 NA
ATOM     29  C   LIG    1       -0.423  -7.142  -1.001  0.00  0.00    +0.113 A 
ENDBRANCH  19  20
ENDBRANCH  17  19
ENDBRANCH   5  17
TORSDOF 5
