REMARK  Name = ZINC01544683
REMARK                            x       y       z     vdW  Elec       q    Type
REMARK                         _______ _______ _______ _____ _____    ______ ____
ROOT
ATOM      1  C   LIG    1       -3.748   2.055   0.046  0.00  0.00    +0.063 A 
ATOM      2  C   LIG    1       -2.750   1.138  -0.022  0.00  0.00    +0.151 A 
ATOM      3  C   LIG    1       -1.373   1.601  -0.108  0.00  0.00    +0.032 A 
ATOM      4  C   LIG    1       -0.186   0.832  -0.188  0.00  0.00    +0.016 A 
ATOM      5  C   LIG    1        1.029   1.434  -0.270  0.00  0.00    +0.046 A 
ATOM      6  C   LIG    1        1.155   2.821  -0.273  0.00  0.00    +0.118 A 
ATOM      7  C   LIG    1        0.017   3.608  -0.190  0.00  0.00    +0.061 A 
ATOM      8  C   LIG    1       -1.220   3.006  -0.107  0.00  0.00    +0.027 A 
ATOM      9  S   LIG    1       -2.882   3.613   0.011  0.00  0.00    -0.084 S 
ENDROOT
BRANCH   1  13
ATOM     10  C   LIG    1       -7.933   1.376   0.310  0.00  0.00    +0.120 A 
ATOM     11  C   LIG    1       -7.443   2.675   0.285  0.00  0.00    +0.046 A 
ATOM     12  C   LIG    1       -6.085   2.900   0.199  0.00  0.00    +0.013 A 
ATOM     13  C   LIG    1       -5.203   1.819   0.138  0.00  0.00    -0.007 A 
ATOM     14  C   LIG    1       -5.701   0.515   0.159  0.00  0.00    +0.013 A 
ATOM     15  C   LIG    1       -7.059   0.299   0.249  0.00  0.00    +0.046 A 
BRANCH  10  17
ATOM     16  C   LIG    1       -9.709  -0.202   0.416  0.00  0.00    +0.277 C 
ATOM     17  O   LIG    1       -9.272   1.159   0.395  0.00  0.00    -0.495 OA
ENDBRANCH  10  17
ENDBRANCH   1  13
BRANCH   6  18
ATOM     18  O   LIG    1        2.383   3.398  -0.356  0.00  0.00    -0.507 OA
ATOM     19  H   LIG    1        2.677   3.569  -1.261  0.00  0.00    +0.292 HD
ENDBRANCH   6  18
BRANCH   2  20
ATOM     20  O   LIG    1       -3.033  -0.193  -0.008  0.00  0.00    -0.454 OA
BRANCH  20  21
ATOM     21  C   LIG    1       -3.088  -0.821   1.196  0.00  0.00    +0.129 A 
ATOM     22  C   LIG    1       -2.855  -0.108   2.362  0.00  0.00    +0.050 A 
ATOM     23  C   LIG    1       -2.915  -0.746   3.586  0.00  0.00    +0.049 A 
ATOM     24  C   LIG    1       -3.200  -2.102   3.648  0.00  0.00    +0.121 A 
ATOM     25  C   LIG    1       -3.429  -2.817   2.481  0.00  0.00    +0.049 A 
ATOM     26  C   LIG    1       -3.373  -2.178   1.258  0.00  0.00    +0.050 A 
BRANCH  24  27
ATOM     27  O   LIG    1       -3.256  -2.731   4.852  0.00  0.00    -0.494 OA
BRANCH  27  28
ATOM     28  C   LIG    1       -3.010  -1.933   6.012  0.00  0.00    +0.210 C 
BRANCH  28  29
ATOM     29  C   LIG    1       -3.115  -2.808   7.263  0.00  0.00    -0.037 C 
BRANCH  29  30
ATOM     30  N   LIG    1       -2.042  -3.822   7.221  0.00  0.00    +0.382 N 
ATOM     31  H   LIG    1       -1.965  -4.187   6.264  0.00  0.00    -0.082 HD
ATOM     32  C   LIG    1       -0.752  -3.210   7.605  0.00  0.00    -0.079 C 
ATOM     33  C   LIG    1        0.360  -4.249   7.439  0.00  0.00    -0.019 C 
ATOM     34  C   LIG    1        0.069  -5.449   8.344  0.00  0.00    -0.004 C 
ATOM     35  C   LIG    1       -1.302  -6.028   7.985  0.00  0.00    -0.019 C 
ATOM     36  C   LIG    1       -2.366  -4.938   8.135  0.00  0.00    -0.079 C 
ENDBRANCH  29  30
ENDBRANCH  28  29
ENDBRANCH  27  28
ENDBRANCH  24  27
ENDBRANCH  20  21
ENDBRANCH   2  20
TORSDOF 9
