REMARK  Name = ZINC01550477
REMARK                            x       y       z     vdW  Elec       q    Type
REMARK                         _______ _______ _______ _____ _____    ______ ____
ROOT
ATOM      1  C   LIG    1       -1.181   3.145  -0.644  0.00  0.00    +0.018 A 
ATOM      2  C   LIG    1       -1.142   1.741  -0.638  0.00  0.00    +0.013 A 
ATOM      3  C   LIG    1        0.024   1.076  -0.418  0.00  0.00    +0.029 A 
ATOM      4  C   LIG    1        1.210   1.795  -0.204  0.00  0.00    +0.076 A 
ATOM      5  C   LIG    1        1.182   3.212  -0.214  0.00  0.00    +0.041 A 
ATOM      6  C   LIG    1        2.398   3.907   0.005  0.00  0.00    +0.134 A 
ATOM      7  N   LIG    1        3.499   3.195   0.207  0.00  0.00    -0.220 NA
ATOM      8  C   LIG    1        3.475   1.872   0.208  0.00  0.00    +0.223 A 
ATOM      9  N   LIG    1        2.380   1.176   0.011  0.00  0.00    -0.235 NA
ATOM     10  C   LIG    1       -0.023   3.882  -0.436  0.00  0.00    +0.025 A 
ENDROOT
BRANCH   1  14
ATOM     11  C   LIG    1       -3.934   5.449  -1.153  0.00  0.00    +0.089 A 
ATOM     12  C   LIG    1       -4.604   4.286  -1.271  0.00  0.00    +0.043 A 
ATOM     13  C   LIG    1       -3.666   3.249  -1.097  0.00  0.00    +0.050 A 
ATOM     14  C   LIG    1       -2.462   3.843  -0.880  0.00  0.00    +0.135 A 
ATOM     15  O   LIG    1       -2.641   5.177  -0.910  0.00  0.00    -0.462 OA
BRANCH  11  16
ATOM     16  C   LIG    1       -4.537   6.825  -1.266  0.00  0.00    -0.007 C 
BRANCH  16  17
ATOM     17  N   LIG    1       -4.979   7.271   0.069  0.00  0.00    +0.385 N 
ATOM     18  H   LIG    1       -4.172   7.295   0.703  0.00  0.00    -0.085 HD
ATOM     19  H   LIG    1       -5.679   6.612   0.431  0.00  0.00    -0.085 HD
BRANCH  17  20
ATOM     20  C   LIG    1       -5.575   8.618  -0.012  0.00  0.00    -0.059 C 
BRANCH  20  21
ATOM     21  C   LIG    1       -6.023   9.053   1.384  0.00  0.00    +0.146 C 
BRANCH  21  23
ATOM     22  C   LIG    1       -7.216  11.037   3.019  0.00  0.00    +0.193 C 
ATOM     23  S   LIG    1       -6.757  10.709   1.296  0.00  0.00    -0.036 S 
ATOM     24  O   LIG    1       -7.946  10.633   0.520  0.00  0.00    -0.175 OA
ATOM     25  O   LIG    1       -5.743  11.630   0.917  0.00  0.00    -0.175 OA
ENDBRANCH  21  23
ENDBRANCH  20  21
ENDBRANCH  17  20
ENDBRANCH  16  17
ENDBRANCH  11  16
ENDBRANCH   1  14
BRANCH   6  26
ATOM     26  N   LIG    1        2.435   5.285   0.007  0.00  0.00    -0.299 N 
ATOM     27  H   LIG    1        1.611   5.793  -0.058  0.00  0.00    +0.154 HD
BRANCH  26  28
ATOM     28  C   LIG    1        3.662   5.952   0.104  0.00  0.00    +0.034 A 
ATOM     29  C   LIG    1        3.749   7.150   0.802  0.00  0.00    +0.027 A 
ATOM     30  C   LIG    1        4.960   7.805   0.902  0.00  0.00    +0.049 A 
ATOM     31  C   LIG    1        6.089   7.273   0.296  0.00  0.00    +0.139 A 
ATOM     32  C   LIG    1        6.003   6.079  -0.406  0.00  0.00    +0.084 A 
ATOM     33 CL   LIG    1        7.416   5.413  -1.164  0.00  0.00    -0.080 Cl
ATOM     34  C   LIG    1        4.792   5.419  -0.502  0.00  0.00    +0.047 A 
BRANCH  31  35
ATOM     35  O   LIG    1        7.280   7.921   0.391  0.00  0.00    -0.486 OA
BRANCH  35  36
ATOM     36  C   LIG    1        7.296   9.145   1.128  0.00  0.00    +0.264 C 
BRANCH  36  37
ATOM     37  C   LIG    1        8.691   9.716   1.125  0.00  0.00    -0.008 A 
ATOM     38  C   LIG    1        9.080  10.585   0.121  0.00  0.00    +0.007 A 
ATOM     39  C   LIG    1       10.358  11.109   0.117  0.00  0.00    +0.003 A 
ATOM     40  C   LIG    1       11.251  10.765   1.115  0.00  0.00    +0.038 A 
ATOM     41  C   LIG    1       10.863   9.896   2.120  0.00  0.00    +0.124 A 
ATOM     42  F   LIG    1       11.734   9.559   3.096  0.00  0.00    -0.205 F 
ATOM     43  C   LIG    1        9.579   9.375   2.127  0.00  0.00    +0.045 A 
ENDBRANCH  36  37
ENDBRANCH  35  36
ENDBRANCH  31  35
ENDBRANCH  26  28
ENDBRANCH   6  26
TORSDOF 11
