REMARK  Name = ZINC01440286
REMARK                            x       y       z     vdW  Elec       q    Type
REMARK                         _______ _______ _______ _____ _____    ______ ____
ROOT
ATOM      1  C   LIG    1        1.104   6.119  -0.695  0.00  0.00    +0.250 C 
ATOM      2  N   LIG    1       -0.024   5.551  -1.167  0.00  0.00    -0.281 N 
ATOM      3  H   LIG    1       -0.841   6.071  -1.224  0.00  0.00    +0.155 HD
ATOM      4  O   LIG    1        2.150   5.500  -0.712  0.00  0.00    -0.270 OA
ENDROOT
BRANCH   1   9
ATOM      5  C   LIG    1       -0.176   9.446   0.477  0.00  0.00    +0.001 A 
ATOM      6  C   LIG    1        1.000  10.074   0.856  0.00  0.00    +0.002 A 
ATOM      7  C   LIG    1        2.211   9.424   0.733  0.00  0.00    +0.023 A 
ATOM      8  C   LIG    1        2.257   8.130   0.228  0.00  0.00    +0.037 A 
ATOM      9  C   LIG    1        1.068   7.491  -0.156  0.00  0.00    +0.058 A 
ATOM     10  C   LIG    1       -0.149   8.166  -0.031  0.00  0.00    +0.015 A 
BRANCH   8  11
ATOM     11  N   LIG    1        3.475   7.473   0.103  0.00  0.00    -0.357 N 
ATOM     12  H   LIG    1        4.295   7.984   0.020  0.00  0.00    +0.142 HD
ATOM     13  H   LIG    1        3.504   6.504   0.097  0.00  0.00    +0.142 HD
ENDBRANCH   8  11
ENDBRANCH   1   9
BRANCH   2  14
ATOM     14  C   LIG    1       -0.015   4.214  -1.575  0.00  0.00    +0.034 A 
ATOM     15  C   LIG    1       -0.827   3.800  -2.623  0.00  0.00    +0.023 A 
ATOM     16  C   LIG    1       -0.816   2.478  -3.023  0.00  0.00    +0.002 A 
ATOM     17  C   LIG    1        0.001   1.567  -2.380  0.00  0.00    +0.012 A 
ATOM     18  C   LIG    1        0.806   1.974  -1.333  0.00  0.00    +0.057 A 
ATOM     19  C   LIG    1        0.805   3.296  -0.932  0.00  0.00    +0.035 A 
BRANCH  18  20
ATOM     20  C   LIG    1        1.691   0.975  -0.631  0.00  0.00    +0.417 C 
ATOM     21  F   LIG    1        1.342   0.914   0.722  0.00  0.00    -0.166 F 
ATOM     22  F   LIG    1        3.027   1.371  -0.751  0.00  0.00    -0.166 F 
ATOM     23  F   LIG    1        1.524  -0.286  -1.214  0.00  0.00    -0.166 F 
ENDBRANCH  18  20
ENDBRANCH   2  14
TORSDOF 4
