REMARK  Name = ZINC01544408
REMARK                            x       y       z     vdW  Elec       q    Type
REMARK                         _______ _______ _______ _____ _____    ______ ____
ROOT
ATOM      1  O   LIG    1        4.077   0.160  -5.347  0.00  0.00    -0.492 OA
ENDROOT
BRANCH   1   2
ATOM      2  C   LIG    1        3.694   0.374  -4.061  0.00  0.00    +0.121 A 
ATOM      3  C   LIG    1        4.085   1.532  -3.403  0.00  0.00    +0.046 A 
ATOM      4  C   LIG    1        3.694   1.747  -2.095  0.00  0.00    +0.007 A 
ATOM      5  C   LIG    1        2.915   0.810  -1.442  0.00  0.00    -0.043 A 
ATOM      6  C   LIG    1        2.529  -0.347  -2.094  0.00  0.00    +0.007 A 
ATOM      7  C   LIG    1        2.913  -0.565  -3.403  0.00  0.00    +0.046 A 
BRANCH   5   8
ATOM      8  C   LIG    1        2.490   1.048  -0.016  0.00  0.00    +0.070 C 
BRANCH   8   9
ATOM      9  C   LIG    1        1.175   1.783   0.000  0.00  0.00    -0.043 A 
ATOM     10  C   LIG    1       -0.013   1.076   0.008  0.00  0.00    +0.004 A 
ATOM     11  C   LIG    1       -1.219   1.751   0.017  0.00  0.00    +0.000 A 
ATOM     12  C   LIG    1       -1.238   3.133   0.030  0.00  0.00    +0.000 A 
ATOM     13  C   LIG    1       -0.050   3.840   0.022  0.00  0.00    +0.000 A 
ATOM     14  C   LIG    1        1.156   3.165   0.008  0.00  0.00    +0.004 A 
ENDBRANCH   8   9
ENDBRANCH   5   8
ENDBRANCH   1   2
BRANCH   1  15
ATOM     15  C   LIG    1        3.639  -1.054  -5.961  0.00  0.00    +0.227 C 
BRANCH  15  16
ATOM     16  C   LIG    1        4.164  -1.118  -7.396  0.00  0.00    +0.022 C 
BRANCH  16  17
ATOM     17  C   LIG    1        3.694  -2.417  -8.054  0.00  0.00    -0.076 C 
BRANCH  17  19
ATOM     18  C   LIG    1        3.593  -1.428 -10.262  0.00  0.00    -0.096 C 
ATOM     19  N   LIG    1        4.227  -2.474  -9.431  0.00  0.00    +0.378 N 
ATOM     20  H   LIG    1        5.240  -2.310  -9.404  0.00  0.00    -0.082 HD
BRANCH  19  21
ATOM     21  C   LIG    1        3.973  -3.807 -10.017  0.00  0.00    -0.068 C 
BRANCH  21  22
ATOM     22  C   LIG    1        4.724  -3.914 -11.345  0.00  0.00    +0.102 C 
BRANCH  22  23
ATOM     23  C   LIG    1        4.492  -5.277 -11.945  0.00  0.00    +0.303 C 
ATOM     24  O   LIG    1        3.797  -6.080 -11.369  0.00  0.00    -0.251 OA
BRANCH  23  25
ATOM     25  O   LIG    1        5.057  -5.599 -13.119  0.00  0.00    -0.481 OA
ATOM     26  H   LIG    1        5.596  -4.976 -13.566  0.00  0.00    +0.295 HD
ENDBRANCH  23  25
ENDBRANCH  22  23
ENDBRANCH  21  22
ENDBRANCH  19  21
ENDBRANCH  17  19
ENDBRANCH  16  17
ENDBRANCH  15  16
ENDBRANCH   1  15
TORSDOF 11
