REMARK  Name = ZINC01643992
REMARK                            x       y       z     vdW  Elec       q    Type
REMARK                         _______ _______ _______ _____ _____    ______ ____
ROOT
ATOM      1  C   LIG    1       -0.013   1.086   0.008  0.00  0.00    +0.007 C 
ATOM      2  C   LIG    1       -0.729   1.579   1.267  0.00  0.00    -0.008 C 
ATOM      3  C   LIG    1       -0.750   3.109   1.275  0.00  0.00    +0.007 C 
ATOM      4  C   LIG    1       -1.490   3.616   0.036  0.00  0.00    -0.008 C 
ATOM      5  C   LIG    1       -0.773   3.123  -1.223  0.00  0.00    +0.007 C 
ATOM      6  C   LIG    1       -2.925   3.086   0.047  0.00  0.00    +0.029 C 
ATOM      7  C   LIG    1       -2.904   1.556   0.038  0.00  0.00    +0.037 C 
ATOM      8  C   LIG    1       -2.188   1.063  -1.221  0.00  0.00    +0.029 C 
ATOM      9  C   LIG    1       -2.164   1.050   1.278  0.00  0.00    +0.029 C 
ATOM     10  C   LIG    1       -0.753   1.593  -1.232  0.00  0.00    -0.008 C 
ENDROOT
BRANCH   7  11
ATOM     11  N   LIG    1       -4.279   1.049   0.049  0.00  0.00    -0.294 N 
ATOM     12  H   LIG    1       -4.595   0.491  -0.679  0.00  0.00    +0.151 HD
ATOM     13  C   LIG    1       -5.103   1.358   1.069  0.00  0.00    +0.300 C 
ATOM     14  N   LIG    1       -6.368   0.892   1.079  0.00  0.00    -0.297 N 
ATOM     15  H   LIG    1       -6.684   0.334   0.351  0.00  0.00    +0.150 HD
ATOM     16  O   LIG    1       -4.706   2.058   1.981  0.00  0.00    -0.253 OA
BRANCH  14  17
ATOM     17  C   LIG    1       -7.264   1.227   2.188  0.00  0.00    +0.133 C 
BRANCH  17  18
ATOM     18  C   LIG    1       -8.629   0.577   1.955  0.00  0.00    +0.174 C 
BRANCH  18  19
ATOM     19  O   LIG    1       -8.492  -0.845   1.996  0.00  0.00    -0.393 OA
ATOM     20  H   LIG    1       -9.321  -1.324   1.856  0.00  0.00    +0.209 HD
ENDBRANCH  18  19
ENDBRANCH  17  18
ENDBRANCH  14  17
ENDBRANCH   7  11
TORSDOF 4
