REMARK  Name = ZINC01433196
REMARK                            x       y       z     vdW  Elec       q    Type
REMARK                         _______ _______ _______ _____ _____    ______ ____
ROOT
ATOM      1  C   LIG    1       -0.013   1.076   0.008  0.00  0.00    +0.000 A 
ATOM      2  C   LIG    1        1.175   1.783   0.000  0.00  0.00    +0.000 A 
ATOM      3  C   LIG    1        1.160   3.166   0.010  0.00  0.00    +0.002 A 
ATOM      4  C   LIG    1       -0.050   3.836   0.026  0.00  0.00    -0.061 A 
ATOM      5  C   LIG    1       -1.230   3.133   0.030  0.00  0.00    -0.043 A 
ATOM      6  C   LIG    1       -2.548   3.878   0.043  0.00  0.00    +0.070 C 
ATOM      7  C   LIG    1       -2.718   4.571  -1.313  0.00  0.00    +0.153 C 
ATOM      8  F   LIG    1       -4.080   4.772  -1.561  0.00  0.00    -0.247 F 
ATOM      9  C   LIG    1       -2.006   5.909  -1.324  0.00  0.00    -0.044 C 
ATOM     10  N   LIG    1       -0.541   5.830  -1.280  0.00  0.00    +0.384 N 
ATOM     11  H   LIG    1       -0.220   5.180  -2.007  0.00  0.00    -0.085 HD
ATOM     12  H   LIG    1       -0.150   6.762  -1.457  0.00  0.00    -0.085 HD
ATOM     13  C   LIG    1       -0.069   5.350   0.040  0.00  0.00    -0.046 C 
ATOM     14  C   LIG    1       -1.220   1.751   0.017  0.00  0.00    +0.004 A 
ENDROOT
TORSDOF 0
