REMARK  Name = ZINC01568870
REMARK                            x       y       z     vdW  Elec       q    Type
REMARK                         _______ _______ _______ _____ _____    ______ ____
ROOT
ATOM      1  C1* LIG    1        1.236  -2.115  -0.021  0.00  0.00    +0.255 C 
ATOM      2  C2* LIG    1        1.883  -2.628  -1.332  0.00  0.00    +0.195 C 
ATOM      3  C3* LIG    1        2.403  -4.020  -0.878  0.00  0.00    +0.178 C 
ATOM      4  C4* LIG    1        2.800  -3.759   0.591  0.00  0.00    +0.177 C 
ATOM      5  O4* LIG    1        2.085  -2.597   1.033  0.00  0.00    -0.346 OA
ENDROOT
BRANCH   1  10
ATOM      6  C   LIG    1       -0.016   1.356   0.009  0.00  0.00    +0.038 A 
ATOM      7  C   LIG    1        1.196   2.052   0.002  0.00  0.00    +0.118 A 
ATOM      8  N   LIG    1        2.333   1.387  -0.013  0.00  0.00    -0.201 NA
ATOM      9  C   LIG    1        2.345   0.052  -0.020  0.00  0.00    +0.350 A 
ATOM     10  N   LIG    1        1.197  -0.650  -0.012  0.00  0.00    -0.270 N 
ATOM     11  O   LIG    1        3.412  -0.539  -0.033  0.00  0.00    -0.244 OA
ATOM     12  C   LIG    1        0.002  -0.004   0.002  0.00  0.00    +0.095 A 
ENDBRANCH   1  10
BRANCH   2  13
ATOM     13  O2* LIG    1        0.910  -2.755  -2.371  0.00  0.00    -0.385 OA
ATOM     14  H2* LIG    1        1.270  -3.073  -3.210  0.00  0.00    +0.210 HD
ENDBRANCH   2  13
BRANCH   3  15
ATOM     15  O3* LIG    1        1.369  -5.002  -0.963  0.00  0.00    -0.386 OA
ATOM     16  H3* LIG    1        1.644  -5.888  -0.691  0.00  0.00    +0.210 HD
ENDBRANCH   3  15
BRANCH   4  17
ATOM     17  C5* LIG    1        2.417  -4.963   1.453  0.00  0.00    +0.190 C 
BRANCH  17  18
ATOM     18  O5* LIG    1        2.891  -4.763   2.787  0.00  0.00    -0.392 OA
ATOM     19  H5* LIG    1        2.683  -5.490   3.391  0.00  0.00    +0.210 HD
ENDBRANCH  17  18
ENDBRANCH   4  17
TORSDOF 5
