REMARK  Name = ZINC01530716
REMARK                            x       y       z     vdW  Elec       q    Type
REMARK                         _______ _______ _______ _____ _____    ______ ____
ROOT
ATOM      1  N   LIG    1       -0.803  -3.594   2.129  0.00  0.00    -0.313 N 
ATOM      2  H   LIG    1       -1.214  -4.215   1.507  0.00  0.00    +0.149 HD
ATOM      3  C   LIG    1       -0.273  -4.048   3.282  0.00  0.00    +0.248 C 
ATOM      4  O   LIG    1        0.243  -3.270   4.062  0.00  0.00    -0.270 OA
ENDROOT
BRANCH   3   5
ATOM      5  C   LIG    1       -0.320  -5.485   3.599  0.00  0.00    +0.080 A 
ATOM      6  C   LIG    1       -0.908  -6.383   2.701  0.00  0.00    +0.038 A 
ATOM      7  C   LIG    1       -0.951  -7.715   2.995  0.00  0.00    +0.062 A 
ATOM      8 CL   LIG    1       -1.683  -8.823   1.877  0.00  0.00    -0.082 Cl
ATOM      9  C   LIG    1       -0.411  -8.191   4.190  0.00  0.00    +0.047 A 
ATOM     10  C   LIG    1        0.176  -7.311   5.091  0.00  0.00    +0.070 A 
ATOM     11  C   LIG    1        0.231  -5.959   4.800  0.00  0.00    +0.134 A 
BRANCH   9  12
ATOM     12  N   LIG    1       -0.460  -9.550   4.480  0.00  0.00    -0.357 N 
ATOM     13  H   LIG    1       -0.084  -9.883   5.311  0.00  0.00    +0.142 HD
ATOM     14  H   LIG    1       -0.869 -10.166   3.852  0.00  0.00    +0.142 HD
ENDBRANCH   9  12
BRANCH  11  15
ATOM     15  O   LIG    1        0.808  -5.096   5.673  0.00  0.00    -0.494 OA
ATOM     16  C   LIG    1        1.347  -5.653   6.874  0.00  0.00    +0.277 C 
ENDBRANCH  11  15
ENDBRANCH   3   5
BRANCH   1  17
ATOM     17  C   LIG    1       -0.756  -2.164   1.814  0.00  0.00    +0.086 C 
BRANCH  17  18
ATOM     18  C   LIG    1       -1.421  -1.919   0.458  0.00  0.00    -0.060 C 
BRANCH  18  19
ATOM     19  N   LIG    1       -1.374  -0.485   0.142  0.00  0.00    +0.380 N 
ATOM     20  H   LIG    1       -1.792   0.039   0.895  0.00  0.00    -0.082 HD
BRANCH  19  22
ATOM     21  C   LIG    1        0.082   1.451  -0.216  0.00  0.00    -0.017 C 
ATOM     22  C   LIG    1        0.024  -0.066  -0.029  0.00  0.00    -0.082 C 
ENDBRANCH  19  22
BRANCH  19  23
ATOM     23  C   LIG    1       -2.116  -0.233  -1.101  0.00  0.00    -0.082 C 
ATOM     24  C   LIG    1       -3.600  -0.533  -0.879  0.00  0.00    -0.017 C 
ENDBRANCH  19  23
ENDBRANCH  18  19
ENDBRANCH  17  18
ENDBRANCH   1  17
TORSDOF 8
