REMARK  Name = ZINC01515385
REMARK                            x       y       z     vdW  Elec       q    Type
REMARK                         _______ _______ _______ _____ _____    ______ ____
ROOT
ATOM      1  C   LIG    1        1.848   1.832  -1.187  0.00  0.00    +0.124 A 
ATOM      2  C   LIG    1        3.131   2.425  -1.215  0.00  0.00    +0.179 A 
ATOM      3  N   LIG    1        3.684   2.668  -0.003  0.00  0.00    -0.176 NA
ATOM      4  C   LIG    1        3.053   2.366   1.110  0.00  0.00    +0.298 A 
ATOM      5  N   LIG    1        1.848   1.816   1.140  0.00  0.00    -0.276 N 
ATOM      6  H   LIG    1        1.369   1.595   2.105  0.00  0.00    +0.173 HD
ATOM      7  N   LIG    1        3.635   2.670  -2.429  0.00  0.00    -0.205 NA
ATOM      8  C   LIG    1        2.985   2.380  -3.539  0.00  0.00    +0.159 A 
ATOM      9  C   LIG    1        1.220   1.531  -0.001  0.00  0.00    +0.270 A 
ATOM     10  O   LIG    1       -0.011   0.963   0.007  0.00  0.00    -0.266 OA
ATOM     11  S   LIG    1        1.466   1.673  -2.913  0.00  0.00    -0.046 S 
ENDROOT
BRANCH   8  12
ATOM     12  N   LIG    1        3.375   2.574  -4.846  0.00  0.00    -0.337 N 
ATOM     13  H   LIG    1        4.352   3.027  -5.067  0.00  0.00    +0.144 HD
ATOM     14  H   LIG    1        2.709   2.274  -5.669  0.00  0.00    +0.144 HD
ENDBRANCH   8  12
BRANCH   4  15
ATOM     15  O   LIG    1        3.665   2.637   2.288  0.00  0.00    -0.480 OA
ATOM     16  H   LIG    1        4.518   3.026   2.295  0.00  0.00    +0.295 HD
ENDBRANCH   4  15
TORSDOF 2
