REMARK  Name = ZINC01666576
REMARK                            x       y       z     vdW  Elec       q    Type
REMARK                         _______ _______ _______ _____ _____    ______ ____
ROOT
ATOM      1  C   LIG    1       -0.669   1.467   1.065  0.00  0.00    +0.093 C 
ATOM      2  C   LIG    1       -0.385   0.075   0.497  0.00  0.00    +0.199 C 
ATOM      3  C   LIG    1       -0.157   0.171  -1.013  0.00  0.00    +0.093 C 
ATOM      4  N   LIG    1       -1.522  -0.812   0.771  0.00  0.00    -0.243 N 
ATOM      5  H   LIG    1       -2.422  -0.452   0.786  0.00  0.00    +0.261 HD
ATOM      6  C   LIG    1       -1.327  -2.084   0.996  0.00  0.00    +0.384 C 
ATOM      7  N   LIG    1       -0.096  -2.622   1.030  0.00  0.00    -0.012 NA
ATOM      8  C   LIG    1        0.978  -1.855   1.091  0.00  0.00    +0.383 C 
ATOM      9  N   LIG    1        0.809  -0.490   1.144  0.00  0.00    -0.157 N 
ENDROOT
BRANCH   9  10
ATOM     10  C   LIG    1        1.739   0.330   1.791  0.00  0.00    +0.099 A 
ATOM     11  C   LIG    1        1.672   0.508   3.167  0.00  0.00    +0.040 A 
ATOM     12  C   LIG    1        2.591   1.318   3.803  0.00  0.00    +0.005 A 
ATOM     13  C   LIG    1        3.580   1.952   3.072  0.00  0.00    +0.020 A 
ATOM     14  C   LIG    1        3.650   1.777   1.701  0.00  0.00    +0.044 A 
ATOM     15 CL   LIG    1        4.892   2.575   0.787  0.00  0.00    -0.083 Cl
ATOM     16  C   LIG    1        2.736   0.962   1.060  0.00  0.00    +0.060 A 
ENDBRANCH   9  10
BRANCH   6  17
ATOM     17  N   LIG    1       -2.420  -2.902   1.204  0.00  0.00    -0.249 N 
ATOM     18  H   LIG    1       -2.292  -3.849   1.372  0.00  0.00    +0.241 HD
ATOM     19  H   LIG    1       -3.315  -2.529   1.183  0.00  0.00    +0.241 HD
ENDBRANCH   6  17
BRANCH   8  20
ATOM     20  N   LIG    1        2.229  -2.405   1.100  0.00  0.00    -0.251 N 
ATOM     21  H   LIG    1        3.008  -1.836   1.205  0.00  0.00    +0.241 HD
ATOM     22  H   LIG    1        2.338  -3.364   1.001  0.00  0.00    +0.241 HD
ENDBRANCH   8  20
TORSDOF 3
