REMARK  Name = ZINC01592591
REMARK                            x       y       z     vdW  Elec       q    Type
REMARK                         _______ _______ _______ _____ _____    ______ ____
ROOT
ATOM      1  S   LIG    1        1.456   2.085  -0.001  0.00  0.00    -0.090 S 
ENDROOT
BRANCH   1   2
ATOM      2  C   LIG    1       -0.014   1.209   0.009  0.00  0.00    +0.189 C 
ATOM      3  O   LIG    1        0.002  -0.004   0.002  0.00  0.00    -0.285 OA
BRANCH   2   4
ATOM      4  C   LIG    1       -1.330   1.945   0.019  0.00  0.00    +0.086 C 
BRANCH   4   6
ATOM      5  C   LIG    1       -3.814   1.682   0.029  0.00  0.00    +0.004 C 
ATOM      6  C   LIG    1       -2.479   0.935   0.019  0.00  0.00    +0.005 C 
ENDBRANCH   4   6
ENDBRANCH   2   4
ENDBRANCH   1   2
BRANCH   1   7
ATOM      7  C   LIG    1        2.639   0.715  -0.019  0.00  0.00    +0.059 C 
BRANCH   7   8
ATOM      8  C   LIG    1        4.064   1.271  -0.030  0.00  0.00    -0.065 C 
BRANCH   8   9
ATOM      9  N   LIG    1        5.023   0.158  -0.045  0.00  0.00    +0.375 N 
ATOM     10  C   LIG    1        4.830  -0.671   1.152  0.00  0.00    -0.093 C 
ATOM     11  C   LIG    1        6.392   0.692  -0.055  0.00  0.00    -0.093 C 
ATOM     12  C   LIG    1        4.807  -0.658  -1.247  0.00  0.00    -0.093 C 
ENDBRANCH   8   9
ENDBRANCH   7   8
ENDBRANCH   1   7
TORSDOF 6
