REMARK  Name = ZINC01546077
REMARK                            x       y       z     vdW  Elec       q    Type
REMARK                         _______ _______ _______ _____ _____    ______ ____
ROOT
ATOM      1  N   LIG    1        4.214  -2.822  -4.186  0.00  0.00    -0.194 N 
ATOM      2  H   LIG    1        4.545  -2.523  -3.308  0.00  0.00    +0.176 HD
ENDROOT
BRANCH   1   3
ATOM      3  C   LIG    1        5.082  -3.417  -5.087  0.00  0.00    +0.178 A 
ATOM      4  N   LIG    1        6.371  -3.675  -4.959  0.00  0.00    -0.224 NA
ATOM      5  C   LIG    1        7.056  -4.260  -5.939  0.00  0.00    +0.080 A 
ATOM      6  C   LIG    1        6.412  -4.598  -7.096  0.00  0.00    +0.077 A 
ATOM      7  S   LIG    1        4.752  -4.045  -6.728  0.00  0.00    -0.059 S 
BRANCH   5   8
ATOM      8  C   LIG    1        8.503  -4.542  -5.777  0.00  0.00    +0.003 A 
ATOM      9  C   LIG    1        9.217  -5.149  -6.809  0.00  0.00    +0.010 A 
ATOM     10  C   LIG    1       10.563  -5.409  -6.653  0.00  0.00    +0.003 A 
ATOM     11  C   LIG    1       11.204  -5.068  -5.475  0.00  0.00    +0.032 A 
ATOM     12  C   LIG    1       10.501  -4.466  -4.448  0.00  0.00    +0.122 A 
ATOM     13  C   LIG    1        9.155  -4.196  -4.595  0.00  0.00    +0.042 A 
BRANCH  12  14
ATOM     14  N   LIG    1       11.193  -4.104  -3.191  0.00  0.00    +0.006 N 
ATOM     15  O   LIG    1       12.373  -4.336  -3.062  0.00  0.00    -0.130 OA
BRANCH  14  16
ATOM     16  O   LIG    1       10.579  -3.578  -2.292  0.00  0.00    -0.396 OA
ATOM     17  H   LIG    1        9.665  -3.398  -2.391  0.00  0.00    +0.329 HD
ENDBRANCH  14  16
ENDBRANCH  12  14
ENDBRANCH   5   8
ENDBRANCH   1   3
BRANCH   1  18
ATOM     18  S   LIG    1        2.621  -2.613  -4.585  0.00  0.00    +0.074 S 
ATOM     19  O   LIG    1        2.589  -1.678  -5.654  0.00  0.00    -0.150 OA
ATOM     20  O   LIG    1        2.056  -3.913  -4.693  0.00  0.00    -0.150 OA
BRANCH  18  24
ATOM     21  C   LIG    1        0.606  -0.608  -1.056  0.00  0.00    +0.162 A 
ATOM     22  C   LIG    1        1.173   0.159  -2.062  0.00  0.00    +0.051 A 
ATOM     23  C   LIG    1        1.787  -0.456  -3.137  0.00  0.00    +0.032 A 
ATOM     24  C   LIG    1        1.837  -1.836  -3.212  0.00  0.00    +0.112 A 
ATOM     25  C   LIG    1        1.273  -2.606  -2.212  0.00  0.00    +0.078 A 
ATOM     26  C   LIG    1        0.662  -1.996  -1.129  0.00  0.00    +0.163 A 
BRANCH  21  28
ATOM     27  C   LIG    1       -0.017   1.425   0.010  0.00  0.00    +0.277 C 
ATOM     28  O   LIG    1        0.002  -0.004   0.002  0.00  0.00    -0.491 OA
ENDBRANCH  21  28
BRANCH  26  29
ATOM     29  O   LIG    1        0.112  -2.753  -0.142  0.00  0.00    -0.491 OA
ATOM     30  C   LIG    1        0.206  -4.171  -0.283  0.00  0.00    +0.277 C 
ENDBRANCH  26  29
ENDBRANCH  18  24
ENDBRANCH   1  18
TORSDOF 8
