REMARK  Name = ZINC01487796
REMARK                            x       y       z     vdW  Elec       q    Type
REMARK                         _______ _______ _______ _____ _____    ______ ____
ROOT
ATOM      1  C   LIG    1       -1.186  -2.064  -0.100  0.00  0.00    +0.248 C 
ATOM      2  N   LIG    1       -1.201  -0.720   0.009  0.00  0.00    -0.281 N 
ATOM      3  H   LIG    1       -2.045  -0.249   0.087  0.00  0.00    +0.155 HD
ATOM      4  O   LIG    1       -0.127  -2.661  -0.113  0.00  0.00    -0.270 OA
ENDROOT
BRANCH   1   8
ATOM      5  C   LIG    1       -4.841  -4.212  -0.398  0.00  0.00    -0.018 A 
ATOM      6  C   LIG    1       -3.626  -4.898  -0.413  0.00  0.00    +0.009 A 
ATOM      7  C   LIG    1       -2.442  -4.203  -0.317  0.00  0.00    +0.013 A 
ATOM      8  C   LIG    1       -2.457  -2.811  -0.204  0.00  0.00    +0.037 A 
ATOM      9  C   LIG    1       -3.674  -2.125  -0.183  0.00  0.00    +0.013 A 
ATOM     10  C   LIG    1       -4.857  -2.822  -0.285  0.00  0.00    +0.009 A 
BRANCH   5  17
ATOM     11  C   LIG    1       -6.954  -3.702   1.506  0.00  0.00    +0.044 C 
ATOM     12  C   LIG    1       -7.142  -4.722   0.412  0.00  0.00    -0.042 A 
ATOM     13  C   LIG    1       -8.327  -5.417   0.316  0.00  0.00    +0.017 A 
ATOM     14  C   LIG    1       -8.501  -6.362  -0.698  0.00  0.00    +0.037 A 
ATOM     15  C   LIG    1       -7.473  -6.602  -1.613  0.00  0.00    +0.013 A 
ATOM     16  C   LIG    1       -6.291  -5.902  -1.518  0.00  0.00    +0.009 A 
ATOM     17  C   LIG    1       -6.116  -4.961  -0.502  0.00  0.00    -0.015 A 
BRANCH  14  18
ATOM     18  C   LIG    1       -9.772  -7.109  -0.802  0.00  0.00    +0.242 C 
ATOM     19  N   LIG    1       -9.940  -8.021  -1.780  0.00  0.00    -0.325 N 
ATOM     20  H   LIG    1      -10.774  -8.511  -1.848  0.00  0.00    +0.145 HD
ATOM     21  H   LIG    1       -9.226  -8.188  -2.415  0.00  0.00    +0.145 HD
ATOM     22  O   LIG    1      -10.666  -6.900  -0.006  0.00  0.00    -0.270 OA
ENDBRANCH  14  18
ENDBRANCH   5  17
ENDBRANCH   1   8
BRANCH   2  23
ATOM     23  C   LIG    1        0.003  -0.005   0.010  0.00  0.00    +0.036 A 
ATOM     24  C   LIG    1        1.133  -0.548   0.607  0.00  0.00    +0.027 A 
ATOM     25  C   LIG    1        2.322   0.157   0.609  0.00  0.00    +0.049 A 
ATOM     26  C   LIG    1        2.390   1.406   0.015  0.00  0.00    +0.141 A 
ATOM     27  C   LIG    1        1.258   1.954  -0.585  0.00  0.00    +0.074 A 
ATOM     28  C   LIG    1        0.066   1.247  -0.587  0.00  0.00    +0.050 A 
BRANCH  27  29
ATOM     29  N   LIG    1        1.325   3.217  -1.185  0.00  0.00    -0.331 N 
ATOM     30  C   LIG    1        0.453   4.176  -0.493  0.00  0.00    +0.086 C 
ATOM     31  C   LIG    1        0.615   5.559  -1.128  0.00  0.00    -0.060 C 
ATOM     32  N   LIG    1        0.252   5.472  -2.558  0.00  0.00    +0.380 N 
ATOM     33  H   LIG    1       -0.714   5.135  -2.638  0.00  0.00    -0.082 HD
ATOM     34  C   LIG    1        0.349   6.807  -3.187  0.00  0.00    -0.096 C 
ATOM     35  C   LIG    1        1.151   4.523  -3.249  0.00  0.00    -0.060 C 
ATOM     36  C   LIG    1        0.989   3.139  -2.614  0.00  0.00    +0.086 C 
ENDBRANCH  27  29
BRANCH  26  37
ATOM     37  O   LIG    1        3.562   2.098   0.018  0.00  0.00    -0.493 OA
ATOM     38  C   LIG    1        4.681   1.476   0.651  0.00  0.00    +0.277 C 
ENDBRANCH  26  37
ENDBRANCH   2  23
TORSDOF 6
