REMARK  Name = ZINC01571800
REMARK                            x       y       z     vdW  Elec       q    Type
REMARK                         _______ _______ _______ _____ _____    ______ ____
ROOT
ATOM      1  N   LIG    1        1.167   3.416   0.009  0.00  0.00    -0.318 N 
ATOM      2  C   LIG    1        2.420   4.186  -0.005  0.00  0.00    +0.087 C 
ATOM      3  C   LIG    1        2.334   5.235  -1.119  0.00  0.00    -0.063 C 
ATOM      4  N   LIG    1        1.125   6.048  -0.932  0.00  0.00    +0.381 N 
ATOM      5  H   LIG    1        1.108   6.785  -1.621  0.00  0.00    -0.086 HD
ATOM      6  H   LIG    1        1.134   6.453  -0.009  0.00  0.00    -0.086 HD
ATOM      7  C   LIG    1       -0.070   5.209  -1.086  0.00  0.00    -0.063 C 
ATOM      8  C   LIG    1       -0.103   4.159   0.024  0.00  0.00    +0.087 C 
ENDROOT
BRANCH   1  10
ATOM      9  C   LIG    1        0.006   1.314   0.226  0.00  0.00    +0.154 A 
ATOM     10  C   LIG    1        1.182   2.026   0.002  0.00  0.00    +0.141 A 
ATOM     11  N   LIG    1        2.316   1.375  -0.219  0.00  0.00    -0.218 NA
ATOM     12  C   LIG    1        2.326   0.051  -0.225  0.00  0.00    +0.149 A 
ATOM     13 CL   LIG    1        3.809  -0.803  -0.513  0.00  0.00    -0.060 Cl
ATOM     14  C   LIG    1        1.156  -0.652  -0.003  0.00  0.00    +0.151 A 
ATOM     15  N   LIG    1        0.024  -0.005   0.218  0.00  0.00    -0.257 NA
ENDBRANCH   1  10
TORSDOF 1
