REMARK  Name = ZINC01546066
REMARK                            x       y       z     vdW  Elec       q    Type
REMARK                         _______ _______ _______ _____ _____    ______ ____
ROOT
ATOM      1  C   LIG    1        1.986  -3.963   0.012  0.00  0.00    +0.163 A 
ATOM      2  C   LIG    1        1.173  -4.801   0.721  0.00  0.00    +0.062 A 
ATOM      3  C   LIG    1        1.044  -6.139   0.327  0.00  0.00    +0.044 A 
ATOM      4  C   LIG    1        1.756  -6.615  -0.802  0.00  0.00    +0.080 A 
ATOM      5  N   LIG    1        1.615  -7.901  -1.158  0.00  0.00    -0.235 NA
ATOM      6  C   LIG    1        0.831  -8.699  -0.472  0.00  0.00    +0.223 A 
ATOM      7  N   LIG    1        0.146  -8.299   0.587  0.00  0.00    -0.220 NA
ATOM      8  C   LIG    1        2.584  -5.738  -1.513  0.00  0.00    +0.078 A 
ATOM      9  C   LIG    1        0.215  -7.048   1.025  0.00  0.00    +0.134 A 
ATOM     10  C   LIG    1        2.689  -4.425  -1.109  0.00  0.00    +0.164 A 
ENDROOT
BRANCH   9  11
ATOM     11  N   LIG    1       -0.504  -6.645   2.133  0.00  0.00    -0.299 N 
ATOM     12  H   LIG    1       -0.511  -5.711   2.393  0.00  0.00    +0.154 HD
BRANCH  11  13
ATOM     13  C   LIG    1       -1.222  -7.584   2.880  0.00  0.00    +0.034 A 
ATOM     14  C   LIG    1       -2.442  -7.234   3.448  0.00  0.00    +0.023 A 
ATOM     15  C   LIG    1       -3.155  -8.158   4.188  0.00  0.00    +0.003 A 
ATOM     16  C   LIG    1       -2.661  -9.435   4.367  0.00  0.00    +0.017 A 
ATOM     17  C   LIG    1       -1.438  -9.796   3.800  0.00  0.00    +0.026 A 
ATOM     18  C   LIG    1       -0.721  -8.865   3.049  0.00  0.00    +0.040 A 
BRANCH  17  19
ATOM     19  C   LIG    1       -0.924 -11.120   3.984  0.00  0.00    -0.070 C 
ATOM     20  C   LIG    1       -0.502 -12.205   4.135  0.00  0.00    +0.009 C 
ENDBRANCH  17  19
ENDBRANCH  11  13
ENDBRANCH   9  11
BRANCH   1  21
ATOM     21  O   LIG    1        2.111  -2.664   0.396  0.00  0.00    -0.486 OA
BRANCH  21  22
ATOM     22  C   LIG    1        1.369  -2.253   1.546  0.00  0.00    +0.257 C 
BRANCH  22  23
ATOM     23  C   LIG    1        1.634  -0.772   1.821  0.00  0.00    +0.200 C 
BRANCH  23  25
ATOM     24  C   LIG    1        1.319   1.419   0.900  0.00  0.00    +0.194 C 
ATOM     25  O   LIG    1        1.122   0.012   0.741  0.00  0.00    -0.380 OA
ENDBRANCH  23  25
ENDBRANCH  22  23
ENDBRANCH  21  22
ENDBRANCH   1  21
BRANCH  10  26
ATOM     26  O   LIG    1        3.488  -3.571  -1.800  0.00  0.00    -0.486 OA
BRANCH  26  27
ATOM     27  C   LIG    1        4.178  -4.102  -2.933  0.00  0.00    +0.257 C 
BRANCH  27  28
ATOM     28  C   LIG    1        5.021  -3.000  -3.579  0.00  0.00    +0.200 C 
BRANCH  28  29
ATOM     29  O   LIG    1        6.045  -2.589  -2.671  0.00  0.00    -0.380 OA
ATOM     30  C   LIG    1        6.893  -1.558  -3.179  0.00  0.00    +0.194 C 
ENDBRANCH  28  29
ENDBRANCH  27  28
ENDBRANCH  26  27
ENDBRANCH  10  26
TORSDOF 11
