REMARK  Name = ZINC01609559
REMARK                            x       y       z     vdW  Elec       q    Type
REMARK                         _______ _______ _______ _____ _____    ______ ____
ROOT
ATOM      1  C   LIG    1       -1.215   1.751   0.017  0.00  0.00    +0.021 A 
ATOM      2  C   LIG    1       -0.013   1.076   0.008  0.00  0.00    +0.022 A 
ATOM      3  C   LIG    1        1.186   1.792   0.000  0.00  0.00    +0.082 A 
ATOM      4  C   LIG    1        1.159   3.188   0.008  0.00  0.00    +0.140 A 
ATOM      5  C   LIG    1       -0.050   3.851   0.022  0.00  0.00    +0.054 A 
ATOM      6  C   LIG    1       -1.236   3.135   0.029  0.00  0.00    +0.043 A 
ATOM      7 CL   LIG    1       -2.754   3.977   0.047  0.00  0.00    -0.083 Cl
ENDROOT
BRANCH   3   8
ATOM      8  C   LIG    1        2.438   1.097  -0.015  0.00  0.00    +0.101 C 
ATOM      9  N   LIG    1        3.432   0.546  -0.028  0.00  0.00    -0.191 NA
ENDBRANCH   3   8
BRANCH   4  10
ATOM     10  N   LIG    1        2.425   3.955   0.000  0.00  0.00    +0.007 N 
ATOM     11  O   LIG    1        2.400   5.173   0.006  0.00  0.00    -0.130 OA
BRANCH  10  12
ATOM     12  O   LIG    1        3.492   3.368  -0.012  0.00  0.00    -0.396 OA
ATOM     13  H   LIG    1        3.512   2.431  -0.017  0.00  0.00    +0.329 HD
ENDBRANCH  10  12
ENDBRANCH   4  10
TORSDOF 3
