REMARK  Name = ZINC01586446
REMARK                            x       y       z     vdW  Elec       q    Type
REMARK                         _______ _______ _______ _____ _____    ______ ____
ROOT
ATOM      1  N   LIG    1       -0.122   0.699   0.017  0.00  0.00    -0.246 N 
ATOM      2  H   LIG    1        0.727   0.520  -0.417  0.00  0.00    +0.265 HD
ENDROOT
BRANCH   1   6
ATOM      3  C   LIG    1       -1.598   4.591   0.177  0.00  0.00    +0.000 A 
ATOM      4  C   LIG    1       -0.239   4.363   0.296  0.00  0.00    +0.003 A 
ATOM      5  C   LIG    1        0.253   3.074   0.243  0.00  0.00    +0.042 A 
ATOM      6  C   LIG    1       -0.618   2.006   0.071  0.00  0.00    +0.100 A 
ATOM      7  C   LIG    1       -1.981   2.239  -0.054  0.00  0.00    +0.042 A 
ATOM      8  C   LIG    1       -2.468   3.530   0.005  0.00  0.00    +0.003 A 
ENDBRANCH   1   6
BRANCH   1   9
ATOM      9  C   LIG    1       -0.839  -0.333   0.579  0.00  0.00    +0.346 C 
ATOM     10  N   LIG    1       -1.931  -0.009   1.257  0.00  0.00    -0.292 N 
ATOM     11  H   LIG    1       -2.208   0.976   1.344  0.00  0.00    +0.255 HD
ATOM     12  H   LIG    1       -2.496  -0.738   1.692  0.00  0.00    +0.255 HD
BRANCH   9  13
ATOM     13  N   LIG    1       -0.413  -1.631   0.423  0.00  0.00    -0.292 N 
ATOM     14  H   LIG    1       -0.918  -2.358   0.820  0.00  0.00    +0.255 HD
ATOM     15  H   LIG    1        0.393  -1.819  -0.082  0.00  0.00    +0.255 HD
ENDBRANCH   9  13
ENDBRANCH   1   9
TORSDOF 3
