REMARK  Name = ZINC01504642
REMARK                            x       y       z     vdW  Elec       q    Type
REMARK                         _______ _______ _______ _____ _____    ______ ____
ROOT
ATOM      1  O   LIG    1        3.586  -0.632  -0.036  0.00  0.00    -0.456 OA
ENDROOT
BRANCH   1   5
ATOM      2  C   LIG    1        0.152   1.442   0.930  0.00  0.00    +0.000 A 
ATOM      3  C   LIG    1        0.174   0.062   1.022  0.00  0.00    +0.004 A 
ATOM      4  C   LIG    1        1.323  -0.634   0.699  0.00  0.00    +0.046 A 
ATOM      5  C   LIG    1        2.454   0.051   0.282  0.00  0.00    +0.128 A 
ATOM      6  C   LIG    1        2.430   1.436   0.190  0.00  0.00    +0.046 A 
ATOM      7  C   LIG    1        1.279   2.127   0.514  0.00  0.00    +0.004 A 
ENDBRANCH   1   5
BRANCH   1   8
ATOM      8  C   LIG    1        3.561  -1.987   0.061  0.00  0.00    +0.128 A 
ATOM      9  C   LIG    1        3.183  -2.755  -1.030  0.00  0.00    +0.046 A 
ATOM     10  C   LIG    1        3.159  -4.133  -0.928  0.00  0.00    +0.004 A 
ATOM     11  C   LIG    1        3.511  -4.746   0.260  0.00  0.00    +0.000 A 
ATOM     12  C   LIG    1        3.888  -3.982   1.349  0.00  0.00    +0.004 A 
ATOM     13  C   LIG    1        3.920  -2.604   1.251  0.00  0.00    +0.046 A 
ENDBRANCH   1   8
TORSDOF 2
