REMARK  Name = ZINC01506669
REMARK                            x       y       z     vdW  Elec       q    Type
REMARK                         _______ _______ _______ _____ _____    ______ ____
ROOT
ATOM      1  C   LIG    1        3.696  -0.686  -0.037  0.00  0.00    +0.015 A 
ATOM      2  C   LIG    1        4.701  -0.668  -1.112  0.00  0.00    +0.009 A 
ATOM      3  C   LIG    1        4.771  -0.035  -2.353  0.00  0.00    +0.010 A 
ATOM      4  C   LIG    1        5.875  -0.218  -3.160  0.00  0.00    +0.002 A 
ATOM      5  C   LIG    1        6.919  -1.027  -2.752  0.00  0.00    +0.017 A 
ATOM      6  C   LIG    1        6.872  -1.671  -1.515  0.00  0.00    +0.083 A 
ATOM      7  C   LIG    1        5.753  -1.494  -0.680  0.00  0.00    +0.062 A 
ATOM      8  N   LIG    1        5.427  -1.982   0.559  0.00  0.00    -0.353 N 
ATOM      9  H   LIG    1        5.983  -2.579   1.084  0.00  0.00    +0.166 HD
ATOM     10  C   LIG    1        4.202  -1.500   0.954  0.00  0.00    +0.055 A 
ENDROOT
BRANCH   1  14
ATOM     11  C   LIG    1       -0.017   1.379   0.010  0.00  0.00    +0.000 A 
ATOM     12  C   LIG    1        1.169   2.093   0.002  0.00  0.00    +0.001 A 
ATOM     13  C   LIG    1        2.377   1.429  -0.013  0.00  0.00    +0.008 A 
ATOM     14  C   LIG    1        2.403   0.034  -0.021  0.00  0.00    -0.015 A 
ATOM     15  C   LIG    1        1.204  -0.680  -0.013  0.00  0.00    +0.008 A 
ATOM     16  C   LIG    1        0.002  -0.004   0.002  0.00  0.00    +0.001 A 
ENDBRANCH   1  14
BRANCH  10  17
ATOM     17  C   LIG    1        3.532  -1.808   2.233  0.00  0.00    -0.001 A 
ATOM     18  C   LIG    1        2.928  -0.789   2.972  0.00  0.00    +0.010 A 
ATOM     19  C   LIG    1        2.304  -1.084   4.166  0.00  0.00    +0.001 A 
ATOM     20  C   LIG    1        2.276  -2.386   4.633  0.00  0.00    +0.000 A 
ATOM     21  C   LIG    1        2.872  -3.401   3.905  0.00  0.00    +0.001 A 
ATOM     22  C   LIG    1        3.494  -3.122   2.707  0.00  0.00    +0.010 A 
ENDBRANCH  10  17
BRANCH   6  23
ATOM     23  C   LIG    1        7.987  -2.530  -1.086  0.00  0.00    +0.339 C 
ATOM     24  O   LIG    1        8.958  -2.682  -1.814  0.00  0.00    -0.245 OA
BRANCH  23  25
ATOM     25  O   LIG    1        7.942  -3.093  -0.000  0.00  0.00    -0.477 OA
ATOM     26  H   LIG    1        7.199  -2.977   0.558  0.00  0.00    +0.295 HD
ENDBRANCH  23  25
ENDBRANCH   6  23
TORSDOF 4
