REMARK  Name = ZINC01493052
REMARK                            x       y       z     vdW  Elec       q    Type
REMARK                         _______ _______ _______ _____ _____    ______ ____
ROOT
ATOM      1  N   LIG    1        4.153  -0.953   1.342  0.00  0.00    +0.382 N 
ATOM      2  H   LIG    1        3.427  -1.441   1.844  0.00  0.00    -0.081 HD
ATOM      3  C   LIG    1        4.424   0.329   2.003  0.00  0.00    -0.078 C 
ATOM      4  C   LIG    1        4.808   0.083   3.464  0.00  0.00    -0.007 C 
ATOM      5  C   LIG    1        6.064  -0.793   3.514  0.00  0.00    -0.007 C 
ATOM      6  C   LIG    1        5.791  -2.098   2.760  0.00  0.00    -0.007 C 
ATOM      7  C   LIG    1        7.224  -0.056   2.849  0.00  0.00    +0.012 C 
ATOM      8  C   LIG    1        8.510  -0.852   3.099  0.00  0.00    +0.005 C 
ATOM      9  C   LIG    1        8.868  -0.736   4.579  0.00  0.00    +0.035 C 
ATOM     10  C   LIG    1        7.681  -1.085   5.439  0.00  0.00    -0.044 A 
ATOM     11  C   LIG    1        7.917  -1.391   6.772  0.00  0.00    +0.004 A 
ATOM     12  C   LIG    1        6.871  -1.714   7.613  0.00  0.00    +0.000 A 
ATOM     13  C   LIG    1        5.579  -1.734   7.124  0.00  0.00    +0.000 A 
ATOM     14  C   LIG    1        5.343  -1.433   5.798  0.00  0.00    +0.004 A 
ATOM     15  C   LIG    1        6.393  -1.108   4.951  0.00  0.00    -0.038 A 
ATOM     16  C   LIG    1        5.371  -1.772   1.325  0.00  0.00    -0.078 C 
ENDROOT
BRANCH   1  17
ATOM     17  C   LIG    1        3.711  -0.707  -0.038  0.00  0.00    -0.043 C 
BRANCH  17  21
ATOM     18  C   LIG    1       -0.017   1.378   0.010  0.00  0.00    +0.000 A 
ATOM     19  C   LIG    1        1.171   2.086   0.002  0.00  0.00    +0.000 A 
ATOM     20  C   LIG    1        2.377   1.411  -0.013  0.00  0.00    +0.002 A 
ATOM     21  C   LIG    1        2.396   0.029  -0.020  0.00  0.00    -0.064 A 
ATOM     22  C   LIG    1        1.208  -0.679  -0.012  0.00  0.00    +0.002 A 
ATOM     23  C   LIG    1        0.002  -0.004   0.002  0.00  0.00    +0.000 A 
ENDBRANCH  17  21
ENDBRANCH   1  17
TORSDOF 2
