REMARK  Name = ZINC01530649
REMARK                            x       y       z     vdW  Elec       q    Type
REMARK                         _______ _______ _______ _____ _____    ______ ____
ROOT
ATOM      1  C   LIG    1       -0.017   1.378   0.010  0.00  0.00    +0.068 A 
ATOM      2  C   LIG    1        1.175   2.087   0.002  0.00  0.00    +0.142 A 
ATOM      3  C   LIG    1        2.385   1.407  -0.013  0.00  0.00    +0.084 A 
ATOM      4 CL   LIG    1        3.879   2.292  -0.023  0.00  0.00    -0.080 Cl
ATOM      5  C   LIG    1        2.400   0.024  -0.021  0.00  0.00    +0.045 A 
ATOM      6  C   LIG    1        1.210  -0.681  -0.014  0.00  0.00    +0.061 A 
ATOM      7 CL   LIG    1        1.231  -2.417  -0.024  0.00  0.00    -0.082 Cl
ATOM      8  C   LIG    1        0.002  -0.004   0.002  0.00  0.00    +0.063 A 
ATOM      9 CL   LIG    1       -1.490  -0.892   0.012  0.00  0.00    -0.082 Cl
ENDROOT
BRANCH   2  10
ATOM     10  O   LIG    1        1.159   3.446   0.009  0.00  0.00    -0.478 OA
BRANCH  10  11
ATOM     11  C   LIG    1       -0.122   4.080   0.024  0.00  0.00    +0.318 C 
BRANCH  11  12
ATOM     12  C   LIG    1        0.053   5.541   0.030  0.00  0.00    -0.050 C 
ATOM     13  C   LIG    1        0.193   6.707   0.035  0.00  0.00    -0.027 C 
ATOM     14  I   LIG    1        0.443   8.792   0.043  0.00  0.00    +0.018 I 
ENDBRANCH  11  12
ENDBRANCH  10  11
ENDBRANCH   2  10
TORSDOF 3
