REMARK  Name = ZINC01444929
REMARK                            x       y       z     vdW  Elec       q    Type
REMARK                         _______ _______ _______ _____ _____    ______ ____
ROOT
ATOM      1  C   LIG    1       -2.437   2.899   1.374  0.00  0.00    +0.263 C 
ATOM      2  N   LIG    1       -3.737   2.706   1.344  0.00  0.00    -0.290 N 
ATOM      3  H   LIG    1       -4.172   2.265   0.525  0.00  0.00    +0.301 HD
ATOM      4  H   LIG    1       -4.314   2.995   2.134  0.00  0.00    +0.301 HD
ENDROOT
BRANCH   1   7
ATOM      5  C   LIG    1       -1.767   1.170  -1.869  0.00  0.00    +0.031 C 
ATOM      6  C   LIG    1       -2.592   2.175  -1.028  0.00  0.00    +0.046 C 
ATOM      7  C   LIG    1       -1.649   2.446   0.172  0.00  0.00    +0.228 C 
ATOM      8  O   LIG    1       -1.036   1.160   0.419  0.00  0.00    -0.365 OA
ATOM      9  C   LIG    1       -0.759   0.576  -0.865  0.00  0.00    +0.161 C 
ENDBRANCH   1   7
BRANCH   1  10
ATOM     10  N   LIG    1       -1.795   3.481   2.434  0.00  0.00    -0.252 N 
ATOM     11  H   LIG    1       -2.302   3.773   3.208  0.00  0.00    +0.288 HD
ATOM     12  H   LIG    1       -0.833   3.602   2.412  0.00  0.00    +0.288 HD
ENDBRANCH   1  10
TORSDOF 2
