REMARK  Name = ZINC01544157
REMARK                            x       y       z     vdW  Elec       q    Type
REMARK                         _______ _______ _______ _____ _____    ______ ____
ROOT
ATOM      1  C   LIG    1        0.459   2.980   1.027  0.00  0.00    +0.113 C 
ENDROOT
BRANCH   1   2
ATOM      2  C   LIG    1        0.456   4.200   0.142  0.00  0.00    +0.220 C 
ATOM      3  N   LIG    1        0.143   5.405   0.658  0.00  0.00    -0.303 N 
ATOM      4  H   LIG    1       -0.009   5.500   1.611  0.00  0.00    +0.149 HD
ATOM      5  O   LIG    1        0.734   4.097  -1.034  0.00  0.00    -0.275 OA
BRANCH   3   6
ATOM      6  C   LIG    1        0.035   6.572  -0.222  0.00  0.00    +0.164 C 
BRANCH   6   7
ATOM      7  C   LIG    1        0.291   7.826   0.574  0.00  0.00    +0.234 C 
ATOM      8  N   LIG    1        0.691   8.951  -0.052  0.00  0.00    -0.317 N 
ATOM      9  H   LIG    1        0.747   8.974  -1.020  0.00  0.00    +0.148 HD
ATOM     10  C   LIG    1        1.040  10.140   0.730  0.00  0.00    +0.128 C 
ATOM     11  O   LIG    1        0.139   7.823   1.777  0.00  0.00    -0.274 OA
ENDBRANCH   6   7
BRANCH   6  12
ATOM     12  C   LIG    1       -1.371   6.628  -0.823  0.00  0.00    -0.011 C 
ATOM     13  C   LIG    1       -1.666   5.317  -1.553  0.00  0.00    +0.013 C 
ATOM     14  C   LIG    1       -1.457   7.793  -1.811  0.00  0.00    +0.013 C 
ATOM     15  C   LIG    1       -2.396   6.832   0.295  0.00  0.00    +0.013 C 
ENDBRANCH   6  12
ENDBRANCH   3   6
ENDBRANCH   1   2
BRANCH   1  16
ATOM     16  C   LIG    1        1.392   3.215   2.216  0.00  0.00    +0.018 C 
BRANCH  16  18
ATOM     17  C   LIG    1        3.009   4.567   0.875  0.00  0.00    +0.007 C 
ATOM     18  C   LIG    1        2.837   3.304   1.721  0.00  0.00    -0.016 C 
ATOM     19  C   LIG    1        3.785   3.360   2.920  0.00  0.00    +0.007 C 
ENDBRANCH  16  18
ENDBRANCH   1  16
BRANCH   1  20
ATOM     20  C   LIG    1        0.947   1.771   0.226  0.00  0.00    +0.214 C 
BRANCH  20  21
ATOM     21  C   LIG    1        0.825   0.528   1.070  0.00  0.00    +0.265 C 
ATOM     22  N   LIG    1        1.655   0.339   2.115  0.00  0.00    -0.195 N 
ATOM     23  H   LIG    1        2.286   1.032   2.365  0.00  0.00    +0.182 HD
ATOM     24  O   LIG    1       -0.020  -0.302   0.808  0.00  0.00    -0.271 OA
BRANCH  22  25
ATOM     25  O   LIG    1        1.605  -0.872   2.848  0.00  0.00    -0.295 OA
ATOM     26  H   LIG    1        2.237  -0.915   3.578  0.00  0.00    +0.241 HD
ENDBRANCH  22  25
ENDBRANCH  20  21
BRANCH  20  27
ATOM     27  O   LIG    1        0.151   1.627  -0.952  0.00  0.00    -0.382 OA
ATOM     28  H   LIG    1       -0.790   1.492  -0.777  0.00  0.00    +0.210 HD
ENDBRANCH  20  27
ENDBRANCH   1  20
TORSDOF 10
