REMARK  Name = ZINC01665564
REMARK                            x       y       z     vdW  Elec       q    Type
REMARK                         _______ _______ _______ _____ _____    ______ ____
ROOT
ATOM      1  C   LIG    1        5.955   2.303  -0.044  0.00  0.00    +0.082 C 
ENDROOT
BRANCH   1   2
ATOM      2  C   LIG    1        4.755   1.353  -0.037  0.00  0.00    +0.232 C 
BRANCH   2   3
ATOM      3  O   LIG    1        3.545   2.113  -0.021  0.00  0.00    -0.492 OA
BRANCH   3   6
ATOM      4  C   LIG    1       -0.017   1.392   0.010  0.00  0.00    +0.019 A 
ATOM      5  C   LIG    1        1.167   2.095   0.002  0.00  0.00    +0.046 A 
ATOM      6  C   LIG    1        2.380   1.417  -0.013  0.00  0.00    +0.121 A 
ATOM      7  C   LIG    1        2.403   0.028  -0.022  0.00  0.00    +0.046 A 
ATOM      8  C   LIG    1        1.223  -0.682  -0.014  0.00  0.00    +0.019 A 
ATOM      9  C   LIG    1        0.002  -0.004   0.002  0.00  0.00    +0.061 A 
BRANCH   9  10
ATOM     10  C   LIG    1       -1.266  -0.762   0.011  0.00  0.00    +0.266 C 
ATOM     11  N   LIG    1       -1.246  -2.094   0.003  0.00  0.00    -0.288 N 
ATOM     12  H   LIG    1       -2.079  -2.592   0.009  0.00  0.00    +0.301 HD
ATOM     13  H   LIG    1       -0.399  -2.567  -0.008  0.00  0.00    +0.301 HD
BRANCH  10  14
ATOM     14  N   LIG    1       -2.430  -0.113   0.026  0.00  0.00    -0.250 N 
ATOM     15  H   LIG    1       -3.263  -0.611   0.031  0.00  0.00    +0.288 HD
ATOM     16  H   LIG    1       -2.445   0.857   0.031  0.00  0.00    +0.288 HD
ENDBRANCH  10  14
ENDBRANCH   9  10
ENDBRANCH   3   6
ENDBRANCH   2   3
ENDBRANCH   1   2
BRANCH   1  17
ATOM     17  C   LIG    1        7.250   1.489  -0.061  0.00  0.00    +0.232 C 
BRANCH  17  18
ATOM     18  O   LIG    1        8.370   2.377  -0.068  0.00  0.00    -0.492 OA
BRANCH  18  19
ATOM     19  C   LIG    1        9.604   1.812  -0.083  0.00  0.00    +0.121 A 
ATOM     20  C   LIG    1        9.732   0.428  -0.098  0.00  0.00    +0.046 A 
ATOM     21  C   LIG    1       10.983  -0.149  -0.113  0.00  0.00    +0.019 A 
ATOM     22  C   LIG    1       12.123   0.658  -0.114  0.00  0.00    +0.061 A 
ATOM     23  C   LIG    1       11.989   2.048  -0.100  0.00  0.00    +0.019 A 
ATOM     24  C   LIG    1       10.736   2.618  -0.090  0.00  0.00    +0.046 A 
BRANCH  22  25
ATOM     25  C   LIG    1       13.466   0.043  -0.130  0.00  0.00    +0.266 C 
ATOM     26  N   LIG    1       14.552   0.814  -0.131  0.00  0.00    -0.288 N 
ATOM     27  H   LIG    1       15.434   0.410  -0.141  0.00  0.00    +0.301 HD
ATOM     28  H   LIG    1       14.461   1.780  -0.121  0.00  0.00    +0.301 HD
BRANCH  25  29
ATOM     29  N   LIG    1       13.591  -1.284  -0.142  0.00  0.00    -0.250 N 
ATOM     30  H   LIG    1       14.473  -1.688  -0.153  0.00  0.00    +0.288 HD
ATOM     31  H   LIG    1       12.800  -1.846  -0.142  0.00  0.00    +0.288 HD
ENDBRANCH  25  29
ENDBRANCH  22  25
ENDBRANCH  18  19
ENDBRANCH  17  18
ENDBRANCH   1  17
TORSDOF 10
