REMARK  Name = ZINC01532334
REMARK                            x       y       z     vdW  Elec       q    Type
REMARK                         _______ _______ _______ _____ _____    ______ ____
ROOT
ATOM      1  N   UNK A  1       -1.156  -2.396   0.237  0.00  0.00    +0.395 N 
ATOM      2  H   UNK A  1       -1.318  -2.121  -0.738  0.00  0.00    -0.084 HD
ATOM      3  H   UNK A  1       -1.953  -2.102   0.813  0.00  0.00    -0.084 HD
ENDROOT
BRANCH   1   5
ATOM      4  C   UNK A  1       -1.397  -4.340   1.716  0.00  0.00    -0.004 C 
ATOM      5  C   UNK A  1       -1.015  -3.862   0.314  0.00  0.00    +0.014 C 
BRANCH   5   6
ATOM      6  C   UNK A  1       -1.928  -4.500  -0.701  0.00  0.00    +0.202 C 
ATOM      7  N   PRO A  2       -1.630  -5.712  -1.208  0.00  0.00    -0.289 N 
ATOM      8  CD  PRO A  2       -0.507  -6.568  -0.784  0.00  0.00    +0.108 C 
ATOM      9  CG  PRO A  2       -0.939  -8.007  -1.164  0.00  0.00    +0.021 C 
ATOM     10  CB  PRO A  2       -1.685  -7.764  -2.503  0.00  0.00    +0.035 C 
ATOM     11  CA  PRO A  2       -2.375  -6.403  -2.271  0.00  0.00    +0.184 C 
ATOM     12  O   UNK A  1       -2.932  -3.922  -1.062  0.00  0.00    -0.277 OA
BRANCH  11  13
ATOM     13  C   PRO A  2       -2.334  -5.588  -3.538  0.00  0.00    +0.325 C 
ATOM     14  O   PRO A  2       -1.744  -4.534  -3.560  0.00  0.00    -0.249 OA
BRANCH  13  15
ATOM     15  OXT PRO A  2       -2.954  -6.034  -4.643  0.00  0.00    -0.479 OA
ATOM     16  HXT PRO A  2       -3.411  -6.852  -4.626  0.00  0.00    +0.295 HD
ENDBRANCH  13  15
ENDBRANCH  11  13
ENDBRANCH   5   6
ENDBRANCH   1   5
BRANCH   1  17
ATOM     17  C   UNK A  1        0.069  -1.737   0.730  0.00  0.00    +0.040 C 
BRANCH  17  18
ATOM     18  C   UNK A  1        0.000  -1.604   2.230  0.00  0.00    +0.291 C 
ATOM     19  O   UNK A  1       -0.963  -2.020   2.830  0.00  0.00    -0.253 OA
BRANCH  18  20
ATOM     20  O   UNK A  1        1.009  -1.025   2.900  0.00  0.00    -0.482 OA
ATOM     21  H   UNK A  1        1.756  -0.702   2.435  0.00  0.00    +0.295 HD
ENDBRANCH  18  20
ENDBRANCH  17  18
BRANCH  17  22
ATOM     22  C   UNK A  1        0.181  -0.347   0.100  0.00  0.00    -0.000 C 
BRANCH  22  23
ATOM     23  C   UNK A  1        0.376  -0.487  -1.411  0.00  0.00    +0.034 C 
BRANCH  23  24
ATOM     24  C   UNK A  1        0.486   0.881  -2.032  0.00  0.00    -0.047 A 
ATOM     25  C   UNK A  1       -0.650   1.532  -2.478  0.00  0.00    +0.003 A 
ATOM     26  C   UNK A  1       -0.549   2.789  -3.043  0.00  0.00    +0.000 A 
ATOM     27  C   UNK A  1        0.688   3.392  -3.171  0.00  0.00    +0.000 A 
ATOM     28  C   UNK A  1        1.824   2.740  -2.731  0.00  0.00    +0.000 A 
ATOM     29  C   UNK A  1        1.723   1.484  -2.161  0.00  0.00    +0.003 A 
ENDBRANCH  23  24
ENDBRANCH  22  23
ENDBRANCH  17  22
ENDBRANCH   1  17
TORSDOF 10
