REMARK  Name = ZINC01488207
REMARK                            x       y       z     vdW  Elec       q    Type
REMARK                         _______ _______ _______ _____ _____    ______ ____
ROOT
ATOM      1  C   LIG    1       -3.273  -1.401   0.312  0.00  0.00    +0.035 A 
ATOM      2  C   LIG    1       -3.121  -2.772   0.086  0.00  0.00    +0.025 A 
ATOM      3  C   LIG    1       -1.898  -3.306  -0.185  0.00  0.00    +0.030 A 
ATOM      4  C   LIG    1       -0.771  -2.474  -0.241  0.00  0.00    +0.076 A 
ATOM      5  C   LIG    1       -0.917  -1.085  -0.007  0.00  0.00    +0.042 A 
ATOM      6  C   LIG    1        0.239  -0.269  -0.075  0.00  0.00    +0.134 A 
ATOM      7  N   LIG    1        1.401  -0.850  -0.344  0.00  0.00    -0.220 NA
ATOM      8  C   LIG    1        1.490  -2.154  -0.550  0.00  0.00    +0.223 A 
ATOM      9  N   LIG    1        0.453  -2.957  -0.505  0.00  0.00    -0.235 NA
ATOM     10  C   LIG    1       -2.183  -0.556   0.264  0.00  0.00    +0.036 A 
ENDROOT
BRANCH   1  12
ATOM     11  C   LIG    1       -5.416  -1.592   1.327  0.00  0.00    +0.293 C 
ATOM     12  N   LIG    1       -4.542  -0.880   0.588  0.00  0.00    -0.275 N 
ATOM     13  H   LIG    1       -4.793  -0.007   0.247  0.00  0.00    +0.156 HD
ATOM     14  O   LIG    1       -5.134  -2.720   1.683  0.00  0.00    -0.260 OA
BRANCH  11  17
ATOM     15  C   LIG    1       -9.005   0.038   2.372  0.00  0.00    +0.106 C 
ATOM     16  C   LIG    1       -7.709  -0.550   1.994  0.00  0.00    -0.096 C 
ATOM     17  C   LIG    1       -6.676  -1.020   1.694  0.00  0.00    -0.008 C 
ENDBRANCH  11  17
ENDBRANCH   1  12
BRANCH   6  18
ATOM     18  N   LIG    1        0.160   1.092   0.138  0.00  0.00    -0.299 N 
ATOM     19  H   LIG    1       -0.705   1.515   0.256  0.00  0.00    +0.154 HD
BRANCH  18  20
ATOM     20  C   LIG    1        1.325   1.863   0.177  0.00  0.00    +0.033 A 
ATOM     21  C   LIG    1        1.308   3.175  -0.280  0.00  0.00    +0.023 A 
ATOM     22  C   LIG    1        2.462   3.933  -0.239  0.00  0.00    +0.003 A 
ATOM     23  C   LIG    1        3.632   3.389   0.256  0.00  0.00    +0.015 A 
ATOM     24  C   LIG    1        3.653   2.083   0.712  0.00  0.00    +0.020 A 
ATOM     25 BR   LIG    1        5.256   1.344   1.389  0.00  0.00    -0.050 Br
ATOM     26  C   LIG    1        2.501   1.320   0.678  0.00  0.00    +0.038 A 
ENDBRANCH  18  20
ENDBRANCH   6  18
TORSDOF 4
