REMARK  Name = ZINC01482197
REMARK                            x       y       z     vdW  Elec       q    Type
REMARK                         _______ _______ _______ _____ _____    ______ ____
ROOT
ATOM      1  C   LIG    1        3.711  -0.707  -0.038  0.00  0.00    +0.003 C 
ATOM      2  C   LIG    1        3.671  -2.222  -0.251  0.00  0.00    -0.009 C 
ATOM      3  C   LIG    1        4.008  -1.652   1.129  0.00  0.00    -0.067 C 
ENDROOT
BRANCH   1   7
ATOM      4  C   LIG    1       -0.017   1.378   0.010  0.00  0.00    +0.000 A 
ATOM      5  C   LIG    1        1.171   2.086   0.002  0.00  0.00    +0.000 A 
ATOM      6  C   LIG    1        2.377   1.411  -0.013  0.00  0.00    +0.004 A 
ATOM      7  C   LIG    1        2.396   0.029  -0.020  0.00  0.00    -0.046 A 
ATOM      8  C   LIG    1        1.208  -0.679  -0.012  0.00  0.00    +0.004 A 
ATOM      9  C   LIG    1        0.002  -0.004   0.002  0.00  0.00    +0.000 A 
ENDBRANCH   1   7
BRANCH   3  10
ATOM     10  N   LIG    1        5.402  -1.753   1.582  0.00  0.00    +0.380 N 
ATOM     11  H   LIG    1        5.980  -2.078   0.822  0.00  0.00    -0.090 HD
ATOM     12  H   LIG    1        5.459  -2.404   2.351  0.00  0.00    -0.090 HD
ATOM     13  H   LIG    1        5.723  -0.846   1.885  0.00  0.00    -0.090 HD
ENDBRANCH   3  10
TORSDOF 2
