REMARK  Name = ZINC01491100
REMARK                            x       y       z     vdW  Elec       q    Type
REMARK                         _______ _______ _______ _____ _____    ______ ____
ROOT
ATOM      1  C   LIG    1       -3.375   2.709   7.040  0.00  0.00    -0.016 A 
ATOM      2  C   LIG    1       -3.681   4.067   7.163  0.00  0.00    +0.016 A 
ATOM      3  C   LIG    1       -4.237   4.536   8.327  0.00  0.00    -0.001 A 
ATOM      4  C   LIG    1       -4.500   3.673   9.389  0.00  0.00    +0.058 A 
ATOM      5  N   LIG    1       -5.063   4.173  10.562  0.00  0.00    -0.268 N 
ATOM      6  H   LIG    1       -5.239   3.555  11.289  0.00  0.00    +0.156 HD
ATOM      7  C   LIG    1       -5.374   5.464  10.734  0.00  0.00    +0.305 C 
ATOM      8  N   LIG    1       -5.172   6.399   9.786  0.00  0.00    -0.290 N 
ATOM      9  H   LIG    1       -5.410   7.325   9.949  0.00  0.00    +0.151 HD
ATOM     10  O   LIG    1       -5.861   5.807  11.794  0.00  0.00    -0.252 OA
ATOM     11  C   LIG    1       -4.196   2.321   9.267  0.00  0.00    +0.063 A 
ATOM     12 CL   LIG    1       -4.519   1.238  10.584  0.00  0.00    -0.082 Cl
ATOM     13  C   LIG    1       -4.584   5.994   8.502  0.00  0.00    +0.063 C 
ATOM     14  C   LIG    1       -5.568   6.375   7.400  0.00  0.00    +0.031 C 
ATOM     15  C   LIG    1       -5.909   7.863   7.503  0.00  0.00    +0.002 C 
ATOM     16  C   LIG    1       -4.634   8.691   7.327  0.00  0.00    +0.000 C 
ATOM     17  C   LIG    1       -3.623   8.299   8.407  0.00  0.00    +0.002 C 
ATOM     18  C   LIG    1       -3.310   6.806   8.294  0.00  0.00    +0.031 C 
ATOM     19  C   LIG    1       -3.642   1.841   8.099  0.00  0.00    +0.030 A 
ENDROOT
BRANCH   1  23
ATOM     20  C   LIG    1       -1.652   1.225   3.445  0.00  0.00    +0.037 A 
ATOM     21  C   LIG    1       -1.952   2.585   3.567  0.00  0.00    +0.013 A 
ATOM     22  C   LIG    1       -2.514   3.063   4.729  0.00  0.00    +0.009 A 
ATOM     23  C   LIG    1       -2.775   2.193   5.788  0.00  0.00    -0.018 A 
ATOM     24  C   LIG    1       -2.470   0.836   5.669  0.00  0.00    +0.009 A 
ATOM     25  C   LIG    1       -1.913   0.355   4.506  0.00  0.00    +0.013 A 
BRANCH  20  32
ATOM     26  C   LIG    1       -3.850   0.959  -2.451  0.00  0.00    -0.096 C 
ATOM     27  N   LIG    1       -2.891   1.343  -1.394  0.00  0.00    +0.380 N 
ATOM     28  H   LIG    1       -2.424   2.215  -1.668  0.00  0.00    -0.082 HD
ATOM     29  C   LIG    1       -3.606   1.562  -0.118  0.00  0.00    -0.060 C 
ATOM     30  C   LIG    1       -2.613   2.105   0.915  0.00  0.00    +0.089 C 
ATOM     31  N   LIG    1       -1.473   1.179   1.005  0.00  0.00    -0.301 N 
ATOM     32  C   LIG    1       -1.054   0.710   2.197  0.00  0.00    +0.246 C 
ATOM     33  O   LIG    1       -0.182  -0.136   2.244  0.00  0.00    -0.270 OA
ATOM     34  C   LIG    1       -0.807   0.774  -0.242  0.00  0.00    +0.089 C 
ATOM     35  C   LIG    1       -1.871   0.284  -1.230  0.00  0.00    -0.060 C 
ENDBRANCH  20  32
ENDBRANCH   1  23
TORSDOF 2
