REMARK  Name = ZINC01534489
REMARK                            x       y       z     vdW  Elec       q    Type
REMARK                         _______ _______ _______ _____ _____    ______ ____
ROOT
ATOM      1  CA  VAL A  1       -1.433  -0.534   0.013  0.00  0.00    +0.165 C 
ENDROOT
BRANCH   1   2
ATOM      2  N   VAL A  1       -2.119  -0.061   1.218  0.00  0.00    -0.270 N 
ATOM      3  H   VAL A  1       -2.152  -0.622   2.009  0.00  0.00    +0.153 HD
ATOM      4  C   UNK A  0       -2.704   1.153   1.228  0.00  0.00    +0.401 C 
ATOM      5  O   UNK A  0       -2.663   1.856   0.238  0.00  0.00    -0.226 OA
BRANCH   4   6
ATOM      6  O   UNK A  0       -3.334   1.587   2.336  0.00  0.00    -0.446 OA
BRANCH   6   7
ATOM      7  C   UNK A  0       -3.932   2.884   2.276  0.00  0.00    +0.269 C 
BRANCH   7   8
ATOM      8  C   UNK A  0       -4.586   3.197   3.598  0.00  0.00    -0.010 A 
ATOM      9  C   UNK A  0       -5.905   2.847   3.816  0.00  0.00    +0.007 A 
ATOM     10  C   UNK A  0       -6.505   3.134   5.028  0.00  0.00    +0.000 A 
ATOM     11  C   UNK A  0       -5.785   3.771   6.022  0.00  0.00    +0.000 A 
ATOM     12  C   UNK A  0       -4.465   4.120   5.803  0.00  0.00    +0.000 A 
ATOM     13  C   UNK A  0       -3.864   3.829   4.593  0.00  0.00    +0.007 A 
ENDBRANCH   7   8
ENDBRANCH   6   7
ENDBRANCH   4   6
ENDBRANCH   1   2
BRANCH   1  14
ATOM     14  C   VAL A  1       -1.413  -2.041   0.005  0.00  0.00    +0.234 C 
ATOM     15  N   PHE A  2       -0.830  -2.701  -1.015  0.00  0.00    -0.304 N 
ATOM     16  H   PHE A  2       -0.423  -2.206  -1.744  0.00  0.00    +0.149 HD
ATOM     17  O   VAL A  1       -1.921  -2.659   0.916  0.00  0.00    -0.274 OA
BRANCH  15  18
ATOM     18  CA  PHE A  2       -0.810  -4.166  -1.024  0.00  0.00    +0.140 C 
BRANCH  18  19
ATOM     19  C   PHE A  2       -2.096  -4.682  -1.615  0.00  0.00    +0.245 C 
ATOM     20  O   PHE A  2       -2.942  -3.907  -1.990  0.00  0.00    -0.299 OA
ENDBRANCH  18  19
BRANCH  18  21
ATOM     21  CB  PHE A  2        0.370  -4.655  -1.865  0.00  0.00    +0.064 C 
BRANCH  21  22
ATOM     22  CG  PHE A  2        1.662  -4.243  -1.206  0.00  0.00    -0.045 A 
ATOM     23  CD2 PHE A  2        2.237  -3.025  -1.517  0.00  0.00    +0.004 A 
ATOM     24  CE2 PHE A  2        3.422  -2.646  -0.913  0.00  0.00    +0.000 A 
ATOM     25  CZ  PHE A  2        4.030  -3.485   0.002  0.00  0.00    +0.000 A 
ATOM     26  CE1 PHE A  2        3.454  -4.703   0.312  0.00  0.00    +0.000 A 
ATOM     27  CD1 PHE A  2        2.268  -5.080  -0.288  0.00  0.00    +0.004 A 
ENDBRANCH  21  22
ENDBRANCH  18  21
ENDBRANCH  15  18
ENDBRANCH   1  14
BRANCH   1  29
ATOM     28  CG1 VAL A  1       -0.019   1.526   0.010  0.00  0.00    +0.009 C 
ATOM     29  CB  VAL A  1        0.002  -0.004   0.002  0.00  0.00    +0.012 C 
ATOM     30  CG2 VAL A  1        0.742  -0.511   1.242  0.00  0.00    +0.009 C 
ENDBRANCH   1  29
TORSDOF 10
