REMARK  Name = ZINC01590056
REMARK                            x       y       z     vdW  Elec       q    Type
REMARK                         _______ _______ _______ _____ _____    ______ ____
ROOT
ATOM      1  C   LIG    1       -0.019   1.488   0.018  0.00  0.00    +0.233 C 
ATOM      2  O   LIG    1       -0.190   2.082   1.062  0.00  0.00    -0.283 OA
ENDROOT
BRANCH   1   7
ATOM      3  C   LIG    1        0.679   4.422  -4.880  0.00  0.00    +0.044 C 
ATOM      4  C   LIG    1        0.496   3.654  -3.596  0.00  0.00    -0.050 A 
ATOM      5  C   LIG    1        0.412   4.332  -2.393  0.00  0.00    +0.004 A 
ATOM      6  C   LIG    1        0.244   3.636  -1.215  0.00  0.00    +0.012 A 
ATOM      7  C   LIG    1        0.159   2.240  -1.238  0.00  0.00    +0.026 A 
ATOM      8  C   LIG    1        0.250   1.561  -2.457  0.00  0.00    +0.012 A 
ATOM      9  C   LIG    1        0.412   2.272  -3.627  0.00  0.00    +0.004 A 
ENDBRANCH   1   7
BRANCH   1  10
ATOM     10  C   LIG    1        0.003  -0.003   0.004  0.00  0.00    +0.233 C 
ATOM     11  O   LIG    1        1.058  -0.593  -0.109  0.00  0.00    -0.283 OA
BRANCH  10  12
ATOM     12  C   LIG    1       -1.256  -0.761   0.126  0.00  0.00    +0.026 A 
ATOM     13  C   LIG    1       -2.482  -0.088   0.149  0.00  0.00    +0.012 A 
ATOM     14  C   LIG    1       -3.655  -0.804   0.259  0.00  0.00    +0.004 A 
ATOM     15  C   LIG    1       -3.621  -2.184   0.356  0.00  0.00    -0.050 A 
ATOM     16  C   LIG    1       -4.908  -2.959   0.481  0.00  0.00    +0.044 C 
ATOM     17  C   LIG    1       -2.411  -2.857   0.339  0.00  0.00    +0.004 A 
ATOM     18  C   LIG    1       -1.230  -2.156   0.225  0.00  0.00    +0.012 A 
ENDBRANCH  10  12
ENDBRANCH   1  10
TORSDOF 3
