REMARK  Name = ZINC01446433
REMARK                            x       y       z     vdW  Elec       q    Type
REMARK                         _______ _______ _______ _____ _____    ______ ____
ROOT
ATOM      1  O   LIG    1       -0.333   5.170   0.167  0.00  0.00    -0.494 OA
ENDROOT
BRANCH   1   2
ATOM      2  C   LIG    1       -0.518   3.824   0.194  0.00  0.00    +0.120 A 
ATOM      3  C   LIG    1        0.578   2.973   0.213  0.00  0.00    +0.045 A 
ATOM      4  C   LIG    1        0.387   1.605   0.239  0.00  0.00    +0.004 A 
ATOM      5  C   LIG    1       -0.893   1.084   0.246  0.00  0.00    +0.000 A 
ATOM      6  C   LIG    1       -1.987   1.930   0.221  0.00  0.00    +0.004 A 
ATOM      7  C   LIG    1       -1.802   3.299   0.201  0.00  0.00    +0.045 A 
ENDBRANCH   1   2
BRANCH   1   8
ATOM      8  C   LIG    1       -1.507   5.986   0.149  0.00  0.00    +0.211 C 
BRANCH   8   9
ATOM      9  C   LIG    1       -1.102   7.461   0.120  0.00  0.00    -0.035 C 
BRANCH   9  11
ATOM     10  C   LIG    1       -1.308   7.361  -2.268  0.00  0.00    -0.093 C 
ATOM     11  N   LIG    1       -0.437   7.762  -1.155  0.00  0.00    +0.377 N 
ATOM     12  C   LIG    1        0.830   7.022  -1.232  0.00  0.00    -0.093 C 
ATOM     13  C   LIG    1       -0.169   9.204  -1.238  0.00  0.00    -0.093 C 
ENDBRANCH   9  11
ENDBRANCH   8   9
ENDBRANCH   1   8
TORSDOF 4
