REMARK  Name = ZINC01550501
REMARK                            x       y       z     vdW  Elec       q    Type
REMARK                         _______ _______ _______ _____ _____    ______ ____
ROOT
ATOM      1  C   LIG    1        4.161  -4.686  -3.410  0.00  0.00    +0.088 C 
ATOM      2  C   LIG    1        4.639  -4.992  -2.014  0.00  0.00    +0.126 A 
ATOM      3  C   LIG    1        3.966  -4.761  -0.871  0.00  0.00    +0.086 A 
ATOM      4  N   LIG    1        4.730  -5.180   0.148  0.00  0.00    -0.214 NA
ATOM      5  C   LIG    1        5.853  -5.656  -0.337  0.00  0.00    +0.228 A 
ATOM      6  O   LIG    1        5.820  -5.547  -1.677  0.00  0.00    -0.440 OA
ENDROOT
BRANCH   5   7
ATOM      7  C   LIG    1        6.966  -6.217   0.456  0.00  0.00    +0.037 A 
ATOM      8  C   LIG    1        6.877  -6.267   1.849  0.00  0.00    +0.014 A 
ATOM      9  C   LIG    1        7.913  -6.794   2.586  0.00  0.00    +0.009 A 
ATOM     10  C   LIG    1        9.056  -7.269   1.944  0.00  0.00    -0.018 A 
ATOM     11  C   LIG    1        9.149  -7.215   0.553  0.00  0.00    +0.009 A 
ATOM     12  C   LIG    1        8.112  -6.693  -0.187  0.00  0.00    +0.014 A 
BRANCH  10  13
ATOM     13  C   LIG    1       10.174  -7.832   2.739  0.00  0.00    -0.018 A 
ATOM     14  C   LIG    1       11.315  -8.312   2.100  0.00  0.00    +0.008 A 
ATOM     15  C   LIG    1       12.354  -8.831   2.846  0.00  0.00    +0.001 A 
ATOM     16  C   LIG    1       12.260  -8.883   4.225  0.00  0.00    +0.000 A 
ATOM     17  C   LIG    1       11.127  -8.413   4.865  0.00  0.00    +0.001 A 
ATOM     18  C   LIG    1       10.084  -7.888   4.129  0.00  0.00    +0.008 A 
ENDBRANCH  10  13
ENDBRANCH   5   7
BRANCH   3  19
ATOM     19  C   LIG    1        2.595  -4.146  -0.758  0.00  0.00    +0.100 C 
BRANCH  19  20
ATOM     20  C   LIG    1        2.726  -2.627  -0.628  0.00  0.00    +0.235 C 
BRANCH  20  21
ATOM     21  O   LIG    1        1.426  -2.044  -0.521  0.00  0.00    -0.492 OA
BRANCH  21  22
ATOM     22  C   LIG    1        1.364  -0.691  -0.398  0.00  0.00    +0.121 A 
ATOM     23  C   LIG    1        0.134  -0.060  -0.289  0.00  0.00    +0.049 A 
ATOM     24  C   LIG    1        0.071   1.314  -0.164  0.00  0.00    +0.049 A 
ATOM     25  C   LIG    1        1.238   2.063  -0.147  0.00  0.00    +0.122 A 
ATOM     26  C   LIG    1        2.469   1.432  -0.255  0.00  0.00    +0.049 A 
ATOM     27  C   LIG    1        2.531   0.057  -0.380  0.00  0.00    +0.049 A 
BRANCH  25  28
ATOM     28  O   LIG    1        1.177   3.416  -0.024  0.00  0.00    -0.475 OA
BRANCH  28  29
ATOM     29  C   LIG    1        2.417   4.112   0.112  0.00  0.00    +0.200 C 
ATOM     30  C   LIG    1        3.162   3.591   1.342  0.00  0.00    +0.067 C 
ATOM     31  C   LIG    1        2.146   5.609   0.276  0.00  0.00    +0.067 C 
BRANCH  29  32
ATOM     32  C   LIG    1        3.258   3.885  -1.118  0.00  0.00    +0.348 C 
ATOM     33  O   LIG    1        2.838   3.198  -2.019  0.00  0.00    -0.247 OA
BRANCH  32  34
ATOM     34  O   LIG    1        4.473   4.447  -1.214  0.00  0.00    -0.478 OA
ATOM     35  H   LIG    1        4.799   4.980  -0.515  0.00  0.00    +0.295 HD
ENDBRANCH  32  34
ENDBRANCH  29  32
ENDBRANCH  28  29
ENDBRANCH  25  28
ENDBRANCH  21  22
ENDBRANCH  20  21
ENDBRANCH  19  20
ENDBRANCH   3  19
TORSDOF 10
