REMARK  Name = ZINC01486728
REMARK                            x       y       z     vdW  Elec       q    Type
REMARK                         _______ _______ _______ _____ _____    ______ ____
ROOT
ATOM      1  C   LIG    1       -1.991   1.174   1.373  0.00  0.00    +0.165 A 
ATOM      2  C   LIG    1       -2.582   0.329   0.444  0.00  0.00    +0.054 A 
ATOM      3  C   LIG    1       -3.886  -0.092   0.616  0.00  0.00    -0.029 A 
ATOM      4  C   LIG    1       -4.611   0.344   1.721  0.00  0.00    +0.024 A 
ATOM      5  C   LIG    1       -4.018   1.202   2.658  0.00  0.00    +0.174 A 
ATOM      6  O   LIG    1       -4.750   1.611   3.727  0.00  0.00    -0.480 OA
ATOM      7  C   LIG    1       -6.151   1.800   3.521  0.00  0.00    +0.200 C 
ATOM      8  C   LIG    1       -6.746   0.616   2.807  0.00  0.00    +0.018 C 
ATOM      9  C   LIG    1       -6.011  -0.078   1.940  0.00  0.00    +0.011 C 
ATOM     10  C   LIG    1       -2.709   1.615   2.481  0.00  0.00    +0.204 A 
ENDROOT
BRANCH   7  11
ATOM     11  C   LIG    1       -6.372   3.059   2.680  0.00  0.00    +0.034 C 
ATOM     12  C   LIG    1       -6.907   4.302   3.396  0.00  0.00    +0.008 C 
ATOM     13  C   LIG    1       -7.816   3.512   2.452  0.00  0.00    +0.008 C 
ENDBRANCH   7  11
BRANCH   1  15
ATOM     14  C   LIG    1       -0.024   1.091   0.039  0.00  0.00    +0.277 C 
ATOM     15  O   LIG    1       -0.705   1.579   1.196  0.00  0.00    -0.491 OA
ENDBRANCH   1  15
BRANCH  10  16
ATOM     16  O   LIG    1       -2.126   2.447   3.387  0.00  0.00    -0.488 OA
ATOM     17  C   LIG    1       -2.163   3.846   3.099  0.00  0.00    +0.277 C 
ENDBRANCH  10  16
BRANCH   3  18
ATOM     18  C   LIG    1       -4.523  -1.015  -0.391  0.00  0.00    +0.076 C 
BRANCH  18  19
ATOM     19  C   LIG    1       -5.293  -0.202  -1.400  0.00  0.00    +0.015 A 
ATOM     20  C   LIG    1       -6.647   0.018  -1.243  0.00  0.00    +0.121 A 
ATOM     21  N   LIG    1       -7.296   0.737  -2.147  0.00  0.00    -0.223 NA
ATOM     22  C   LIG    1       -6.663   1.245  -3.195  0.00  0.00    +0.214 A 
ATOM     23  N   LIG    1       -5.366   1.057  -3.381  0.00  0.00    -0.200 NA
ATOM     24  C   LIG    1       -4.652   0.350  -2.511  0.00  0.00    +0.125 A 
BRANCH  22  25
ATOM     25  N   LIG    1       -7.377   1.991  -4.117  0.00  0.00    -0.327 N 
ATOM     26  H   LIG    1       -6.926   2.368  -4.889  0.00  0.00    +0.145 HD
ATOM     27  H   LIG    1       -8.327   2.136  -3.993  0.00  0.00    +0.145 HD
ENDBRANCH  22  25
BRANCH  24  28
ATOM     28  N   LIG    1       -3.294   0.159  -2.706  0.00  0.00    -0.343 N 
ATOM     29  H   LIG    1       -2.856   0.546  -3.480  0.00  0.00    +0.144 HD
ATOM     30  H   LIG    1       -2.781  -0.361  -2.068  0.00  0.00    +0.144 HD
ENDBRANCH  24  28
ENDBRANCH  18  19
ENDBRANCH   3  18
TORSDOF 7
