REMARK  Name = ZINC01666662
REMARK                            x       y       z     vdW  Elec       q    Type
REMARK                         _______ _______ _______ _____ _____    ______ ____
ROOT
ATOM      1  C   LIG    1        0.002  -0.004   0.002  0.00  0.00    +0.415 C 
ATOM      2  F   LIG    1        0.136  -0.476   1.312  0.00  0.00    -0.186 F 
ATOM      3  F   LIG    1        1.081  -0.452  -0.767  0.00  0.00    -0.186 F 
ENDROOT
BRANCH   1   4
ATOM      4  C   LIG    1       -1.304  -0.528  -0.598  0.00  0.00    +0.415 C 
ATOM      5  F   LIG    1       -1.438  -0.057  -1.908  0.00  0.00    -0.186 F 
ATOM      6  F   LIG    1       -2.383  -0.081   0.171  0.00  0.00    -0.186 F 
BRANCH   4   7
ATOM      7  C   LIG    1       -1.284  -2.035  -0.606  0.00  0.00    +0.382 C 
ATOM      8  O   LIG    1       -0.595  -2.635   0.186  0.00  0.00    -0.244 OA
BRANCH   7   9
ATOM      9  O   LIG    1       -2.030  -2.712  -1.493  0.00  0.00    -0.476 OA
ATOM     10  H   LIG    1       -2.564  -2.247  -2.107  0.00  0.00    +0.295 HD
ENDBRANCH   7   9
ENDBRANCH   4   7
ENDBRANCH   1   4
BRANCH   1  11
ATOM     11  C   LIG    1       -0.018   1.503   0.010  0.00  0.00    +0.382 C 
ATOM     12  O   LIG    1       -1.073   2.093   0.018  0.00  0.00    -0.244 OA
BRANCH  11  13
ATOM     13  O   LIG    1        1.135   2.190   0.003  0.00  0.00    -0.476 OA
ATOM     14  H   LIG    1        1.953   1.732  -0.003  0.00  0.00    +0.295 HD
ENDBRANCH  11  13
ENDBRANCH   1  11
TORSDOF 5
