REMARK  Name = ZINC01530977
REMARK                            x       y       z     vdW  Elec       q    Type
REMARK                         _______ _______ _______ _____ _____    ______ ____
ROOT
ATOM      1  C   LIG    1       -0.018   1.465   0.010  0.00  0.00    -0.095 C 
ATOM      2  N   LIG    1        0.002  -0.004   0.002  0.00  0.00    +0.383 N 
ATOM      3  H   LIG    1       -0.945  -0.353   0.009  0.00  0.00    -0.081 HD
ENDROOT
BRANCH   2   4
ATOM      4  C   LIG    1        0.713  -0.491   1.192  0.00  0.00    -0.042 C 
BRANCH   4   5
ATOM      5  C   LIG    1       -0.059  -0.109   2.429  0.00  0.00    -0.056 A 
ATOM      6  C   LIG    1        0.315   0.975   3.162  0.00  0.00    +0.002 A 
ATOM      7  C   LIG    1       -0.386   1.343   4.308  0.00  0.00    +0.001 A 
ATOM      8  C   LIG    1       -1.466   0.629   4.729  0.00  0.00    +0.008 A 
ATOM      9  C   LIG    1       -1.882  -0.497   3.998  0.00  0.00    -0.018 A 
ATOM     10  C   LIG    1       -2.992  -1.260   4.402  0.00  0.00    +0.008 A 
ATOM     11  C   LIG    1       -3.377  -2.333   3.659  0.00  0.00    +0.001 A 
ATOM     12  C   LIG    1       -2.675  -2.701   2.512  0.00  0.00    +0.001 A 
ATOM     13  C   LIG    1       -1.593  -1.990   2.095  0.00  0.00    +0.009 A 
ATOM     14  C   LIG    1       -1.173  -0.868   2.829  0.00  0.00    -0.017 A 
ENDBRANCH   4   5
ENDBRANCH   2   4
BRANCH   2  15
ATOM     15  C   LIG    1        0.690  -0.478  -1.207  0.00  0.00    -0.051 C 
BRANCH  15  16
ATOM     16  C   LIG    1       -0.106  -0.083  -2.424  0.00  0.00    -0.045 C 
ATOM     17  C   LIG    1        0.469   0.615  -3.394  0.00  0.00    +0.002 C 
BRANCH  17  18
ATOM     18  C   LIG    1       -0.311   1.002  -4.588  0.00  0.00    -0.025 A 
ATOM     19  C   LIG    1       -1.654   0.639  -4.696  0.00  0.00    +0.008 A 
ATOM     20  C   LIG    1       -2.377   1.003  -5.813  0.00  0.00    +0.001 A 
ATOM     21  C   LIG    1       -1.772   1.726  -6.826  0.00  0.00    +0.000 A 
ATOM     22  C   LIG    1       -0.441   2.088  -6.726  0.00  0.00    +0.001 A 
ATOM     23  C   LIG    1        0.291   1.736  -5.611  0.00  0.00    +0.008 A 
ENDBRANCH  17  18
ENDBRANCH  15  16
ENDBRANCH   2  15
TORSDOF 5
