REMARK  Name = ZINC01595936
REMARK                            x       y       z     vdW  Elec       q    Type
REMARK                         _______ _______ _______ _____ _____    ______ ____
ROOT
ATOM      1  C   LIG    1        2.370   1.463   0.455  0.00  0.00    +0.083 C 
ATOM      2 CL   LIG    1        3.937   2.212   0.450  0.00  0.00    -0.080 Cl
ATOM      3  C   LIG    1        1.304   2.163   0.001  0.00  0.00    +0.111 C 
ATOM      4 CL   LIG    1        1.486   3.790  -0.577  0.00  0.00    -0.078 Cl
ATOM      5  C   LIG    1       -0.018   1.507   0.010  0.00  0.00    +0.246 C 
ATOM      6  C   LIG    1        0.002  -0.004   0.002  0.00  0.00    +0.246 C 
ATOM      7  C   LIG    1        1.113  -0.631   0.744  0.00  0.00    +0.111 C 
ATOM      8 CL   LIG    1        0.982  -2.257   1.337  0.00  0.00    -0.078 Cl
ATOM      9  O   LIG    1       -0.840  -0.659  -0.577  0.00  0.00    -0.282 OA
ATOM     10  O   LIG    1       -1.054   2.139   0.019  0.00  0.00    -0.282 OA
ATOM     11  C   LIG    1        2.238   0.095   0.950  0.00  0.00    +0.083 C 
ATOM     12 CL   LIG    1        3.556  -0.620   1.824  0.00  0.00    -0.080 Cl
ENDROOT
TORSDOF 0
