REMARK  Name = ZINC01530641
REMARK                            x       y       z     vdW  Elec       q    Type
REMARK                         _______ _______ _______ _____ _____    ______ ____
ROOT
ATOM      1  C   LIG    1        0.045  -2.006   3.562  0.00  0.00    +0.229 C 
ENDROOT
BRANCH   1   2
ATOM      2  O   LIG    1        0.050  -2.776   2.358  0.00  0.00    -0.492 OA
BRANCH   2   9
ATOM      3  C   LIG    1       -0.018   1.503   0.010  0.00  0.00    +0.044 C 
ATOM      4  C   LIG    1        0.002  -0.004   0.002  0.00  0.00    -0.047 A 
ATOM      5  C   LIG    1        0.006  -0.688  -1.200  0.00  0.00    +0.004 A 
ATOM      6  C   LIG    1        0.024  -2.071  -1.211  0.00  0.00    +0.007 A 
ATOM      7  C   LIG    1        0.039  -2.772  -0.020  0.00  0.00    -0.009 A 
ATOM      8  C   LIG    1        0.059  -4.279  -0.033  0.00  0.00    +0.047 C 
ATOM      9  C   LIG    1        0.035  -2.088   1.186  0.00  0.00    +0.124 A 
ATOM     10  C   LIG    1        0.023  -0.700   1.195  0.00  0.00    +0.049 A 
ENDBRANCH   2   9
ENDBRANCH   1   2
BRANCH   1  11
ATOM     11  C   LIG    1        0.063  -2.946   4.769  0.00  0.00    +0.042 C 
BRANCH  11  12
ATOM     12  C   LIG    1        0.058  -2.122   6.058  0.00  0.00    +0.021 C 
BRANCH  12  13
ATOM     13  C   LIG    1        0.076  -3.062   7.265  0.00  0.00    +0.062 C 
ATOM     14  C   LIG    1        1.337  -3.928   7.218  0.00  0.00    +0.022 C 
ATOM     15  C   LIG    1       -1.161  -3.961   7.230  0.00  0.00    +0.022 C 
BRANCH  13  16
ATOM     16  C   LIG    1        0.071  -2.250   8.534  0.00  0.00    +0.310 C 
ATOM     17  O   LIG    1       -0.446  -2.699   9.543  0.00  0.00    -0.250 OA
BRANCH  16  18
ATOM     18  O   LIG    1        0.584  -1.144   8.553  0.00  0.00    -0.480 OA
ATOM     19  H   LIG    1        0.982  -0.799   7.778  0.00  0.00    +0.295 HD
ENDBRANCH  16  18
ENDBRANCH  13  16
ENDBRANCH  12  13
ENDBRANCH  11  12
ENDBRANCH   1  11
TORSDOF 7
