REMARK  Name = ZINC01491952
REMARK                            x       y       z     vdW  Elec       q    Type
REMARK                         _______ _______ _______ _____ _____    ______ ____
ROOT
ATOM      1  C   LIG    1       -6.794   6.126   1.428  0.00  0.00    +0.000 A 
ATOM      2  C   LIG    1       -6.694   4.925   2.104  0.00  0.00    +0.000 A 
ATOM      3  C   LIG    1       -5.534   4.181   2.016  0.00  0.00    +0.005 A 
ATOM      4  C   LIG    1       -4.468   4.632   1.251  0.00  0.00    -0.030 A 
ATOM      5  C   LIG    1       -4.571   5.828   0.574  0.00  0.00    -0.042 A 
ATOM      6  C   LIG    1       -3.444   6.354  -0.278  0.00  0.00    +0.051 C 
ATOM      7  C   LIG    1       -2.143   5.632   0.074  0.00  0.00    +0.091 C 
ATOM      8  N   LIG    1       -2.391   4.182   0.047  0.00  0.00    -0.283 NA
ATOM      9  C   LIG    1       -3.223   3.787   1.188  0.00  0.00    +0.121 C 
ATOM     10  C   LIG    1       -5.735   6.576   0.666  0.00  0.00    +0.004 A 
ENDROOT
BRANCH   8  11
ATOM     11  C   LIG    1       -1.196   3.472   0.032  0.00  0.00    +0.126 C 
ATOM     12  N   LIG    1       -0.045   4.208   0.025  0.00  0.00    -0.301 NA
ATOM     13  H   LIG    1       -0.054   5.234   0.031  0.00  0.00    +0.123 HD
ATOM     14  C   LIG    1        1.116   3.496   0.010  0.00  0.00    +0.084 C 
ATOM     15  C   LIG    1        1.173   2.120   0.002  0.00  0.00    +0.033 C 
ATOM     16  C   LIG    1       -0.017   1.388   0.010  0.00  0.00    +0.055 C 
ATOM     17  C   LIG    1       -1.221   2.084   0.019  0.00  0.00    +0.053 C 
BRANCH  16  18
ATOM     18  N   LIG    1        0.002  -0.004   0.002  0.00  0.00    -0.327 NA
ATOM     19  H   LIG    1       -0.831  -0.500   0.007  0.00  0.00    +0.118 HD
ATOM     20  H   LIG    1        0.849  -0.478  -0.009  0.00  0.00    +0.118 HD
ENDBRANCH  16  18
ENDBRANCH   8  11
TORSDOF 2
