REMARK  Name = ZINC01595221
REMARK                            x       y       z     vdW  Elec       q    Type
REMARK                         _______ _______ _______ _____ _____    ______ ____
ROOT
ATOM      1  N   LIG    1       -1.197  -0.720   0.010  0.00  0.00    -0.216 N 
ATOM      2  H   LIG    1       -2.057  -0.241   0.021  0.00  0.00    +0.174 HD
ENDROOT
BRANCH   1   8
ATOM      3  C   LIG    1       -0.017   1.385   0.010  0.00  0.00    +0.026 A 
ATOM      4  C   LIG    1        1.171   2.090   0.002  0.00  0.00    +0.030 A 
ATOM      5  C   LIG    1        2.377   1.415  -0.013  0.00  0.00    +0.105 A 
ATOM      6  C   LIG    1        2.400   0.032  -0.021  0.00  0.00    +0.030 A 
ATOM      7  C   LIG    1        1.216  -0.679  -0.014  0.00  0.00    +0.026 A 
ATOM      8  C   LIG    1        0.002  -0.004   0.002  0.00  0.00    +0.048 A 
BRANCH   5   9
ATOM      9  S   LIG    1        3.890   2.319  -0.024  0.00  0.00    +0.056 S 
ATOM     10  O   LIG    1        3.595   3.599  -0.566  0.00  0.00    -0.153 OA
ATOM     11  O   LIG    1        4.872   1.461  -0.589  0.00  0.00    -0.153 OA
BRANCH   9  12
ATOM     12  N   LIG    1        4.326   2.562   1.555  0.00  0.00    -0.204 NA
ATOM     13  H   LIG    1        5.141   3.046   1.764  0.00  0.00    +0.144 HD
ATOM     14  H   LIG    1        3.768   2.220   2.270  0.00  0.00    +0.144 HD
ENDBRANCH   9  12
ENDBRANCH   5   9
ENDBRANCH   1   8
BRANCH   1  15
ATOM     15  S   LIG    1       -1.172  -2.376   0.001  0.00  0.00    +0.072 S 
ATOM     16  O   LIG    1       -0.603  -2.781   1.239  0.00  0.00    -0.150 OA
ATOM     17  O   LIG    1       -0.628  -2.767  -1.252  0.00  0.00    -0.150 OA
BRANCH  15  18
ATOM     18  C   LIG    1       -2.848  -2.922   0.015  0.00  0.00    +0.109 A 
ATOM     19  C   LIG    1       -3.495  -3.137   1.217  0.00  0.00    +0.031 A 
ATOM     20  C   LIG    1       -4.809  -3.566   1.228  0.00  0.00    +0.034 A 
ATOM     21  C   LIG    1       -5.476  -3.779   0.036  0.00  0.00    +0.122 A 
ATOM     22  C   LIG    1       -4.830  -3.562  -1.166  0.00  0.00    +0.034 A 
ATOM     23  C   LIG    1       -3.517  -3.130  -1.177  0.00  0.00    +0.031 A 
BRANCH  21  24
ATOM     24  N   LIG    1       -6.883  -4.238   0.048  0.00  0.00    +0.006 N 
ATOM     25  O   LIG    1       -7.449  -4.427   1.099  0.00  0.00    -0.130 OA
BRANCH  24  26
ATOM     26  O   LIG    1       -7.467  -4.424  -0.995  0.00  0.00    -0.396 OA
ATOM     27  H   LIG    1       -7.029  -4.277  -1.810  0.00  0.00    +0.329 HD
ENDBRANCH  24  26
ENDBRANCH  21  24
ENDBRANCH  15  18
ENDBRANCH   1  15
TORSDOF 7
