REMARK  Name = ZINC01654295
REMARK                            x       y       z     vdW  Elec       q    Type
REMARK                         _______ _______ _______ _____ _____    ______ ____
ROOT
ATOM      1  C   LIG    1       -5.590   3.379  -2.335  0.00  0.00    +0.001 A 
ATOM      2  C   LIG    1       -4.566   4.118  -1.756  0.00  0.00    +0.001 A 
ATOM      3  C   LIG    1       -3.495   3.495  -1.180  0.00  0.00    +0.009 A 
ATOM      4  C   LIG    1       -3.427   2.099  -1.173  0.00  0.00    -0.010 A 
ATOM      5  C   LIG    1       -4.466   1.346  -1.760  0.00  0.00    -0.017 A 
ATOM      6  C   LIG    1       -4.402  -0.112  -1.756  0.00  0.00    +0.009 A 
ATOM      7  C   LIG    1       -3.359  -0.756  -1.196  0.00  0.00    +0.009 A 
ATOM      8  C   LIG    1       -2.261  -0.015  -0.576  0.00  0.00    -0.016 A 
ATOM      9  C   LIG    1       -1.196  -0.711  -0.005  0.00  0.00    +0.017 A 
ATOM     10  C   LIG    1       -0.143  -0.012   0.589  0.00  0.00    -0.017 A 
ATOM     11  C   LIG    1        0.950  -0.681   1.175  0.00  0.00    +0.008 A 
ATOM     12  C   LIG    1        1.952   0.043   1.741  0.00  0.00    +0.001 A 
ATOM     13  C   LIG    1        1.928   1.436   1.758  0.00  0.00    +0.001 A 
ATOM     14  C   LIG    1        0.901   2.140   1.209  0.00  0.00    +0.009 A 
ATOM     15  C   LIG    1       -0.165   1.452   0.608  0.00  0.00    -0.010 A 
ATOM     16  C   LIG    1       -1.254   2.135   0.031  0.00  0.00    -0.001 A 
ATOM     17  C   LIG    1       -2.289   1.402  -0.561  0.00  0.00    -0.002 A 
ATOM     18  C   LIG    1       -5.551   2.014  -2.343  0.00  0.00    +0.008 A 
ENDROOT
BRANCH  16  19
ATOM     19  C   LIG    1       -1.298   3.612   0.040  0.00  0.00    -0.010 A 
ATOM     20  C   LIG    1       -1.902   4.303   1.089  0.00  0.00    +0.016 A 
ATOM     21  C   LIG    1       -1.921   5.653   1.061  0.00  0.00    +0.046 A 
ATOM     22  S   LIG    1       -1.075   6.014  -0.468  0.00  0.00    -0.104 S 
ATOM     23  C   LIG    1       -0.739   4.337  -0.980  0.00  0.00    +0.053 A 
ENDBRANCH  16  19
TORSDOF 1
