REMARK  Name = ZINC01503084
REMARK                            x       y       z     vdW  Elec       q    Type
REMARK                         _______ _______ _______ _____ _____    ______ ____
ROOT
ATOM      1  N   LIG    1        0.693   3.946  -1.286  0.00  0.00    +0.382 N 
ATOM      2  H   LIG    1        1.158   3.519  -2.096  0.00  0.00    -0.081 HD
ATOM      3  C   LIG    1       -0.716   3.499  -1.251  0.00  0.00    -0.077 C 
ATOM      4  C   LIG    1       -0.751   1.969  -1.234  0.00  0.00    +0.004 C 
ATOM      5  C   LIG    1       -0.018   1.461   0.010  0.00  0.00    +0.078 C 
ATOM      6  C   LIG    1        1.418   1.992  -0.001  0.00  0.00    +0.004 C 
ATOM      7  C   LIG    1        1.391   3.521  -0.054  0.00  0.00    -0.077 C 
ENDROOT
BRANCH   5   8
ATOM      8  N   LIG    1        0.002  -0.004   0.002  0.00  0.00    -0.268 N 
ATOM      9  C   LIG    1       -0.552  -0.795   1.009  0.00  0.00    +0.040 A 
ATOM     10  C   LIG    1       -1.212  -0.443   2.185  0.00  0.00    +0.024 A 
ATOM     11  C   LIG    1       -1.678  -1.422   3.038  0.00  0.00    +0.002 A 
ATOM     12  C   LIG    1       -1.495  -2.759   2.734  0.00  0.00    +0.000 A 
ATOM     13  C   LIG    1       -0.849  -3.116   1.563  0.00  0.00    +0.006 A 
ATOM     14  C   LIG    1       -0.378  -2.141   0.713  0.00  0.00    -0.017 A 
ATOM     15  C   LIG    1        0.366  -2.195  -0.601  0.00  0.00    +0.133 C 
ATOM     16  C   LIG    1        0.561  -0.740  -0.973  0.00  0.00    +0.224 C 
ATOM     17  O   LIG    1        1.117  -0.319  -1.965  0.00  0.00    -0.275 OA
ENDBRANCH   5   8
BRANCH   1  18
ATOM     18  C   LIG    1        0.753   5.417  -1.418  0.00  0.00    -0.043 C 
BRANCH  18  22
ATOM     19  C   LIG    1       -1.899   6.651  -4.531  0.00  0.00    +0.000 A 
ATOM     20  C   LIG    1       -2.350   6.582  -3.226  0.00  0.00    +0.000 A 
ATOM     21  C   LIG    1       -1.492   6.182  -2.219  0.00  0.00    +0.002 A 
ATOM     22  C   LIG    1       -0.183   5.852  -2.516  0.00  0.00    -0.064 A 
ATOM     23  C   LIG    1        0.270   5.927  -3.821  0.00  0.00    +0.002 A 
ATOM     24  C   LIG    1       -0.590   6.322  -4.829  0.00  0.00    +0.000 A 
ENDBRANCH  18  22
ENDBRANCH   1  18
TORSDOF 3
