REMARK  Name = ZINC01611080
REMARK                            x       y       z     vdW  Elec       q    Type
REMARK                         _______ _______ _______ _____ _____    ______ ____
ROOT
ATOM      1  C   LIG    1       -3.252   2.027   4.866  0.00  0.00    +0.224 C 
ATOM      2  C   LIG    1       -2.140   1.801   5.914  0.00  0.00    +0.057 C 
ATOM      3  C   LIG    1       -0.830   1.968   5.112  0.00  0.00    +0.038 C 
ATOM      4  C   LIG    1       -1.306   2.276   3.675  0.00  0.00    +0.147 C 
ATOM      5  O   LIG    1       -2.635   1.716   3.599  0.00  0.00    -0.351 OA
ENDROOT
BRANCH   1   8
ATOM      6  C   LIG    1       -6.626   0.801   5.707  0.00  0.00    +0.061 A 
ATOM      7  C   LIG    1       -5.589   1.642   5.482  0.00  0.00    +0.096 A 
ATOM      8  N   LIG    1       -4.381   1.128   5.118  0.00  0.00    -0.273 N 
ATOM      9  C   LIG    1       -4.217  -0.202   4.996  0.00  0.00    +0.352 A 
ATOM     10  N   LIG    1       -5.226  -1.043   5.219  0.00  0.00    -0.178 NA
ATOM     11  O   LIG    1       -3.127  -0.645   4.675  0.00  0.00    -0.244 OA
ATOM     12  C   LIG    1       -6.422  -0.587   5.570  0.00  0.00    +0.123 A 
BRANCH  12  13
ATOM     13  N   LIG    1       -7.456  -1.465   5.799  0.00  0.00    -0.343 N 
ATOM     14  H   LIG    1       -8.329  -1.129   6.055  0.00  0.00    +0.144 HD
ATOM     15  H   LIG    1       -7.635  -1.994   4.969  0.00  0.00    +0.144 HD
ENDBRANCH  12  13
ENDBRANCH   1   8
BRANCH   4  16
ATOM     16  C   LIG    1       -0.385   1.604   2.654  0.00  0.00    +0.204 C 
BRANCH  16  17
ATOM     17  O   LIG    1       -0.772   1.995   1.335  0.00  0.00    -0.284 OA
BRANCH  17  18
ATOM     18  P   LIG    1       -0.018   1.476   0.010  0.00  0.00    +0.472 P 
ATOM     19  O   LIG    1        0.002  -0.004   0.002  0.00  0.00    -0.228 OA
BRANCH  18  20
ATOM     20  O   LIG    1       -0.797   2.009  -1.294  0.00  0.00    -0.303 OA
ATOM     21  H   LIG    1       -1.707   1.673  -1.287  0.00  0.00    +0.222 HD
ENDBRANCH  18  20
BRANCH  18  22
ATOM     22  O   LIG    1        1.492   2.033  -0.001  0.00  0.00    -0.303 OA
ATOM     23  H   LIG    1        1.962   1.712   0.785  0.00  0.00    +0.222 HD
ENDBRANCH  18  22
ENDBRANCH  17  18
ENDBRANCH  16  17
ENDBRANCH   4  16
TORSDOF 7
