REMARK  Name = ZINC01533679
REMARK                            x       y       z     vdW  Elec       q    Type
REMARK                         _______ _______ _______ _____ _____    ______ ____
ROOT
ATOM      1  C   LIG    1       -2.987  -2.027   4.476  0.00  0.00    +0.427 C 
ATOM      2  N   LIG    1       -2.063  -1.907   3.502  0.00  0.00    -0.122 N 
ATOM      3  H   LIG    1       -1.422  -2.619   3.351  0.00  0.00    +0.183 HD
ATOM      4  O   LIG    1       -3.844  -1.175   4.608  0.00  0.00    -0.224 OA
ENDROOT
BRANCH   2   5
ATOM      5  S   LIG    1       -2.021  -0.543   2.563  0.00  0.00    +0.212 S 
ATOM      6  O   LIG    1       -1.145  -0.823   1.480  0.00  0.00    -0.115 OA
ATOM      7  O   LIG    1       -3.370  -0.143   2.368  0.00  0.00    -0.115 OA
BRANCH   5   8
ATOM      8  O   LIG    1       -1.357   0.550   3.388  0.00  0.00    -0.331 OA
BRANCH   8   9
ATOM      9  C   LIG    1       -0.002   0.464   3.433  0.00  0.00    +0.165 A 
ATOM     10  C   LIG    1        0.618  -0.187   4.489  0.00  0.00    +0.000 A 
ATOM     11  C   LIG    1        1.997  -0.268   4.536  0.00  0.00    +0.007 A 
ATOM     12  C   LIG    1        2.758   0.292   3.527  0.00  0.00    +0.001 A 
ATOM     13  C   LIG    1        2.142   0.936   2.469  0.00  0.00    +0.007 A 
ATOM     14  C   LIG    1        0.764   1.021   2.419  0.00  0.00    +0.000 A 
BRANCH  10  15
ATOM     15  C   LIG    1       -0.210  -0.798   5.589  0.00  0.00    +0.017 C 
ATOM     16  C   LIG    1        0.031  -0.036   6.894  0.00  0.00    +0.012 C 
ATOM     17  C   LIG    1        0.189  -2.264   5.774  0.00  0.00    +0.012 C 
ENDBRANCH  10  15
BRANCH  14  18
ATOM     18  C   LIG    1        0.093   1.723   1.266  0.00  0.00    +0.017 C 
ATOM     19  C   LIG    1        0.555   3.181   1.219  0.00  0.00    +0.012 C 
ATOM     20  C   LIG    1        0.469   1.027  -0.043  0.00  0.00    +0.012 C 
ENDBRANCH  14  18
ENDBRANCH   8   9
ENDBRANCH   5   8
ENDBRANCH   2   5
BRANCH   1  21
ATOM     21  O   LIG    1       -2.961  -3.090   5.302  0.00  0.00    -0.410 OA
BRANCH  21  27
ATOM     22  C   LIG    1       -3.947  -2.562   7.402  0.00  0.00    -0.002 A 
ATOM     23  C   LIG    1       -4.998  -2.688   8.290  0.00  0.00    +0.007 A 
ATOM     24  C   LIG    1       -6.089  -3.471   7.965  0.00  0.00    +0.001 A 
ATOM     25  C   LIG    1       -6.134  -4.128   6.748  0.00  0.00    +0.007 A 
ATOM     26  C   LIG    1       -5.088  -4.002   5.855  0.00  0.00    -0.002 A 
ATOM     27  C   LIG    1       -3.992  -3.215   6.179  0.00  0.00    +0.140 A 
BRANCH  22  29
ATOM     28  C   LIG    1       -3.225  -0.301   8.122  0.00  0.00    +0.012 C 
ATOM     29  C   LIG    1       -2.755  -1.712   7.759  0.00  0.00    +0.016 C 
ATOM     30  C   LIG    1       -2.028  -2.330   8.954  0.00  0.00    +0.012 C 
ENDBRANCH  22  29
BRANCH  26  31
ATOM     31  C   LIG    1       -5.137  -4.718   4.530  0.00  0.00    +0.016 C 
ATOM     32  C   LIG    1       -6.357  -4.243   3.739  0.00  0.00    +0.012 C 
ATOM     33  C   LIG    1       -5.239  -6.226   4.769  0.00  0.00    +0.012 C 
ENDBRANCH  26  31
ENDBRANCH  21  27
ENDBRANCH   1  21
TORSDOF 9
