REMARK  Name = ZINC01531682
REMARK                            x       y       z     vdW  Elec       q    Type
REMARK                         _______ _______ _______ _____ _____    ______ ____
ROOT
ATOM      1  C   LIG    1       -2.826  -2.585   0.015  0.00  0.00    -0.029 A 
ATOM      2  C   LIG    1       -3.473  -2.828   1.217  0.00  0.00    +0.007 A 
ATOM      3  C   LIG    1       -4.773  -3.308   1.182  0.00  0.00    +0.035 A 
ATOM      4  CA  LIG    1       -5.381  -3.527  -0.053  0.00  0.00    +0.147 A 
ATOM      5  N   LIG    1       -4.726  -3.281  -1.181  0.00  0.00    -0.248 NA
ATOM      6  C   LIG    1       -3.494  -2.821  -1.177  0.00  0.00    +0.115 A 
ENDROOT
BRANCH   4   7
ATOM      7  C   LIG    1       -6.768  -4.040  -0.107  0.00  0.00    +0.355 C 
ATOM      8  O   LIG    1       -7.376  -4.268   0.928  0.00  0.00    -0.243 OA
BRANCH   7   9
ATOM      9  OXT LIG    1       -7.306  -4.234  -1.187  0.00  0.00    -0.476 OA
ATOM     10  HXT LIG    1       -6.840  -4.059  -1.981  0.00  0.00    +0.295 HD
ENDBRANCH   7   9
ENDBRANCH   4   7
BRANCH   1  11
ATOM     11  C   LIG    1       -1.413  -2.063   0.004  0.00  0.00    +0.036 C 
BRANCH  11  12
ATOM     12  C   LIG    1       -1.433  -0.534   0.013  0.00  0.00    +0.004 C 
BRANCH  12  14
ATOM     13  C   LIG    1       -0.019   1.526   0.010  0.00  0.00    +0.004 C 
ATOM     14  C   LIG    1        0.002  -0.004   0.002  0.00  0.00    -0.003 C 
ENDBRANCH  12  14
ENDBRANCH  11  12
ENDBRANCH   1  11
TORSDOF 5
