REMARK  Name = ZINC01437546
REMARK                            x       y       z     vdW  Elec       q    Type
REMARK                         _______ _______ _______ _____ _____    ______ ____
ROOT
ATOM      1  S   LIG    1        0.846  -4.716   4.381  0.00  0.00    -0.076 S 
ENDROOT
BRANCH   1   3
ATOM      2  N   LIG    1        2.541  -2.504   4.232  0.00  0.00    -0.187 N 
ATOM      3  C   LIG    1        2.200  -3.678   4.821  0.00  0.00    +0.214 A 
ATOM      4  N   LIG    1        3.073  -3.896   5.782  0.00  0.00    -0.101 NA
ATOM      5  N   LIG    1        3.931  -2.942   5.834  0.00  0.00    -0.022 NA
ATOM      6  N   LIG    1        3.682  -2.063   4.925  0.00  0.00    -0.038 NA
BRANCH   2  10
ATOM      7  C   LIG    1        0.626  -0.619   1.042  0.00  0.00    +0.120 A 
ATOM      8  C   LIG    1        1.202   0.140   2.051  0.00  0.00    +0.048 A 
ATOM      9  C   LIG    1        1.836  -0.484   3.107  0.00  0.00    +0.031 A 
ATOM     10  C   LIG    1        1.897  -1.870   3.159  0.00  0.00    +0.070 A 
ATOM     11  C   LIG    1        1.320  -2.628   2.150  0.00  0.00    +0.031 A 
ATOM     12  C   LIG    1        0.682  -2.004   1.097  0.00  0.00    +0.048 A 
BRANCH   7  14
ATOM     13  C   LIG    1       -0.017   1.425   0.010  0.00  0.00    +0.277 C 
ATOM     14  O   LIG    1        0.002  -0.004   0.002  0.00  0.00    -0.495 OA
ENDBRANCH   7  14
ENDBRANCH   2  10
ENDBRANCH   1   3
BRANCH   1  15
ATOM     15  C   LIG    1        0.959  -6.102   5.545  0.00  0.00    +0.157 C 
BRANCH  15  16
ATOM     16  C   LIG    1       -0.157  -7.078   5.275  0.00  0.00    +0.173 C 
ATOM     17  O   LIG    1       -0.951  -6.859   4.385  0.00  0.00    -0.291 OA
BRANCH  16  18
ATOM     18  C   LIG    1       -0.283  -8.293   6.090  0.00  0.00    +0.022 A 
ATOM     19  C   LIG    1        0.628  -8.545   7.122  0.00  0.00    +0.015 A 
ATOM     20  C   LIG    1        0.507  -9.684   7.885  0.00  0.00    +0.050 A 
ATOM     21  C   LIG    1       -0.518 -10.587   7.633  0.00  0.00    +0.158 A 
ATOM     22  C   LIG    1       -1.431 -10.344   6.607  0.00  0.00    +0.159 A 
ATOM     23  C   LIG    1       -1.320  -9.201   5.841  0.00  0.00    +0.060 A 
BRANCH  21  24
ATOM     24  O   LIG    1       -0.632 -11.710   8.388  0.00  0.00    -0.503 OA
ATOM     25  H   LIG    1       -1.186 -11.601   9.173  0.00  0.00    +0.292 HD
ENDBRANCH  21  24
BRANCH  22  26
ATOM     26  O   LIG    1       -2.432 -11.231   6.363  0.00  0.00    -0.503 OA
ATOM     27  H   LIG    1       -3.244 -11.054   6.859  0.00  0.00    +0.292 HD
ENDBRANCH  22  26
ENDBRANCH  16  18
ENDBRANCH  15  16
ENDBRANCH   1  15
TORSDOF 8
