REMARK  Name = ZINC01552536
REMARK                            x       y       z     vdW  Elec       q    Type
REMARK                         _______ _______ _______ _____ _____    ______ ____
ROOT
ATOM      1  C   LIG    1       -3.963   5.160   0.068  0.00  0.00    +0.082 C 
ENDROOT
BRANCH   1   2
ATOM      2  C   LIG    1       -3.743   3.646   0.058  0.00  0.00    +0.232 C 
BRANCH   2   3
ATOM      3  O   LIG    1       -5.007   2.980   0.066  0.00  0.00    -0.490 OA
BRANCH   3   6
ATOM      4  C   LIG    1       -3.754  -0.434   0.037  0.00  0.00    +0.019 A 
ATOM      5  C   LIG    1       -3.777   0.945   0.043  0.00  0.00    +0.048 A 
ATOM      6  C   LIG    1       -4.988   1.621   0.059  0.00  0.00    +0.141 A 
ATOM      7  C   LIG    1       -6.188   0.908   0.072  0.00  0.00    +0.068 A 
ATOM      8  C   LIG    1       -6.169  -0.475   0.060  0.00  0.00    +0.042 A 
ATOM      9  C   LIG    1       -4.949  -1.153   0.045  0.00  0.00    +0.063 A 
BRANCH   9  10
ATOM     10  C   LIG    1       -4.924  -2.632   0.038  0.00  0.00    +0.266 C 
ATOM     11  N   LIG    1       -6.093  -3.255   0.047  0.00  0.00    -0.288 N 
ATOM     12  H   LIG    1       -6.964  -2.712   0.058  0.00  0.00    +0.301 HD
ATOM     13  H   LIG    1       -6.128  -4.275   0.042  0.00  0.00    +0.301 HD
BRANCH  10  14
ATOM     14  N   LIG    1       -3.719  -3.301   0.023  0.00  0.00    -0.250 N 
ATOM     15  H   LIG    1       -3.702  -4.271   0.018  0.00  0.00    +0.288 HD
ATOM     16  H   LIG    1       -2.887  -2.801   0.017  0.00  0.00    +0.288 HD
ENDBRANCH  10  14
ENDBRANCH   9  10
BRANCH   7  17
ATOM     17  N   LIG    1       -7.409   1.592   0.093  0.00  0.00    -0.355 N 
ATOM     18  H   LIG    1       -8.242   1.096   0.102  0.00  0.00    +0.142 HD
ATOM     19  H   LIG    1       -7.421   2.562   0.098  0.00  0.00    +0.142 HD
ENDBRANCH   7  17
ENDBRANCH   3   6
ENDBRANCH   2   3
ENDBRANCH   1   2
BRANCH   1  20
ATOM     20  C   LIG    1       -2.610   5.873   0.059  0.00  0.00    +0.232 C 
BRANCH  20  21
ATOM     21  O   LIG    1       -2.816   7.287   0.069  0.00  0.00    -0.490 OA
BRANCH  21  22
ATOM     22  C   LIG    1       -1.707   8.072   0.062  0.00  0.00    +0.141 A 
ATOM     23  C   LIG    1       -0.448   7.492   0.047  0.00  0.00    +0.048 A 
ATOM     24  C   LIG    1        0.680   8.285   0.040  0.00  0.00    +0.019 A 
ATOM     25  C   LIG    1        0.558   9.675   0.047  0.00  0.00    +0.063 A 
ATOM     26  C   LIG    1       -0.709  10.261   0.063  0.00  0.00    +0.042 A 
ATOM     27  C   LIG    1       -1.838   9.461   0.065  0.00  0.00    +0.068 A 
BRANCH  25  28
ATOM     28  C   LIG    1        1.768  10.525   0.039  0.00  0.00    +0.266 C 
ATOM     29  N   LIG    1        1.583  11.837   0.047  0.00  0.00    -0.288 N 
ATOM     30  H   LIG    1        0.631  12.221   0.059  0.00  0.00    +0.301 HD
ATOM     31  H   LIG    1        2.386  12.466   0.042  0.00  0.00    +0.301 HD
BRANCH  28  32
ATOM     32  N   LIG    1        3.018   9.945   0.024  0.00  0.00    -0.250 N 
ATOM     33  H   LIG    1        3.812  10.503   0.019  0.00  0.00    +0.288 HD
ATOM     34  H   LIG    1        3.104   8.979   0.019  0.00  0.00    +0.288 HD
ENDBRANCH  28  32
ENDBRANCH  25  28
BRANCH  27  35
ATOM     35  N   LIG    1       -3.110  10.045   0.075  0.00  0.00    -0.355 N 
ATOM     36  H   LIG    1       -3.200  11.011   0.077  0.00  0.00    +0.142 HD
ATOM     37  H   LIG    1       -3.901   9.484   0.080  0.00  0.00    +0.142 HD
ENDBRANCH  27  35
ENDBRANCH  21  22
ENDBRANCH  20  21
ENDBRANCH   1  20
TORSDOF 12
