REMARK  Name = ZINC01586981
REMARK                            x       y       z     vdW  Elec       q    Type
REMARK                         _______ _______ _______ _____ _____    ______ ____
ROOT
ATOM      1  C   LIG    1       -2.132   0.671   0.026  0.00  0.00    +0.050 A 
ATOM      2  C   LIG    1       -1.379   1.798   0.031  0.00  0.00    +0.057 A 
ATOM      3  C   LIG    1       -0.017   1.407   0.010  0.00  0.00    +0.108 A 
ATOM      4  C   LIG    1        0.002  -0.004   0.002  0.00  0.00    +0.157 A 
ATOM      5  N   LIG    1        1.164  -0.642  -0.012  0.00  0.00    -0.234 NA
ATOM      6  C   LIG    1        2.292   0.043  -0.018  0.00  0.00    +0.133 A 
ATOM      7  C   LIG    1        2.275   1.430  -0.011  0.00  0.00    +0.131 A 
ATOM      8  N   LIG    1        1.130   2.084   0.003  0.00  0.00    -0.250 NA
ATOM      9  N   LIG    1       -1.306  -0.430   0.012  0.00  0.00    -0.338 N 
ATOM     10  H   LIG    1       -1.598  -1.355   0.010  0.00  0.00    +0.167 HD
ENDROOT
BRANCH   1  14
ATOM     11  C   LIG    1       -6.378   0.554   0.068  0.00  0.00    +0.000 A 
ATOM     12  C   LIG    1       -5.723   1.772   0.067  0.00  0.00    +0.001 A 
ATOM     13  C   LIG    1       -4.344   1.817   0.054  0.00  0.00    +0.010 A 
ATOM     14  C   LIG    1       -3.610   0.630   0.041  0.00  0.00    -0.002 A 
ATOM     15  C   LIG    1       -4.278  -0.596   0.035  0.00  0.00    +0.010 A 
ATOM     16  C   LIG    1       -5.657  -0.627   0.055  0.00  0.00    +0.001 A 
ENDBRANCH   1  14
TORSDOF 1
