REMARK  Name = ZINC01642928
REMARK                            x       y       z     vdW  Elec       q    Type
REMARK                         _______ _______ _______ _____ _____    ______ ____
ROOT
ATOM      1  C   LIG    1        2.862  -5.036  -4.139  0.00  0.00    +0.020 A 
ATOM      2  C   LIG    1        4.046  -4.368  -4.408  0.00  0.00    +0.015 A 
ATOM      3  C   LIG    1        4.364  -3.249  -3.632  0.00  0.00    +0.047 A 
ATOM      4  C   LIG    1        3.469  -2.845  -2.622  0.00  0.00    +0.123 A 
ATOM      5  C   LIG    1        3.784  -1.639  -1.811  0.00  0.00    +0.226 C 
ATOM      6  C   LIG    1        5.162  -1.075  -1.945  0.00  0.00    +0.092 C 
ATOM      7  C   LIG    1        5.764  -1.102  -3.339  0.00  0.00    +0.138 C 
ATOM      8  N   LIG    1        5.803  -0.593  -0.934  0.00  0.00    -0.284 NA
ATOM      9  O   LIG    1        2.961  -1.137  -1.074  0.00  0.00    -0.284 OA
ATOM     10  N   LIG    1        2.355  -3.525  -2.403  0.00  0.00    -0.251 NA
ATOM     11  C   LIG    1        5.617  -2.512  -3.869  0.00  0.00    +0.171 C 
ATOM     12  O   LIG    1        6.523  -3.031  -4.484  0.00  0.00    -0.292 OA
ATOM     13  C   LIG    1        2.038  -4.583  -3.120  0.00  0.00    +0.111 A 
ENDROOT
BRANCH   8  14
ATOM     14  C   LIG    1        7.084   0.088  -1.137  0.00  0.00    +0.146 C 
BRANCH  14  15
ATOM     15  C   LIG    1        8.203  -0.726  -0.483  0.00  0.00    +0.058 C 
BRANCH  15  16
ATOM     16  C   LIG    1        9.521  -0.026  -0.691  0.00  0.00    -0.043 A 
ATOM     17  C   LIG    1       10.281  -0.304  -1.812  0.00  0.00    +0.022 A 
ATOM     18  C   LIG    1       11.490   0.336  -2.005  0.00  0.00    +0.061 A 
ATOM     19 BR   LIG    1       12.530  -0.046  -3.538  0.00  0.00    -0.046 Br
ATOM     20  C   LIG    1       11.942   1.260  -1.073  0.00  0.00    +0.145 A 
ATOM     21  C   LIG    1       11.177   1.538   0.051  0.00  0.00    +0.061 A 
ATOM     22 BR   LIG    1       11.787   2.796   1.325  0.00  0.00    -0.046 Br
ATOM     23  C   LIG    1        9.965   0.898   0.237  0.00  0.00    +0.022 A 
BRANCH  20  24
ATOM     24  O   LIG    1       13.131   1.891  -1.260  0.00  0.00    -0.505 OA
ATOM     25  H   LIG    1       13.063   2.719  -1.754  0.00  0.00    +0.292 HD
ENDBRANCH  20  24
ENDBRANCH  15  16
ENDBRANCH  14  15
ENDBRANCH   8  14
TORSDOF 4
