REMARK  Name = ZINC01490484
REMARK                            x       y       z     vdW  Elec       q    Type
REMARK                         _______ _______ _______ _____ _____    ______ ____
ROOT
ATOM      1  C   LIG    1        1.341  -6.439  -0.042  0.00  0.00    +0.069 C 
ENDROOT
BRANCH   1   5
ATOM      2  C   LIG    1        1.253  -2.165  -0.021  0.00  0.00    -0.011 A 
ATOM      3  C   LIG    1        0.774  -2.880   1.075  0.00  0.00    +0.009 A 
ATOM      4  C   LIG    1        0.800  -4.260   1.061  0.00  0.00    +0.004 A 
ATOM      5  C   LIG    1        1.310  -4.933  -0.035  0.00  0.00    -0.045 A 
ATOM      6  C   LIG    1        1.791  -4.228  -1.124  0.00  0.00    +0.004 A 
ATOM      7  C   LIG    1        1.766  -2.849  -1.122  0.00  0.00    +0.009 A 
BRANCH   2  13
ATOM      8  C   LIG    1        0.002  -0.004   0.002  0.00  0.00    +0.131 A 
ATOM      9  C   LIG    1       -0.017   1.381   0.010  0.00  0.00    +0.046 A 
ATOM     10  C   LIG    1        1.169   2.093   0.002  0.00  0.00    +0.007 A 
ATOM     11  C   LIG    1        2.382   1.429  -0.013  0.00  0.00    +0.046 A 
ATOM     12  C   LIG    1        2.418   0.044  -0.021  0.00  0.00    +0.131 A 
ATOM     13  C   LIG    1        1.224  -0.682  -0.013  0.00  0.00    +0.065 A 
BRANCH   8  15
ATOM     14  C   LIG    1       -2.374   0.059   0.024  0.00  0.00    +0.277 C 
ATOM     15  O   LIG    1       -1.164  -0.701   0.009  0.00  0.00    -0.494 OA
ENDBRANCH   8  15
BRANCH  12  16
ATOM     16  O   LIG    1        3.611  -0.606  -0.035  0.00  0.00    -0.494 OA
ATOM     17  C   LIG    1        4.790   0.202  -0.042  0.00  0.00    +0.277 C 
ENDBRANCH  12  16
ENDBRANCH   2  13
ENDBRANCH   1   5
BRANCH   1  18
ATOM     18  CA  LIG    1        2.664  -6.925   0.552  0.00  0.00    +0.186 C 
BRANCH  18  19
ATOM     19  N   LIG    1        3.770  -6.510  -0.315  0.00  0.00    -0.298 N 
ATOM     20  H   LIG    1        3.612  -6.343  -1.257  0.00  0.00    +0.150 HD
ATOM     21  C   LIG    1        5.008  -6.360   0.197  0.00  0.00    +0.248 C 
ATOM     22  O   LIG    1        5.207  -6.569   1.378  0.00  0.00    -0.270 OA
BRANCH  21  23
ATOM     23  C   LIG    1        6.123  -5.942  -0.677  0.00  0.00    +0.073 A 
ATOM     24  C   LIG    1        6.407  -4.585  -0.851  0.00  0.00    +0.054 A 
ATOM     25 CL   LIG    1        5.451  -3.384  -0.041  0.00  0.00    -0.083 Cl
ATOM     26  C   LIG    1        7.455  -4.202  -1.665  0.00  0.00    +0.021 A 
ATOM     27  C   LIG    1        8.215  -5.157  -2.316  0.00  0.00    +0.003 A 
ATOM     28  C   LIG    1        7.936  -6.502  -2.153  0.00  0.00    +0.021 A 
ATOM     29  C   LIG    1        6.895  -6.901  -1.338  0.00  0.00    +0.054 A 
ATOM     30 CL   LIG    1        6.546  -8.589  -1.135  0.00  0.00    -0.083 Cl
ENDBRANCH  21  23
ENDBRANCH  18  19
BRANCH  18  31
ATOM     31  C   LIG    1        2.646  -8.428   0.658  0.00  0.00    +0.326 C 
ATOM     32  O   LIG    1        3.472  -9.085   0.070  0.00  0.00    -0.249 OA
BRANCH  31  33
ATOM     33  OXT LIG    1        1.712  -9.037   1.406  0.00  0.00    -0.479 OA
ATOM     34  HXT LIG    1        1.072  -8.527   1.862  0.00  0.00    +0.295 HD
ENDBRANCH  31  33
ENDBRANCH  18  31
ENDBRANCH   1  18
TORSDOF 9
