REMARK  Name = ZINC01444851
REMARK                            x       y       z     vdW  Elec       q    Type
REMARK                         _______ _______ _______ _____ _____    ______ ____
ROOT
ATOM      1  C   LIG    1        3.711  -0.707  -0.038  0.00  0.00    -0.041 C 
ATOM      2  C   LIG    1        4.038  -1.262   1.371  0.00  0.00    -0.013 C 
ATOM      3  C   LIG    1        4.990  -2.439   1.032  0.00  0.00    -0.020 C 
ATOM      4  C   LIG    1        4.407  -2.988  -0.287  0.00  0.00    -0.082 C 
ATOM      5  N   LIG    1        3.621  -1.901  -0.904  0.00  0.00    +0.384 N 
ATOM      6  H   LIG    1        3.994  -1.687  -1.817  0.00  0.00    -0.085 HD
ATOM      7  H   LIG    1        2.658  -2.187  -0.991  0.00  0.00    -0.085 HD
ENDROOT
BRANCH   1  11
ATOM      8  C   LIG    1       -0.017   1.378   0.010  0.00  0.00    +0.000 A 
ATOM      9  C   LIG    1        1.171   2.086   0.002  0.00  0.00    +0.000 A 
ATOM     10  C   LIG    1        2.377   1.411  -0.013  0.00  0.00    +0.002 A 
ATOM     11  C   LIG    1        2.396   0.029  -0.020  0.00  0.00    -0.061 A 
ATOM     12  C   LIG    1        1.208  -0.679  -0.012  0.00  0.00    +0.002 A 
ATOM     13  C   LIG    1        0.002  -0.004   0.002  0.00  0.00    +0.000 A 
ENDBRANCH   1  11
TORSDOF 1
