REMARK  Name = ZINC01530613
REMARK                            x       y       z     vdW  Elec       q    Type
REMARK                         _______ _______ _______ _____ _____    ______ ____
ROOT
ATOM      1  C   LIG    1        5.308  -2.104  -4.061  0.00  0.00    +0.071 C 
ATOM      2  C   LIG    1        5.471  -0.638  -3.655  0.00  0.00    +0.018 C 
ATOM      3  C   LIG    1        4.874  -0.425  -2.263  0.00  0.00    +0.001 C 
ATOM      4  C   LIG    1        5.600  -1.317  -1.254  0.00  0.00    +0.000 C 
ATOM      5  C   LIG    1        5.437  -2.783  -1.660  0.00  0.00    +0.001 C 
ATOM      6  C   LIG    1        6.034  -2.996  -3.053  0.00  0.00    +0.018 C 
ENDROOT
BRANCH   1   7
ATOM      7  C   LIG    1        5.904  -2.317  -5.454  0.00  0.00    +0.006 C 
ATOM      8  C   LIG    1        5.741  -3.783  -5.860  0.00  0.00    +0.004 C 
ATOM      9  C   LIG    1        6.338  -3.996  -7.252  0.00  0.00    +0.000 C 
ATOM     10  C   LIG    1        5.612  -3.103  -8.261  0.00  0.00    +0.000 C 
ATOM     11  C   LIG    1        5.775  -1.637  -7.854  0.00  0.00    +0.000 C 
ATOM     12  C   LIG    1        5.178  -1.424  -6.462  0.00  0.00    +0.004 C 
ENDBRANCH   1   7
BRANCH   1  13
ATOM     13  C   LIG    1        3.843  -2.459  -4.082  0.00  0.00    +0.314 C 
ATOM     14  O   LIG    1        3.328  -2.837  -5.108  0.00  0.00    -0.250 OA
BRANCH  13  15
ATOM     15  O   LIG    1        3.111  -2.356  -2.962  0.00  0.00    -0.466 OA
BRANCH  15  16
ATOM     16  C   LIG    1        1.760  -2.816  -3.026  0.00  0.00    +0.214 C 
BRANCH  16  17
ATOM     17  C   LIG    1        1.055  -2.514  -1.702  0.00  0.00    -0.037 C 
BRANCH  17  18
ATOM     18  N   LIG    1        0.969  -1.060  -1.514  0.00  0.00    +0.382 N 
ATOM     19  H   LIG    1        1.891  -0.656  -1.584  0.00  0.00    -0.082 HD
BRANCH  18  21
ATOM     20  C   LIG    1        0.111   1.043  -2.431  0.00  0.00    -0.017 C 
ATOM     21  C   LIG    1        0.102  -0.483  -2.549  0.00  0.00    -0.082 C 
ENDBRANCH  18  21
BRANCH  18  22
ATOM     22  C   LIG    1        0.408  -0.770  -0.187  0.00  0.00    -0.082 C 
ATOM     23  C   LIG    1        1.382  -1.244   0.893  0.00  0.00    -0.017 C 
ENDBRANCH  18  22
ENDBRANCH  17  18
ENDBRANCH  16  17
ENDBRANCH  15  16
ENDBRANCH  13  15
ENDBRANCH   1  13
TORSDOF 8
