REMARK  Name = ZINC01537496
REMARK                            x       y       z     vdW  Elec       q    Type
REMARK                         _______ _______ _______ _____ _____    ______ ____
ROOT
ATOM      1  C   LIG    1       -0.847  -6.468   1.648  0.00  0.00    +0.084 C 
ENDROOT
BRANCH   1   5
ATOM      2  N   LIG    1        0.097  -2.777  -0.113  0.00  0.00    -0.325 N 
ATOM      3  C   LIG    1       -1.306  -3.214  -0.188  0.00  0.00    +0.120 C 
ATOM      4  C   LIG    1       -1.357  -4.728   0.043  0.00  0.00    +0.103 C 
ATOM      5  N   LIG    1       -0.672  -5.051   1.302  0.00  0.00    -0.299 NA
ATOM      6  C   LIG    1        0.752  -4.696   1.240  0.00  0.00    +0.103 C 
ATOM      7  C   LIG    1        0.891  -3.186   1.055  0.00  0.00    +0.120 C 
BRANCH   2  13
ATOM      8  C   LIG    1        0.606  -0.608  -1.057  0.00  0.00    +0.141 A 
ATOM      9  C   LIG    1        1.173   0.158  -2.062  0.00  0.00    +0.047 A 
ATOM     10  C   LIG    1        1.786  -0.457  -3.138  0.00  0.00    +0.004 A 
ATOM     11  C   LIG    1        1.837  -1.836  -3.214  0.00  0.00    +0.002 A 
ATOM     12  C   LIG    1        1.274  -2.608  -2.214  0.00  0.00    +0.027 A 
ATOM     13  C   LIG    1        0.662  -1.998  -1.129  0.00  0.00    +0.072 A 
BRANCH   8  15
ATOM     14  C   LIG    1       -0.017   1.425   0.010  0.00  0.00    +0.277 C 
ATOM     15  O   LIG    1        0.002  -0.004   0.002  0.00  0.00    -0.493 OA
ENDBRANCH   8  15
ENDBRANCH   2  13
ENDBRANCH   1   5
BRANCH   1  16
ATOM     16  C   LIG    1       -0.342  -6.712   3.071  0.00  0.00    +0.017 C 
BRANCH  16  17
ATOM     17  C   LIG    1       -0.524  -8.188   3.431  0.00  0.00    +0.021 C 
BRANCH  17  18
ATOM     18  C   LIG    1       -0.018  -8.431   4.854  0.00  0.00    +0.117 C 
BRANCH  18  19
ATOM     19  N   LIG    1       -0.193  -9.845   5.199  0.00  0.00    -0.234 N 
ATOM     20  C   LIG    1       -1.297 -10.358   5.770  0.00  0.00    +0.254 C 
ATOM     21  C   LIG    1       -1.097 -11.810   5.961  0.00  0.00    +0.049 A 
ATOM     22  C   LIG    1       -1.870 -12.833   6.487  0.00  0.00    +0.014 A 
ATOM     23  C   LIG    1       -1.370 -14.125   6.519  0.00  0.00    +0.001 A 
ATOM     24  C   LIG    1       -0.107 -14.400   6.030  0.00  0.00    +0.001 A 
ATOM     25  C   LIG    1        0.678 -13.388   5.501  0.00  0.00    +0.014 A 
ATOM     26  C   LIG    1        0.191 -12.091   5.462  0.00  0.00    +0.049 A 
ATOM     27  O   LIG    1       -2.292  -9.733   6.077  0.00  0.00    -0.270 OA
ATOM     28  C   LIG    1        0.729 -10.800   4.981  0.00  0.00    +0.254 C 
ATOM     29  O   LIG    1        1.819 -10.631   4.475  0.00  0.00    -0.270 OA
ENDBRANCH  18  19
ENDBRANCH  17  18
ENDBRANCH  16  17
ENDBRANCH   1  16
TORSDOF 7
