REMARK  Name = ZINC01604018
REMARK                            x       y       z     vdW  Elec       q    Type
REMARK                         _______ _______ _______ _____ _____    ______ ____
ROOT
ATOM      1  C   LIG    1       -0.018   1.503   0.010  0.00  0.00    +0.037 C 
ATOM      2  C   LIG    1        0.002  -0.004   0.002  0.00  0.00    -0.093 C 
ATOM      3  C   LIG    1        0.005  -0.612  -1.149  0.00  0.00    -0.023 C 
ATOM      4  C   LIG    1        0.038  -2.109  -1.250  0.00  0.00    +0.029 C 
ATOM      5  C   LIG    1       -0.836  -2.611  -2.354  0.00  0.00    -0.033 A 
ATOM      6  C   LIG    1       -1.202  -1.989  -3.503  0.00  0.00    +0.005 A 
ATOM      7  C   LIG    1       -2.026  -2.635  -4.425  0.00  0.00    +0.002 A 
ATOM      8  C   LIG    1       -2.524  -3.920  -4.258  0.00  0.00    +0.026 A 
ATOM      9  C   LIG    1       -2.169  -4.587  -3.087  0.00  0.00    +0.047 A 
ATOM     10  N   LIG    1       -2.405  -5.802  -2.518  0.00  0.00    -0.360 N 
ATOM     11  H   LIG    1       -2.940  -6.505  -2.917  0.00  0.00    +0.165 HD
ATOM     12  C   LIG    1       -1.771  -5.891  -1.287  0.00  0.00    +0.087 A 
ATOM     13  C   LIG    1       -1.117  -4.769  -1.026  0.00  0.00    -0.024 A 
ATOM     14  C   LIG    1       -0.280  -4.248   0.117  0.00  0.00    +0.023 C 
ATOM     15  C   LIG    1       -1.346  -3.904  -2.184  0.00  0.00    +0.006 A 
ATOM     16  C   LIG    1       -0.393  -2.719   0.085  0.00  0.00    -0.053 C 
ATOM     17  N   LIG    1        0.415  -2.124   1.155  0.00  0.00    +0.383 N 
ATOM     18  H   LIG    1        1.392  -2.173   0.909  0.00  0.00    -0.081 HD
ATOM     19  C   LIG    1        0.182  -2.852   2.410  0.00  0.00    -0.095 C 
ATOM     20  C   LIG    1        0.024  -0.719   1.321  0.00  0.00    -0.048 C 
ENDROOT
TORSDOF 0
