REMARK  Name = ZINC01488294
REMARK                            x       y       z     vdW  Elec       q    Type
REMARK                         _______ _______ _______ _____ _____    ______ ____
ROOT
ATOM      1  C   LIG    1       -3.172  -5.289  -0.394  0.00  0.00    -0.019 A 
ATOM      2  C   LIG    1       -2.500  -6.449  -0.458  0.00  0.00    +0.087 A 
ATOM      3  N   LIG    1       -1.154  -6.214  -0.398  0.00  0.00    -0.360 N 
ATOM      4  C   LIG    1       -0.920  -4.859  -0.291  0.00  0.00    +0.047 A 
ATOM      5  C   LIG    1        0.239  -4.095  -0.197  0.00  0.00    +0.028 A 
ATOM      6  C   LIG    1        0.154  -2.724  -0.104  0.00  0.00    +0.025 A 
ATOM      7  C   LIG    1       -1.087  -2.089  -0.091  0.00  0.00    +0.034 A 
ATOM      8  C   LIG    1       -2.250  -2.831  -0.184  0.00  0.00    +0.033 A 
ATOM      9  H   LIG    1       -0.467  -6.898  -0.426  0.00  0.00    +0.165 HD
ATOM     10  C   LIG    1       -2.174  -4.222  -0.284  0.00  0.00    +0.005 A 
ENDROOT
BRANCH   1  16
ATOM     11  C   LIG    1       -8.766  -6.317  -0.652  0.00  0.00    -0.096 C 
ATOM     12  N   LIG    1       -7.289  -6.325  -0.605  0.00  0.00    +0.378 N 
ATOM     13  H   LIG    1       -6.959  -7.296  -0.669  0.00  0.00    -0.082 HD
ATOM     14  C   LIG    1       -6.821  -5.743   0.670  0.00  0.00    -0.079 C 
ATOM     15  C   LIG    1       -5.298  -5.871   0.745  0.00  0.00    -0.011 C 
ATOM     16  C   LIG    1       -4.668  -5.116  -0.429  0.00  0.00    +0.018 C 
ATOM     17  C   LIG    1       -5.218  -5.680  -1.742  0.00  0.00    -0.011 C 
ATOM     18  C   LIG    1       -6.744  -5.558  -1.745  0.00  0.00    -0.079 C 
ENDBRANCH   1  16
BRANCH   7  19
ATOM     19  N   LIG    1       -1.156  -0.694   0.009  0.00  0.00    -0.281 N 
ATOM     20  H   LIG    1       -1.865  -0.209  -0.441  0.00  0.00    +0.155 HD
ATOM     21  C   LIG    1       -0.236  -0.024   0.732  0.00  0.00    +0.248 C 
ATOM     22  O   LIG    1        0.596  -0.636   1.374  0.00  0.00    -0.270 OA
BRANCH  21  23
ATOM     23  C   LIG    1       -0.238   1.453   0.744  0.00  0.00    +0.037 A 
ATOM     24  C   LIG    1       -1.189   2.158   0.002  0.00  0.00    +0.016 A 
ATOM     25  C   LIG    1       -1.191   3.536   0.022  0.00  0.00    +0.039 A 
ATOM     26  C   LIG    1       -0.243   4.223   0.766  0.00  0.00    +0.123 A 
ATOM     27  F   LIG    1       -0.246   5.574   0.777  0.00  0.00    -0.205 F 
ATOM     28  C   LIG    1        0.707   3.527   1.499  0.00  0.00    +0.039 A 
ATOM     29  C   LIG    1        0.713   2.149   1.492  0.00  0.00    +0.016 A 
ENDBRANCH  21  23
ENDBRANCH   7  19
TORSDOF 3
