REMARK  Name = ZINC01590754
REMARK                            x       y       z     vdW  Elec       q    Type
REMARK                         _______ _______ _______ _____ _____    ______ ____
ROOT
ATOM      1  C   LIG    1       -0.017   1.378   0.010  0.00  0.00    +0.004 A 
ATOM      2  C   LIG    1        1.166   2.089   0.002  0.00  0.00    +0.013 A 
ATOM      3  C   LIG    1        2.386   1.411  -0.013  0.00  0.00    +0.040 A 
ATOM      4  C   LIG    1        2.404   0.016  -0.021  0.00  0.00    +0.058 A 
ATOM      5  C   LIG    1        1.211  -0.687  -0.013  0.00  0.00    +0.118 A 
ATOM      6  C   LIG    1        0.002  -0.004   0.002  0.00  0.00    +0.045 A 
ENDROOT
BRANCH   3   7
ATOM      7  C   LIG    1        3.656   2.169  -0.022  0.00  0.00    +0.242 C 
ATOM      8  N   LIG    1        3.636   3.517  -0.015  0.00  0.00    -0.325 N 
ATOM      9  H   LIG    1        4.469   4.014  -0.020  0.00  0.00    +0.145 HD
ATOM     10  H   LIG    1        2.789   3.989  -0.004  0.00  0.00    +0.145 HD
ATOM     11  O   LIG    1        4.717   1.577  -0.035  0.00  0.00    -0.270 OA
ENDBRANCH   3   7
BRANCH   5  12
ATOM     12  O   LIG    1        1.223  -2.046  -0.021  0.00  0.00    -0.507 OA
ATOM     13  H   LIG    1        1.236  -2.444   0.860  0.00  0.00    +0.292 HD
ENDBRANCH   5  12
TORSDOF 2
