REMARK  Name = ZINC01549583
REMARK                            x       y       z     vdW  Elec       q    Type
REMARK                         _______ _______ _______ _____ _____    ______ ____
ROOT
ATOM      1  C   LIG    1        1.109  -0.196   6.063  0.00  0.00    +0.235 A 
ATOM      2  C   LIG    1        0.542   0.146   7.293  0.00  0.00    +0.101 A 
ATOM      3  C   LIG    1        1.145  -0.630   8.262  0.00  0.00    +0.128 A 
ATOM      4  N   LIG    1        2.059  -1.425   7.629  0.00  0.00    -0.251 N 
ATOM      5  N   LIG    1        2.007  -1.132   6.261  0.00  0.00    -0.133 NA
ENDROOT
BRANCH   3   6
ATOM      6  C   LIG    1        0.858  -0.605   9.705  0.00  0.00    +0.266 C 
ATOM      7  N   LIG    1        1.409  -1.528  10.517  0.00  0.00    -0.280 N 
ATOM      8  H   LIG    1        1.891  -2.281  10.140  0.00  0.00    +0.155 HD
ATOM      9  O   LIG    1        0.123   0.248  10.164  0.00  0.00    -0.268 OA
BRANCH   7  10
ATOM     10  C   LIG    1        1.288  -1.401  11.906  0.00  0.00    +0.034 A 
ATOM     11  C   LIG    1        0.229  -0.683  12.448  0.00  0.00    +0.027 A 
ATOM     12  C   LIG    1        0.110  -0.558  13.818  0.00  0.00    +0.047 A 
ATOM     13  C   LIG    1        1.047  -1.148  14.653  0.00  0.00    +0.120 A 
ATOM     14  C   LIG    1        2.105  -1.865  14.113  0.00  0.00    +0.047 A 
ATOM     15  C   LIG    1        2.222  -1.996  12.743  0.00  0.00    +0.027 A 
BRANCH  13  16
ATOM     16  O   LIG    1        0.929  -1.024  16.002  0.00  0.00    -0.495 OA
ATOM     17  C   LIG    1        1.930  -1.657  16.802  0.00  0.00    +0.277 C 
ENDBRANCH  13  16
ENDBRANCH   7  10
ENDBRANCH   3   6
BRANCH   1  18
ATOM     18  O   LIG    1        0.781   0.347   4.860  0.00  0.00    -0.475 OA
BRANCH  18  19
ATOM     19  C   LIG    1        1.478  -0.147   3.714  0.00  0.00    +0.229 C 
BRANCH  19  20
ATOM     20  C   LIG    1        0.978   0.578   2.462  0.00  0.00    +0.022 C 
BRANCH  20  21
ATOM     21  C   LIG    1        1.723   0.049   1.236  0.00  0.00    -0.076 C 
BRANCH  21  23
ATOM     22  C   LIG    1        1.596   2.168   0.118  0.00  0.00    -0.097 C 
ATOM     23  N   LIG    1        1.244   0.744   0.034  0.00  0.00    +0.376 N 
ATOM     24  H   LIG    1        0.241   0.649  -0.032  0.00  0.00    -0.083 HD
ATOM     25  C   LIG    1        1.871   0.154  -1.157  0.00  0.00    -0.097 C 
ENDBRANCH  21  23
ENDBRANCH  20  21
ENDBRANCH  19  20
ENDBRANCH  18  19
ENDBRANCH   1  18
BRANCH   4  26
ATOM     26  C   LIG    1        2.933  -2.412   8.268  0.00  0.00    +0.179 C 
BRANCH  26  27
ATOM     27  C   LIG    1        3.888  -2.974   7.246  0.00  0.00    -0.026 A 
ATOM     28  C   LIG    1        3.499  -4.033   6.448  0.00  0.00    +0.005 A 
ATOM     29  C   LIG    1        4.375  -4.549   5.510  0.00  0.00    +0.000 A 
ATOM     30  C   LIG    1        5.638  -4.005   5.371  0.00  0.00    +0.000 A 
ATOM     31  C   LIG    1        6.026  -2.945   6.169  0.00  0.00    +0.000 A 
ATOM     32  C   LIG    1        5.149  -2.427   7.104  0.00  0.00    +0.005 A 
ENDBRANCH  26  27
ENDBRANCH   4  26
TORSDOF 10
