REMARK  Name = ZINC01486219
REMARK                            x       y       z     vdW  Elec       q    Type
REMARK                         _______ _______ _______ _____ _____    ______ ____
ROOT
ATOM      1  C   LIG    1       -3.462   0.992   1.250  0.00  0.00    +0.221 A 
ATOM      2  N   LIG    1       -3.957  -0.165   1.677  0.00  0.00    -0.222 NA
ATOM      3  C   LIG    1       -5.144  -0.230   2.251  0.00  0.00    +0.126 A 
ATOM      4  C   LIG    1       -5.881   0.954   2.405  0.00  0.00    +0.037 A 
ATOM      5  C   LIG    1       -7.157   0.949   3.013  0.00  0.00    +0.027 A 
ATOM      6  C   LIG    1       -7.837   2.130   3.140  0.00  0.00    +0.050 A 
ATOM      7  C   LIG    1       -7.228   3.367   2.646  0.00  0.00    +0.260 A 
ATOM      8  N   LIG    1       -6.010   3.343   2.071  0.00  0.00    -0.295 N 
ATOM      9  C   LIG    1       -5.414   4.589   1.583  0.00  0.00    +0.154 C 
ATOM     10  O   LIG    1       -7.825   4.423   2.756  0.00  0.00    -0.267 OA
ATOM     11  C   LIG    1       -5.321   2.163   1.939  0.00  0.00    +0.148 A 
ATOM     12  N   LIG    1       -4.117   2.135   1.379  0.00  0.00    -0.196 NA
ENDROOT
BRANCH   6  13
ATOM     13  C   LIG    1       -9.177   2.158   3.772  0.00  0.00    +0.024 A 
ATOM     14  C   LIG    1      -10.323   1.998   2.991  0.00  0.00    +0.050 A 
ATOM     15 CL   LIG    1      -10.182   1.766   1.277  0.00  0.00    -0.083 Cl
ATOM     16  C   LIG    1      -11.569   2.020   3.587  0.00  0.00    +0.021 A 
ATOM     17  C   LIG    1      -11.682   2.210   4.953  0.00  0.00    +0.003 A 
ATOM     18  C   LIG    1      -10.551   2.374   5.731  0.00  0.00    +0.021 A 
ATOM     19  C   LIG    1       -9.299   2.349   5.149  0.00  0.00    +0.050 A 
ATOM     20 CL   LIG    1       -7.880   2.556   6.127  0.00  0.00    -0.083 Cl
ENDBRANCH   6  13
BRANCH   1  21
ATOM     21  N   LIG    1       -2.215   1.003   0.656  0.00  0.00    -0.284 N 
ATOM     22  H   LIG    1       -1.804   1.845   0.406  0.00  0.00    +0.155 HD
BRANCH  21  26
ATOM     23  C   LIG    1       -0.214  -2.584  -0.059  0.00  0.00    +0.121 A 
ATOM     24  C   LIG    1       -1.597  -2.530  -0.157  0.00  0.00    +0.047 A 
ATOM     25  C   LIG    1       -2.260  -1.342   0.080  0.00  0.00    +0.027 A 
ATOM     26  C   LIG    1       -1.543  -0.202   0.417  0.00  0.00    +0.034 A 
ATOM     27  C   LIG    1       -0.159  -0.257   0.514  0.00  0.00    +0.027 A 
ATOM     28  C   LIG    1        0.503  -1.445   0.277  0.00  0.00    +0.047 A 
BRANCH  23  29
ATOM     29  O   LIG    1        0.439  -3.754  -0.294  0.00  0.00    -0.494 OA
BRANCH  29  30
ATOM     30  C   LIG    1        1.863  -3.737  -0.175  0.00  0.00    +0.210 C 
BRANCH  30  31
ATOM     31  C   LIG    1        2.415  -5.132  -0.473  0.00  0.00    -0.037 C 
BRANCH  31  32
ATOM     32  N   LIG    1        2.118  -5.473  -1.880  0.00  0.00    +0.382 N 
ATOM     33  H   LIG    1        1.117  -5.325  -2.055  0.00  0.00    -0.082 HD
BRANCH  32  35
ATOM     34  C   LIG    1        4.397  -4.784  -2.547  0.00  0.00    -0.017 C 
ATOM     35  C   LIG    1        2.896  -4.602  -2.786  0.00  0.00    -0.082 C 
ENDBRANCH  32  35
BRANCH  32  36
ATOM     36  C   LIG    1        2.446  -6.891  -2.137  0.00  0.00    -0.082 C 
ATOM     37  C   LIG    1        1.843  -7.300  -3.482  0.00  0.00    -0.017 C 
ENDBRANCH  32  36
ENDBRANCH  31  32
ENDBRANCH  30  31
ENDBRANCH  29  30
ENDBRANCH  23  29
ENDBRANCH  21  26
ENDBRANCH   1  21
TORSDOF 9
