REMARK  Name = ZINC01642928
REMARK                            x       y       z     vdW  Elec       q    Type
REMARK                         _______ _______ _______ _____ _____    ______ ____
ROOT
ATOM      1  C   LIG    1       -0.052   0.897   0.535  0.00  0.00    +0.020 A 
ATOM      2  C   LIG    1        1.053   1.704   0.317  0.00  0.00    +0.015 A 
ATOM      3  C   LIG    1        2.308   1.094   0.223  0.00  0.00    +0.047 A 
ATOM      4  C   LIG    1        2.397  -0.303   0.363  0.00  0.00    +0.123 A 
ATOM      5  C   LIG    1        3.731  -0.958   0.295  0.00  0.00    +0.226 C 
ATOM      6  C   LIG    1        4.873  -0.118  -0.177  0.00  0.00    +0.092 C 
ATOM      7  C   LIG    1        4.876   1.329   0.287  0.00  0.00    +0.138 C 
ATOM      8  N   LIG    1        5.803  -0.593  -0.934  0.00  0.00    -0.284 NA
ATOM      9  O   LIG    1        3.884  -2.122   0.607  0.00  0.00    -0.284 OA
ATOM     10  N   LIG    1        1.308  -1.028   0.564  0.00  0.00    -0.251 NA
ATOM     11  C   LIG    1        3.512   1.907  -0.022  0.00  0.00    +0.171 C 
ATOM     12  O   LIG    1        3.411   3.030  -0.467  0.00  0.00    -0.292 OA
ATOM     13  C   LIG    1        0.116  -0.474   0.651  0.00  0.00    +0.111 A 
ENDROOT
BRANCH   8  14
ATOM     14  C   LIG    1        6.981   0.220  -1.246  0.00  0.00    +0.146 C 
BRANCH  14  15
ATOM     15  C   LIG    1        6.992   0.549  -2.740  0.00  0.00    +0.058 C 
BRANCH  15  16
ATOM     16  C   LIG    1        8.204   1.386  -3.061  0.00  0.00    -0.043 A 
ATOM     17  C   LIG    1        8.130   2.764  -2.988  0.00  0.00    +0.022 A 
ATOM     18  C   LIG    1        9.240   3.534  -3.282  0.00  0.00    +0.061 A 
ATOM     19 BR   LIG    1        9.137   5.420  -3.183  0.00  0.00    -0.046 Br
ATOM     20  C   LIG    1       10.429   2.921  -3.651  0.00  0.00    +0.145 A 
ATOM     21  C   LIG    1       10.501   1.538  -3.723  0.00  0.00    +0.061 A 
ATOM     22 BR   LIG    1       12.119   0.698  -4.225  0.00  0.00    -0.046 Br
ATOM     23  C   LIG    1        9.389   0.773  -3.423  0.00  0.00    +0.022 A 
BRANCH  20  24
ATOM     24  O   LIG    1       11.522   3.676  -3.941  0.00  0.00    -0.505 OA
ATOM     25  H   LIG    1       11.473   4.610  -3.892  0.00  0.00    +0.292 HD
ENDBRANCH  20  24
ENDBRANCH  15  16
ENDBRANCH  14  15
ENDBRANCH   8  14
TORSDOF 4
