REMARK  Name = ZINC01533380
REMARK                            x       y       z     vdW  Elec       q    Type
REMARK                         _______ _______ _______ _____ _____    ______ ____
ROOT
ATOM      1  N   LIG    1        6.262  -4.689  -0.212  0.00  0.00    +0.383 N 
ATOM      2  H   LIG    1        6.732  -4.444   0.647  0.00  0.00    -0.086 HD
ATOM      3  H   LIG    1        6.768  -4.301  -0.994  0.00  0.00    -0.086 HD
ENDROOT
BRANCH   1   4
ATOM      4  C   LIG    1        4.896  -4.147  -0.195  0.00  0.00    -0.047 C 
BRANCH   4   5
ATOM      5  C   LIG    1        4.954  -2.624  -0.061  0.00  0.00    +0.135 C 
BRANCH   5   6
ATOM      6  O   LIG    1        5.619  -2.277   1.155  0.00  0.00    -0.390 OA
ATOM      7  H   LIG    1        5.187  -2.617   1.950  0.00  0.00    +0.210 HD
ENDBRANCH   5   6
BRANCH   5   8
ATOM      8  C   LIG    1        3.531  -2.060  -0.044  0.00  0.00    +0.258 C 
BRANCH   8   9
ATOM      9  O   LIG    1        3.586  -0.632  -0.037  0.00  0.00    -0.489 OA
BRANCH   9  13
ATOM     10  C   LIG    1       -0.017   1.378   0.010  0.00  0.00    +0.000 A 
ATOM     11  C   LIG    1        1.170   2.088   0.002  0.00  0.00    +0.004 A 
ATOM     12  C   LIG    1        2.377   1.417  -0.013  0.00  0.00    +0.045 A 
ATOM     13  C   LIG    1        2.399   0.030  -0.021  0.00  0.00    +0.121 A 
ATOM     14  C   LIG    1        1.207  -0.680  -0.013  0.00  0.00    +0.045 A 
ATOM     15  C   LIG    1        0.002  -0.004   0.002  0.00  0.00    +0.004 A 
ENDBRANCH   9  13
ENDBRANCH   8   9
ENDBRANCH   5   8
ENDBRANCH   4   5
ENDBRANCH   1   4
BRANCH   1  16
ATOM     16  C   LIG    1        6.207  -6.151  -0.340  0.00  0.00    -0.041 C 
BRANCH  16  17
ATOM     17  C   LIG    1        7.629  -6.715  -0.357  0.00  0.00    +0.210 C 
BRANCH  17  18
ATOM     18  O   LIG    1        8.255  -6.469   0.904  0.00  0.00    -0.494 OA
BRANCH  18  19
ATOM     19  C   LIG    1        9.532  -6.910   1.056  0.00  0.00    +0.121 A 
ATOM     20  C   LIG    1       10.170  -7.561   0.010  0.00  0.00    +0.049 A 
ATOM     21  C   LIG    1       11.467  -8.009   0.164  0.00  0.00    +0.049 A 
ATOM     22  C   LIG    1       12.132  -7.808   1.365  0.00  0.00    +0.122 A 
ATOM     23  C   LIG    1       11.495  -7.157   2.410  0.00  0.00    +0.049 A 
ATOM     24  C   LIG    1       10.199  -6.705   2.254  0.00  0.00    +0.049 A 
BRANCH  22  25
ATOM     25  O   LIG    1       13.409  -8.250   1.517  0.00  0.00    -0.481 OA
BRANCH  25  26
ATOM     26  C   LIG    1       14.033  -8.009   2.780  0.00  0.00    +0.349 C 
BRANCH  26  27
ATOM     27  C   LIG    1       15.434  -8.565   2.763  0.00  0.00    +0.343 C 
ATOM     28  O   LIG    1       15.858  -9.117   1.762  0.00  0.00    -0.247 OA
BRANCH  27  29
ATOM     29  O   LIG    1       16.142  -8.463   3.750  0.00  0.00    -0.478 OA
ATOM     30  H   LIG    1       15.816  -8.039   4.519  0.00  0.00    +0.295 HD
ENDBRANCH  27  29
ENDBRANCH  26  27
ENDBRANCH  25  26
ENDBRANCH  22  25
ENDBRANCH  18  19
ENDBRANCH  17  18
ENDBRANCH  16  17
ENDBRANCH   1  16
TORSDOF 14
