REMARK  Name = ZINC01532629
REMARK                            x       y       z     vdW  Elec       q    Type
REMARK                         _______ _______ _______ _____ _____    ______ ____
ROOT
ATOM      1  C   LIG    1        1.398  -0.360  -0.546  0.00  0.00    +0.226 C 
ATOM      2  C   LIG    1        0.002  -0.004   0.002  0.00  0.00    +0.088 C 
ATOM      3  C   LIG    1       -0.019   1.544   0.011  0.00  0.00    +0.150 C 
ATOM      4  C   LIG    1        1.492   1.889  -0.002  0.00  0.00    +0.175 C 
ATOM      5  O   LIG    1        2.062   0.876  -0.858  0.00  0.00    -0.348 OA
ENDROOT
BRANCH   1   8
ATOM      6  C   LIG    1        0.499  -3.136  -2.804  0.00  0.00    +0.088 A 
ATOM      7  C   LIG    1        0.625  -2.385  -1.689  0.00  0.00    +0.098 A 
ATOM      8  N   LIG    1        1.265  -1.177  -1.754  0.00  0.00    -0.274 N 
ATOM      9  C   LIG    1        1.778  -0.736  -2.917  0.00  0.00    +0.331 A 
ATOM     10  N   LIG    1        1.671  -1.466  -4.042  0.00  0.00    -0.275 N 
ATOM     11  H   LIG    1        2.058  -1.123  -4.898  0.00  0.00    +0.173 HD
ATOM     12  O   LIG    1        2.347   0.339  -2.952  0.00  0.00    -0.246 OA
ATOM     13  C   LIG    1        1.043  -2.659  -4.021  0.00  0.00    +0.254 A 
ATOM     14  O   LIG    1        0.945  -3.321  -5.039  0.00  0.00    -0.268 OA
ENDBRANCH   1   8
BRANCH   3  15
ATOM     15  O   LIG    1       -0.645   2.039   1.196  0.00  0.00    -0.389 OA
ATOM     16  H   LIG    1       -1.570   1.772   1.293  0.00  0.00    +0.210 HD
ENDBRANCH   3  15
BRANCH   4  17
ATOM     17  C   LIG    1        1.721   3.283  -0.590  0.00  0.00    +0.206 C 
BRANCH  17  18
ATOM     18  O   LIG    1        3.105   3.623  -0.483  0.00  0.00    -0.284 OA
BRANCH  18  19
ATOM     19  P   LIG    1        3.707   5.023  -1.004  0.00  0.00    +0.472 P 
ATOM     20  O   LIG    1        2.968   6.141  -0.377  0.00  0.00    -0.228 OA
BRANCH  19  21
ATOM     21  O   LIG    1        3.555   5.110  -2.604  0.00  0.00    -0.303 OA
ATOM     22  H   LIG    1        2.616   5.052  -2.844  0.00  0.00    +0.222 HD
ENDBRANCH  19  21
BRANCH  19  23
ATOM     23  O   LIG    1        5.264   5.119  -0.607  0.00  0.00    -0.303 OA
ATOM     24  H   LIG    1        5.355   5.066   0.357  0.00  0.00    +0.222 HD
ENDBRANCH  19  23
ENDBRANCH  18  19
ENDBRANCH  17  18
ENDBRANCH   4  17
TORSDOF 7
