REMARK  Name = ZINC01490471
REMARK                            x       y       z     vdW  Elec       q    Type
REMARK                         _______ _______ _______ _____ _____    ______ ____
ROOT
ATOM      1  C   LIG    1        1.170   1.948  -0.123  0.00  0.00    +0.136 A 
ATOM      2  C   LIG    1        0.072   1.179  -0.553  0.00  0.00    +0.067 A 
ATOM      3  C   LIG    1       -1.062   1.892  -0.295  0.00  0.00    +0.076 A 
ATOM      4  N   LIG    1       -0.685   3.069   0.288  0.00  0.00    -0.231 N 
ATOM      5  N   LIG    1        0.713   3.078   0.380  0.00  0.00    -0.157 NA
ENDROOT
BRANCH   3   6
ATOM      6  C   LIG    1       -2.448   1.467  -0.590  0.00  0.00    +0.001 A 
ATOM      7  C   LIG    1       -3.447   2.421  -0.781  0.00  0.00    +0.011 A 
ATOM      8  C   LIG    1       -4.737   2.018  -1.060  0.00  0.00    +0.020 A 
ATOM      9  C   LIG    1       -5.042   0.670  -1.141  0.00  0.00    +0.041 A 
ATOM     10 CL   LIG    1       -6.669   0.171  -1.486  0.00  0.00    -0.084 Cl
ATOM     11  C   LIG    1       -4.055  -0.281  -0.946  0.00  0.00    +0.020 A 
ATOM     12  C   LIG    1       -2.761   0.110  -0.671  0.00  0.00    +0.011 A 
ENDBRANCH   3   6
BRANCH   4  13
ATOM     13  C   LIG    1       -1.545   4.090   0.715  0.00  0.00    +0.066 A 
ATOM     14  C   LIG    1       -1.252   5.414   0.418  0.00  0.00    +0.031 A 
ATOM     15  C   LIG    1       -2.103   6.419   0.834  0.00  0.00    +0.048 A 
ATOM     16  C   LIG    1       -3.245   6.106   1.557  0.00  0.00    +0.120 A 
ATOM     17  C   LIG    1       -3.535   4.784   1.859  0.00  0.00    +0.048 A 
ATOM     18  C   LIG    1       -2.688   3.777   1.439  0.00  0.00    +0.031 A 
BRANCH  16  19
ATOM     19  O   LIG    1       -4.079   7.097   1.970  0.00  0.00    -0.495 OA
ATOM     20  C   LIG    1       -3.719   8.435   1.624  0.00  0.00    +0.277 C 
ENDBRANCH  16  19
ENDBRANCH   4  13
BRANCH   1  22
ATOM     21  C   LIG    1        3.677   1.255  -0.291  0.00  0.00    -0.071 C 
ATOM     22  C   LIG    1        2.547   1.567  -0.215  0.00  0.00    -0.043 C 
BRANCH  21  24
ATOM     23  C   LIG    1        5.319  -0.426   0.405  0.00  0.00    +0.044 C 
ATOM     24  C   LIG    1        5.093   0.864  -0.385  0.00  0.00    +0.177 C 
BRANCH  24  25
ATOM     25  N   LIG    1        5.932   1.930   0.168  0.00  0.00    -0.169 N 
ATOM     26  C   LIG    1        5.783   2.305   1.454  0.00  0.00    +0.236 C 
ATOM     27  C   LIG    1        6.725   3.314   2.059  0.00  0.00    +0.111 C 
ATOM     28  O   LIG    1        4.890   1.831   2.125  0.00  0.00    -0.274 OA
BRANCH  25  29
ATOM     29  O   LIG    1        6.899   2.566  -0.647  0.00  0.00    -0.291 OA
ATOM     30  H   LIG    1        7.457   3.198  -0.175  0.00  0.00    +0.242 HD
ENDBRANCH  25  29
ENDBRANCH  24  25
ENDBRANCH  21  24
ENDBRANCH   1  22
TORSDOF 7
