REMARK  Name = ZINC01537834
REMARK                            x       y       z     vdW  Elec       q    Type
REMARK                         _______ _______ _______ _____ _____    ______ ____
ROOT
ATOM      1  C   LIG    1        3.491   8.010   1.082  0.00  0.00    +0.040 C 
ATOM      2  C   LIG    1        4.576   6.933   1.163  0.00  0.00    +0.028 C 
ATOM      3  C   LIG    1        4.411   5.959  -0.008  0.00  0.00    +0.108 C 
ATOM      4  N   LIG    1        3.038   5.435   0.002  0.00  0.00    -0.301 N 
ATOM      5  C   LIG    1        2.810   4.107  -0.003  0.00  0.00    +0.216 C 
ATOM      6  O   LIG    1        3.742   3.331  -0.016  0.00  0.00    -0.276 OA
ATOM      7  C   LIG    1        1.919   6.387   0.012  0.00  0.00    +0.108 C 
ATOM      8  C   LIG    1        2.112   7.356   1.188  0.00  0.00    +0.028 C 
ENDROOT
BRANCH   1  10
ATOM      9  C   LIG    1        3.193   8.849   3.465  0.00  0.00    +0.105 A 
ATOM     10  C   LIG    1        3.671   8.989   2.213  0.00  0.00    +0.036 A 
ATOM     11  N   LIG    1        4.340  10.149   2.153  0.00  0.00    -0.350 N 
ATOM     12  H   LIG    1        4.817  10.517   1.322  0.00  0.00    +0.166 HD
ATOM     13  C   LIG    1        4.288  10.739   3.316  0.00  0.00    +0.171 A 
ATOM     14  N   LIG    1        3.584   9.959   4.164  0.00  0.00    -0.352 N 
ATOM     15  H   LIG    1        3.386  10.155   5.124  0.00  0.00    +0.166 HD
ENDBRANCH   1  10
BRANCH   5  16
ATOM     16  C   LIG    1        1.396   3.585   0.008  0.00  0.00    +0.096 C 
BRANCH  16  17
ATOM     17  C   LIG    1        1.417   2.055  -0.000  0.00  0.00    +0.009 C 
BRANCH  17  18
ATOM     18  C   LIG    1       -0.019   1.526   0.010  0.00  0.00    +0.001 C 
BRANCH  18  19
ATOM     19  C   LIG    1        0.002  -0.004   0.002  0.00  0.00    +0.003 C 
BRANCH  19  20
ATOM     20  C   LIG    1       -1.433  -0.534   0.013  0.00  0.00    -0.011 C 
ATOM     21  C   LIG    1       -2.110  -0.145   1.329  0.00  0.00    +0.003 C 
ATOM     22  C   LIG    1       -3.546  -0.675   1.340  0.00  0.00    +0.000 C 
ATOM     23  C   LIG    1       -3.528  -2.199   1.206  0.00  0.00    +0.000 C 
ATOM     24  C   LIG    1       -2.851  -2.587  -0.110  0.00  0.00    +0.000 C 
ATOM     25  C   LIG    1       -1.416  -2.058  -0.121  0.00  0.00    +0.003 C 
ENDBRANCH  19  20
ENDBRANCH  18  19
ENDBRANCH  17  18
ENDBRANCH  16  17
ENDBRANCH   5  16
TORSDOF 6
