REMARK  Name = ZINC01650377
REMARK                            x       y       z     vdW  Elec       q    Type
REMARK                         _______ _______ _______ _____ _____    ______ ____
ROOT
ATOM      1  C   LIG    1       -2.078   3.738   7.136  0.00  0.00    -0.075 C 
ATOM      2  C   LIG    1       -3.463   3.870   7.713  0.00  0.00    +0.039 C 
ATOM      3  C   LIG    1       -1.052   4.247   7.772  0.00  0.00    -0.017 C 
ENDROOT
BRANCH   1   4
ATOM      4  C   LIG    1       -1.872   3.021   5.826  0.00  0.00    +0.034 C 
BRANCH   4   5
ATOM      5  C   LIG    1       -1.749   1.518   6.082  0.00  0.00    +0.031 C 
BRANCH   5   8
ATOM      6  C   LIG    1       -0.521  -0.006   4.621  0.00  0.00    -0.076 C 
ATOM      7  C   LIG    1        0.499  -0.144   5.722  0.00  0.00    +0.039 C 
ATOM      8  C   LIG    1       -1.543   0.800   4.773  0.00  0.00    -0.028 C 
BRANCH   6   9
ATOM      9  C   LIG    1       -0.367  -0.794   3.346  0.00  0.00    +0.034 C 
BRANCH   9  10
ATOM     10  C   LIG    1        0.554  -0.038   2.387  0.00  0.00    +0.031 C 
BRANCH  10  14
ATOM     11  C   LIG    1        0.102   1.201  -0.105  0.00  0.00    +0.038 C 
ATOM     12  C   LIG    1        0.446  -0.265  -0.041  0.00  0.00    -0.080 C 
ATOM     13  C   LIG    1        0.487  -1.084  -1.305  0.00  0.00    +0.038 C 
ATOM     14  C   LIG    1        0.709  -0.826   1.113  0.00  0.00    -0.028 C 
ENDBRANCH  10  14
ENDBRANCH   9  10
ENDBRANCH   6   9
ENDBRANCH   5   8
ENDBRANCH   4   5
ENDBRANCH   1   4
BRANCH   3  15
ATOM     15  C   LIG    1       -1.238   4.853   9.139  0.00  0.00    +0.101 C 
BRANCH  15  16
ATOM     16  S   LIG    1       -0.889   6.631   9.066  0.00  0.00    -0.120 S 
BRANCH  16  17
ATOM     17  C   LIG    1       -1.148   7.185  10.719  0.00  0.00    +0.022 A 
ATOM     18  C   LIG    1       -1.528   6.283  11.707  0.00  0.00    +0.015 A 
ATOM     19  C   LIG    1       -1.729   6.719  12.999  0.00  0.00    +0.001 A 
ATOM     20  C   LIG    1       -1.556   8.056  13.326  0.00  0.00    +0.001 A 
ATOM     21  C   LIG    1       -1.180   8.965  12.363  0.00  0.00    +0.016 A 
ATOM     22  C   LIG    1       -0.966   8.540  11.047  0.00  0.00    +0.072 A 
BRANCH  22  23
ATOM     23  C   LIG    1       -0.559   9.504  10.015  0.00  0.00    +0.338 C 
ATOM     24  O   LIG    1       -0.402  10.682  10.306  0.00  0.00    -0.245 OA
BRANCH  23  25
ATOM     25  O   LIG    1       -0.377   9.128   8.865  0.00  0.00    -0.477 OA
ATOM     26  H   LIG    1       -0.497   8.225   8.642  0.00  0.00    +0.295 HD
ENDBRANCH  23  25
ENDBRANCH  22  23
ENDBRANCH  16  17
ENDBRANCH  15  16
ENDBRANCH   3  15
TORSDOF 11
