REMARK  Name = ZINC01494900
REMARK                            x       y       z     vdW  Elec       q    Type
REMARK                         _______ _______ _______ _____ _____    ______ ____
ROOT
ATOM      1  C   LIG    1        3.656   0.661  -0.030  0.00  0.00    +0.013 A 
ATOM      2  C   LIG    1        4.490   0.917   1.019  0.00  0.00    +0.095 A 
ATOM      3  N   LIG    1        5.784   0.783   0.620  0.00  0.00    -0.343 N 
ATOM      4  C   LIG    1        5.840   0.433  -0.714  0.00  0.00    +0.050 A 
ATOM      5  C   LIG    1        6.892   0.180  -1.587  0.00  0.00    +0.026 A 
ATOM      6  C   LIG    1        6.631  -0.158  -2.898  0.00  0.00    +0.002 A 
ATOM      7  C   LIG    1        5.326  -0.249  -3.358  0.00  0.00    +0.001 A 
ATOM      8  C   LIG    1        4.270  -0.003  -2.508  0.00  0.00    +0.010 A 
ATOM      9  C   LIG    1        4.518   0.334  -1.180  0.00  0.00    +0.008 A 
ENDROOT
BRANCH   1  11
ATOM     10  C   LIG    1        1.377   1.831  -0.001  0.00  0.00    +0.059 C 
ATOM     11  C   LIG    1        2.184   0.699  -0.015  0.00  0.00    +0.059 C 
ATOM     12  C   LIG    1        1.266  -0.459  -0.013  0.00  0.00    +0.252 C 
ATOM     13  N   LIG    1        0.002  -0.004   0.002  0.00  0.00    -0.248 N 
ATOM     14  H   LIG    1       -0.788  -0.567   0.006  0.00  0.00    +0.158 HD
ATOM     15  O   LIG    1        1.599  -1.627  -0.022  0.00  0.00    -0.270 OA
ATOM     16  C   LIG    1       -0.016   1.339   0.009  0.00  0.00    +0.252 C 
ATOM     17  O   LIG    1       -1.012   2.035   0.018  0.00  0.00    -0.270 OA
BRANCH  10  21
ATOM     18  C   LIG    1        3.186   6.236  -1.540  0.00  0.00    +0.149 C 
ATOM     19  N   LIG    1        2.624   5.202  -0.666  0.00  0.00    -0.349 N 
ATOM     20  C   LIG    1        2.326   3.933  -1.056  0.00  0.00    +0.095 A 
ATOM     21  C   LIG    1        1.821   3.235   0.002  0.00  0.00    +0.013 A 
ATOM     22  C   LIG    1        1.801   4.163   1.146  0.00  0.00    +0.008 A 
ATOM     23  C   LIG    1        1.413   4.046   2.478  0.00  0.00    +0.010 A 
ATOM     24  C   LIG    1        1.531   5.130   3.321  0.00  0.00    +0.001 A 
ATOM     25  C   LIG    1        2.038   6.332   2.849  0.00  0.00    +0.002 A 
ATOM     26  C   LIG    1        2.432   6.460   1.534  0.00  0.00    +0.026 A 
ATOM     27  C   LIG    1        2.321   5.377   0.668  0.00  0.00    +0.049 A 
ENDBRANCH  10  21
ENDBRANCH   1  11
BRANCH   3  28
ATOM     28  C   LIG    1        6.951   0.983   1.482  0.00  0.00    +0.084 C 
ATOM     29  C   LIG    1        6.891   0.004   2.658  0.00  0.00    +0.006 C 
ATOM     30  C   LIG    1        8.080   0.258   3.588  0.00  0.00    -0.076 C 
ATOM     31  N   LIG    1        8.008   1.646   4.091  0.00  0.00    +0.383 N 
ATOM     32  H   LIG    1        7.098   1.789   4.546  0.00  0.00    -0.081 HD
ATOM     33  C   LIG    1        8.138   2.600   2.969  0.00  0.00    -0.076 C 
ATOM     34  C   LIG    1        6.951   2.416   2.021  0.00  0.00    +0.006 C 
BRANCH  31  35
ATOM     35  C   LIG    1        9.081   1.881   5.080  0.00  0.00    -0.022 C 
BRANCH  35  36
ATOM     36  C   LIG    1        8.800   1.052   6.306  0.00  0.00    +0.025 A 
ATOM     37  C   LIG    1        9.403  -0.183   6.449  0.00  0.00    +0.021 A 
ATOM     38  C   LIG    1        9.138  -0.937   7.582  0.00  0.00    +0.003 A 
ATOM     39  C   LIG    1        8.272  -0.418   8.533  0.00  0.00    +0.020 A 
ATOM     40  C   LIG    1        7.706   0.824   8.321  0.00  0.00    +0.111 A 
ATOM     41  N   LIG    1        7.985   1.516   7.234  0.00  0.00    -0.262 NA
ENDBRANCH  35  36
ENDBRANCH  31  35
ENDBRANCH   3  28
TORSDOF 5
