REMARK  Name = ZINC01530814
REMARK                            x       y       z     vdW  Elec       q    Type
REMARK                         _______ _______ _______ _____ _____    ______ ____
ROOT
ATOM      1  C   LIG    1        0.276  -4.975  -2.792  0.00  0.00    +0.204 C 
ATOM      2  N   LIG    1       -0.200  -5.721  -1.776  0.00  0.00    -0.286 N 
ATOM      3  H   LIG    1        0.356  -5.896  -1.000  0.00  0.00    +0.155 HD
ATOM      4  O   LIG    1       -0.452  -4.673  -3.715  0.00  0.00    -0.277 OA
ENDROOT
BRANCH   2   5
ATOM      5  C   LIG    1       -1.496  -6.244  -1.839  0.00  0.00    +0.039 A 
ATOM      6  C   LIG    1       -1.701  -7.613  -1.718  0.00  0.00    -0.029 A 
ATOM      7  C   LIG    1       -0.527  -8.536  -1.519  0.00  0.00    +0.045 C 
ATOM      8  C   LIG    1       -2.982  -8.126  -1.781  0.00  0.00    +0.005 A 
ATOM      9  C   LIG    1       -4.060  -7.279  -1.964  0.00  0.00    +0.001 A 
ATOM     10  C   LIG    1       -3.859  -5.916  -2.085  0.00  0.00    +0.005 A 
ATOM     11  C   LIG    1       -2.581  -5.396  -2.017  0.00  0.00    -0.029 A 
ATOM     12  C   LIG    1       -2.364  -3.910  -2.141  0.00  0.00    +0.045 C 
ENDBRANCH   2   5
BRANCH   1  19
ATOM     13  N   LIG    1        1.833  -3.276  -3.558  0.00  0.00    +0.387 N 
ATOM     14  H   LIG    1        1.589  -3.457  -4.520  0.00  0.00    -0.081 HD
ATOM     15  C   LIG    1        3.212  -2.780  -3.491  0.00  0.00    -0.078 C 
ATOM     16  C   LIG    1        4.156  -3.796  -4.138  0.00  0.00    -0.019 C 
ATOM     17  C   LIG    1        4.054  -5.128  -3.390  0.00  0.00    -0.003 C 
ATOM     18  C   LIG    1        2.596  -5.599  -3.402  0.00  0.00    -0.006 C 
ATOM     19  C   LIG    1        1.711  -4.516  -2.782  0.00  0.00    +0.020 C 
BRANCH  13  20
ATOM     20  C   LIG    1        0.922  -2.263  -3.006  0.00  0.00    -0.078 C 
BRANCH  20  21
ATOM     21  C   LIG    1        0.935  -1.023  -3.902  0.00  0.00    -0.019 C 
BRANCH  21  23
ATOM     22  C   LIG    1        0.001   1.272  -4.223  0.00  0.00    +0.004 C 
ATOM     23  C   LIG    1       -0.012   0.031  -3.327  0.00  0.00    -0.005 C 
ENDBRANCH  21  23
ENDBRANCH  20  21
ENDBRANCH  13  20
ENDBRANCH   1  19
TORSDOF 5
