REMARK  Name = ZINC01532519
REMARK                            x       y       z     vdW  Elec       q    Type
REMARK                         _______ _______ _______ _____ _____    ______ ____
ROOT
ATOM      1  C   LIG    1       -0.019   1.526   0.010  0.00  0.00    +0.098 C 
ENDROOT
BRANCH   1   2
ATOM      2  C   LIG    1        1.395   2.047  -0.000  0.00  0.00    +0.240 C 
ATOM      3  O   LIG    1        2.324   1.275  -0.013  0.00  0.00    -0.285 OA
BRANCH   2   4
ATOM      4  C   LIG    1        1.648   3.519   0.005  0.00  0.00    +0.373 C 
ATOM      5  O   LIG    1        2.793   3.942  -0.003  0.00  0.00    -0.242 OA
BRANCH   4   6
ATOM      6  O   LIG    1        0.710   4.300   0.018  0.00  0.00    -0.475 OA
ATOM      7  H   LIG    1       -0.169   3.975   0.025  0.00  0.00    +0.295 HD
ENDBRANCH   4   6
ENDBRANCH   2   4
ENDBRANCH   1   2
BRANCH   1   8
ATOM      8  C   LIG    1        0.002  -0.004   0.002  0.00  0.00    +0.128 C 
BRANCH   8   9
ATOM      9  C   LIG    1       -1.412  -0.526   0.013  0.00  0.00    +0.305 C 
ATOM     10  O   LIG    1       -2.349   0.254   0.026  0.00  0.00    -0.251 OA
BRANCH   9  11
ATOM     11  O   LIG    1       -1.618  -1.727   0.008  0.00  0.00    -0.481 OA
ATOM     12  H   LIG    1       -0.898  -2.326  -0.002  0.00  0.00    +0.295 HD
ENDBRANCH   9  11
ENDBRANCH   8   9
ENDBRANCH   1   8
TORSDOF 6
