REMARK  Name = ZINC01529638
REMARK                            x       y       z     vdW  Elec       q    Type
REMARK                         _______ _______ _______ _____ _____    ______ ____
ROOT
ATOM      1  C   LIG    1        0.002  -0.004   0.002  0.00  0.00    +0.036 A 
ATOM      2  C   LIG    1       -0.017   1.377   0.010  0.00  0.00    +0.048 A 
ATOM      3  C   LIG    1        1.176   2.086   0.002  0.00  0.00    +0.132 A 
ATOM      4  C   LIG    1        2.385   1.405  -0.012  0.00  0.00    +0.048 A 
ATOM      5  C   LIG    1        2.398   0.024  -0.020  0.00  0.00    +0.036 A 
ATOM      6  C   LIG    1        1.208  -0.680  -0.013  0.00  0.00    +0.122 A 
ENDROOT
BRANCH   6   7
ATOM      7  N   LIG    1        1.225  -2.160  -0.021  0.00  0.00    +0.006 N 
ATOM      8  O   LIG    1        0.178  -2.781  -0.015  0.00  0.00    -0.130 OA
BRANCH   7   9
ATOM      9  O   LIG    1        2.287  -2.757  -0.035  0.00  0.00    -0.396 OA
ATOM     10  H   LIG    1        3.093  -2.279  -0.040  0.00  0.00    +0.329 HD
ENDBRANCH   7   9
ENDBRANCH   6   7
BRANCH   3  11
ATOM     11  O   LIG    1        1.160   3.445   0.010  0.00  0.00    -0.404 OA
BRANCH  11  12
ATOM     12  P   LIG    1        1.167   4.091   1.484  0.00  0.00    +0.528 P 
ATOM     13  O   LIG    1        2.324   3.570   2.247  0.00  0.00    -0.216 OA
BRANCH  12  14
ATOM     14  O   LIG    1       -0.197   3.703   2.247  0.00  0.00    -0.293 OA
ATOM     15  H   LIG    1       -0.265   2.738   2.317  0.00  0.00    +0.223 HD
ENDBRANCH  12  14
BRANCH  12  16
ATOM     16  O   LIG    1        1.279   5.693   1.368  0.00  0.00    -0.293 OA
ATOM     17  H   LIG    1        2.101   5.927   0.908  0.00  0.00    +0.223 HD
ENDBRANCH  12  16
ENDBRANCH  11  12
ENDBRANCH   3  11
TORSDOF 6
