REMARK  Name = ZINC01537496
REMARK                            x       y       z     vdW  Elec       q    Type
REMARK                         _______ _______ _______ _____ _____    ______ ____
ROOT
ATOM      1  N   LIG    1        0.097  -2.777  -0.113  0.00  0.00    -0.331 N 
ATOM      2  C   LIG    1       -1.306  -3.215  -0.187  0.00  0.00    +0.086 C 
ATOM      3  C   LIG    1       -1.357  -4.725   0.064  0.00  0.00    -0.060 C 
ATOM      4  N   LIG    1       -0.693  -5.032   1.337  0.00  0.00    +0.382 N 
ATOM      5  H   LIG    1       -1.120  -4.495   2.076  0.00  0.00    -0.082 HD
ATOM      6  C   LIG    1        0.734  -4.694   1.250  0.00  0.00    -0.060 C 
ATOM      7  C   LIG    1        0.890  -3.186   1.056  0.00  0.00    +0.086 C 
ENDROOT
BRANCH   1  13
ATOM      8  C   LIG    1        0.606  -0.608  -1.057  0.00  0.00    +0.141 A 
ATOM      9  C   LIG    1        1.173   0.158  -2.062  0.00  0.00    +0.047 A 
ATOM     10  C   LIG    1        1.786  -0.457  -3.138  0.00  0.00    +0.004 A 
ATOM     11  C   LIG    1        1.837  -1.836  -3.214  0.00  0.00    +0.002 A 
ATOM     12  C   LIG    1        1.274  -2.608  -2.214  0.00  0.00    +0.027 A 
ATOM     13  C   LIG    1        0.662  -1.998  -1.129  0.00  0.00    +0.072 A 
BRANCH   8  15
ATOM     14  C   LIG    1       -0.017   1.425   0.010  0.00  0.00    +0.277 C 
ATOM     15  O   LIG    1        0.002  -0.004   0.002  0.00  0.00    -0.493 OA
ENDBRANCH   8  15
ENDBRANCH   1  13
BRANCH   4  16
ATOM     16  C   LIG    1       -0.838  -6.464   1.630  0.00  0.00    -0.079 C 
BRANCH  16  17
ATOM     17  C   LIG    1       -0.256  -6.763   3.013  0.00  0.00    -0.017 C 
BRANCH  17  18
ATOM     18  C   LIG    1       -0.407  -8.254   3.319  0.00  0.00    +0.018 C 
BRANCH  18  19
ATOM     19  C   LIG    1        0.175  -8.553   4.702  0.00  0.00    +0.117 C 
BRANCH  19  20
ATOM     20  N   LIG    1        0.030  -9.981   4.995  0.00  0.00    -0.234 N 
ATOM     21  C   LIG    1       -1.038 -10.530   5.600  0.00  0.00    +0.254 C 
ATOM     22  C   LIG    1       -0.817 -11.986   5.718  0.00  0.00    +0.049 A 
ATOM     23  C   LIG    1       -1.553 -13.038   6.240  0.00  0.00    +0.014 A 
ATOM     24  C   LIG    1       -1.042 -14.325   6.190  0.00  0.00    +0.001 A 
ATOM     25  C   LIG    1        0.196 -14.567   5.625  0.00  0.00    +0.001 A 
ATOM     26  C   LIG    1        0.943 -13.525   5.099  0.00  0.00    +0.014 A 
ATOM     27  C   LIG    1        0.445 -12.232   5.141  0.00  0.00    +0.049 A 
ATOM     28  O   LIG    1       -2.021  -9.928   5.986  0.00  0.00    -0.270 OA
ATOM     29  C   LIG    1        0.946 -10.918   4.688  0.00  0.00    +0.254 C 
ATOM     30  O   LIG    1        2.007 -10.716   4.133  0.00  0.00    -0.270 OA
ENDBRANCH  19  20
ENDBRANCH  18  19
ENDBRANCH  17  18
ENDBRANCH  16  17
ENDBRANCH   4  16
TORSDOF 7
