REMARK  Name = ZINC01493715
REMARK                            x       y       z     vdW  Elec       q    Type
REMARK                         _______ _______ _______ _____ _____    ______ ____
ROOT
ATOM      1  C   LIG    1        0.722  -1.847  -1.488  0.00  0.00    +0.127 C 
ATOM      2  N   LIG    1        1.325  -2.288  -2.590  0.00  0.00    -0.271 NA
ATOM      3  H   LIG    1        2.201  -1.772  -2.668  0.00  0.00    +0.126 HD
ATOM      4  C   LIG    1        1.628  -3.570  -2.730  0.00  0.00    +0.214 C 
ATOM      5  N   LIG    1        1.345  -4.460  -1.790  0.00  0.00    -0.271 NA
ATOM      6  H   LIG    1        1.581  -5.391  -1.926  0.00  0.00    +0.126 HD
ATOM      7  C   LIG    1        0.742  -4.092  -0.663  0.00  0.00    +0.127 C 
ATOM      8  C   LIG    1        0.415  -2.752  -0.476  0.00  0.00    +0.069 C 
ENDROOT
BRANCH   1   9
ATOM      9  N   LIG    1        0.408  -0.504  -1.349  0.00  0.00    -0.301 NA
ATOM     10  H   LIG    1        0.625   0.120  -2.058  0.00  0.00    +0.123 HD
BRANCH   9  12
ATOM     11  C   LIG    1       -0.482   1.481  -0.231  0.00  0.00    +0.020 C 
ATOM     12  C   LIG    1       -0.250  -0.029  -0.130  0.00  0.00    +0.079 C 
ENDBRANCH   9  12
ENDBRANCH   1   9
BRANCH   4  13
ATOM     13  N   LIG    1        2.255  -3.991  -3.891  0.00  0.00    -0.316 N 
ATOM     14  H   LIG    1        2.409  -4.937  -4.043  0.00  0.00    +0.149 HD
BRANCH  13  15
ATOM     15  C   LIG    1        2.669  -3.052  -4.844  0.00  0.00    +0.030 A 
ATOM     16  C   LIG    1        3.110  -1.806  -4.437  0.00  0.00    +0.033 A 
ATOM     17  C   LIG    1        3.522  -0.875  -5.392  0.00  0.00    +0.002 A 
ATOM     18  C   LIG    1        3.486  -1.206  -6.758  0.00  0.00    +0.049 A 
ATOM     19  C   LIG    1        3.038  -2.464  -7.148  0.00  0.00    +0.028 A 
ATOM     20  N   LIG    1        3.943  -0.106  -7.455  0.00  0.00    -0.342 N 
ATOM     21  C   LIG    1        4.263   0.896  -6.581  0.00  0.00    +0.087 A 
ATOM     22  C   LIG    1        4.032   0.497  -5.320  0.00  0.00    +0.027 A 
ATOM     23  C   LIG    1        2.640  -3.378  -6.199  0.00  0.00    +0.025 A 
BRANCH  20  24
ATOM     24  C   LIG    1        4.068  -0.025  -8.912  0.00  0.00    +0.157 C 
BRANCH  24  25
ATOM     25  C   LIG    1        2.745   0.384  -9.507  0.00  0.00    -0.028 A 
ATOM     26  C   LIG    1        1.821  -0.580  -9.866  0.00  0.00    +0.005 A 
ATOM     27  C   LIG    1        0.608  -0.205 -10.412  0.00  0.00    +0.000 A 
ATOM     28  C   LIG    1        0.318   1.133 -10.599  0.00  0.00    +0.000 A 
ATOM     29  C   LIG    1        1.241   2.097 -10.239  0.00  0.00    +0.000 A 
ATOM     30  C   LIG    1        2.453   1.723  -9.689  0.00  0.00    +0.005 A 
ENDBRANCH  24  25
ENDBRANCH  20  24
ENDBRANCH  13  15
ENDBRANCH   4  13
BRANCH   7  31
ATOM     31  N   LIG    1        0.450  -5.029   0.316  0.00  0.00    -0.298 NA
ATOM     32  H   LIG    1        0.684  -5.961   0.180  0.00  0.00    +0.124 HD
BRANCH  31  33
ATOM     33  C   LIG    1       -0.214  -4.613   1.553  0.00  0.00    +0.055 C 
ATOM     34  C   LIG    1       -1.729  -4.584   1.335  0.00  0.00    +0.021 C 
ATOM     35  C   LIG    1       -2.422  -4.150   2.628  0.00  0.00    +0.033 C 
ATOM     36  C   LIG    1       -2.087  -5.141   3.744  0.00  0.00    +0.115 C 
ATOM     37  C   LIG    1       -0.573  -5.170   3.963  0.00  0.00    +0.033 C 
ATOM     38  C   LIG    1        0.121  -5.604   2.670  0.00  0.00    +0.021 C 
BRANCH  36  39
ATOM     39  O   LIG    1       -2.540  -6.445   3.376  0.00  0.00    -0.392 OA
ATOM     40  H   LIG    1       -2.360  -7.126   4.038  0.00  0.00    +0.210 HD
ENDBRANCH  36  39
ENDBRANCH  31  33
ENDBRANCH   7  31
TORSDOF 9
