REMARK  Name = ZINC01625619
REMARK                            x       y       z     vdW  Elec       q    Type
REMARK                         _______ _______ _______ _____ _____    ______ ____
ROOT
ATOM      1  C   LIG    1       -0.366   5.119   0.558  0.00  0.00    -0.040 A 
ATOM      2  C   LIG    1       -1.000   5.638   1.672  0.00  0.00    +0.053 A 
ATOM      3  C   LIG    1       -1.531   4.787   2.629  0.00  0.00    +0.165 A 
ATOM      4  C   LIG    1       -1.431   3.410   2.464  0.00  0.00    +0.201 A 
ATOM      5  C   LIG    1       -0.787   2.893   1.346  0.00  0.00    +0.165 A 
ATOM      6  C   LIG    1       -0.259   3.751   0.394  0.00  0.00    +0.053 A 
ENDROOT
BRANCH   3   7
ATOM      7  O   LIG    1       -2.156   5.298   3.723  0.00  0.00    -0.491 OA
ATOM      8  C   LIG    1       -2.228   6.721   3.823  0.00  0.00    +0.277 C 
ENDBRANCH   3   7
BRANCH   4   9
ATOM      9  O   LIG    1       -1.957   2.571   3.398  0.00  0.00    -0.501 OA
ATOM     10  H   LIG    1       -1.341   2.336   4.106  0.00  0.00    +0.292 HD
ENDBRANCH   4   9
BRANCH   5  11
ATOM     11  O   LIG    1       -0.682   1.547   1.184  0.00  0.00    -0.491 OA
ATOM     12  C   LIG    1       -0.013   1.086   0.008  0.00  0.00    +0.277 C 
ENDBRANCH   5  11
BRANCH   1  13
ATOM     13  C   LIG    1        0.211   6.048  -0.479  0.00  0.00    +0.040 C 
BRANCH  13  14
ATOM     14  C   LIG    1       -0.850   6.349  -1.540  0.00  0.00    +0.040 C 
BRANCH  14  18
ATOM     15  C   LIG    1        0.786   8.983  -4.481  0.00  0.00    +0.120 A 
ATOM     16  C   LIG    1        0.891   7.609  -4.643  0.00  0.00    +0.046 A 
ATOM     17  C   LIG    1        0.362   6.760  -3.691  0.00  0.00    +0.007 A 
ATOM     18  C   LIG    1       -0.273   7.278  -2.577  0.00  0.00    -0.047 A 
ATOM     19  C   LIG    1       -0.385   8.647  -2.416  0.00  0.00    +0.007 A 
ATOM     20  C   LIG    1        0.148   9.500  -3.362  0.00  0.00    +0.046 A 
BRANCH  15  22
ATOM     21  C   LIG    1        1.160  11.223  -5.184  0.00  0.00    +0.277 C 
ATOM     22  O   LIG    1        1.306   9.821  -5.416  0.00  0.00    -0.495 OA
ENDBRANCH  15  22
ENDBRANCH  14  18
ENDBRANCH  13  14
ENDBRANCH   1  13
TORSDOF 7
