REMARK  Name = ZINC01539546
REMARK                            x       y       z     vdW  Elec       q    Type
REMARK                         _______ _______ _______ _____ _____    ______ ____
ROOT
ATOM      1  C   LIG    1       -3.138   7.421   1.894  0.00  0.00    +0.044 C 
ATOM      2  C   LIG    1       -2.944   8.073   0.549  0.00  0.00    -0.043 A 
ATOM      3  C   LIG    1       -3.636   9.219   0.230  0.00  0.00    +0.008 A 
ATOM      4  C   LIG    1       -3.470   9.828  -1.009  0.00  0.00    -0.038 A 
ATOM      5  C   LIG    1       -2.595   9.290  -1.930  0.00  0.00    -0.037 A 
ATOM      6  C   LIG    1       -2.357   9.912  -3.281  0.00  0.00    -0.010 C 
ATOM      7  C   LIG    1       -2.288   8.808  -4.339  0.00  0.00    +0.016 C 
ATOM      8  C   LIG    1       -1.031  10.673  -3.260  0.00  0.00    +0.016 C 
ATOM      9  C   LIG    1       -3.486  10.877  -3.635  0.00  0.00    +0.012 C 
ATOM     10  C   LIG    1       -3.681  11.845  -2.462  0.00  0.00    +0.012 C 
ATOM     11  C   LIG    1       -1.891   8.138  -1.620  0.00  0.00    +0.013 A 
ATOM     12  C   LIG    1       -4.279  11.068  -1.291  0.00  0.00    -0.010 C 
ATOM     13  C   LIG    1       -4.287  11.959  -0.047  0.00  0.00    +0.016 C 
ATOM     14  C   LIG    1       -5.715  10.667  -1.632  0.00  0.00    +0.016 C 
ATOM     15  C   LIG    1       -2.056   7.521  -0.379  0.00  0.00    -0.019 A 
ENDROOT
BRANCH  15  16
ATOM     16  C   LIG    1       -1.306   6.298  -0.052  0.00  0.00    -0.040 C 
ATOM     17  C   LIG    1       -2.005   4.963  -0.053  0.00  0.00    +0.044 C 
ATOM     18  C   LIG    1        0.007   6.371   0.248  0.00  0.00    +0.050 C 
BRANCH  18  19
ATOM     19  C   LIG    1        0.719   5.180   0.711  0.00  0.00    +0.129 A 
ATOM     20  C   LIG    1        2.079   5.089   0.940  0.00  0.00    +0.050 A 
ATOM     21  C   LIG    1        2.332   3.787   1.374  0.00  0.00    +0.057 A 
ATOM     22  C   LIG    1        1.121   3.126   1.387  0.00  0.00    +0.212 A 
ATOM     23  O   LIG    1        0.162   3.987   0.986  0.00  0.00    -0.449 OA
BRANCH  22  24
ATOM     24  C   LIG    1        0.912   1.731   1.774  0.00  0.00    +0.372 C 
ATOM     25  O   LIG    1        1.857   1.048   2.120  0.00  0.00    -0.242 OA
BRANCH  24  26
ATOM     26  O   LIG    1       -0.330   1.203   1.749  0.00  0.00    -0.475 OA
ATOM     27  H   LIG    1       -1.058   1.730   1.483  0.00  0.00    +0.296 HD
ENDBRANCH  24  26
ENDBRANCH  22  24
ENDBRANCH  18  19
ENDBRANCH  15  16
TORSDOF 4
