REMARK  Name = ZINC01590899
REMARK                            x       y       z     vdW  Elec       q    Type
REMARK                         _______ _______ _______ _____ _____    ______ ____
ROOT
ATOM      1  C   LIG    1        1.113   1.921   0.002  0.00  0.00    +0.095 A 
ATOM      2  C   LIG    1       -0.013   1.076   0.008  0.00  0.00    +0.074 A 
ATOM      3  C   LIG    1       -1.121   1.861   0.017  0.00  0.00    +0.129 A 
ATOM      4  N   LIG    1       -0.709   3.159   0.025  0.00  0.00    -0.218 N 
ATOM      5  N   LIG    1        0.692   3.168   0.012  0.00  0.00    -0.165 NA
ENDROOT
BRANCH   1   9
ATOM      6  C   LIG    1        5.175   0.661  -0.040  0.00  0.00    +0.000 A 
ATOM      7  C   LIG    1        4.872   2.011  -0.032  0.00  0.00    +0.001 A 
ATOM      8  C   LIG    1        3.555   2.425  -0.018  0.00  0.00    +0.010 A 
ATOM      9  C   LIG    1        2.531   1.481  -0.013  0.00  0.00    +0.002 A 
ATOM     10  C   LIG    1        2.842   0.123  -0.016  0.00  0.00    +0.010 A 
ATOM     11  C   LIG    1        4.162  -0.280  -0.036  0.00  0.00    +0.001 A 
ENDBRANCH   1   9
BRANCH   4  12
ATOM     12  C   LIG    1       -1.539   4.288   0.038  0.00  0.00    +0.067 A 
ATOM     13  C   LIG    1       -2.748   4.270  -0.645  0.00  0.00    +0.028 A 
ATOM     14  C   LIG    1       -3.567   5.382  -0.625  0.00  0.00    +0.002 A 
ATOM     15  C   LIG    1       -3.179   6.516   0.065  0.00  0.00    +0.000 A 
ATOM     16  C   LIG    1       -1.973   6.539   0.742  0.00  0.00    +0.002 A 
ATOM     17  C   LIG    1       -1.152   5.428   0.730  0.00  0.00    +0.028 A 
ENDBRANCH   4  12
BRANCH   3  18
ATOM     18  N   LIG    1       -2.443   1.419   0.020  0.00  0.00    -0.266 N 
ATOM     19  H   LIG    1       -3.170   2.061   0.026  0.00  0.00    +0.157 HD
ATOM     20  C   LIG    1       -2.711   0.098   0.014  0.00  0.00    +0.249 C 
ATOM     21  O   LIG    1       -1.800  -0.707   0.006  0.00  0.00    -0.270 OA
BRANCH  20  22
ATOM     22  C   LIG    1       -4.112  -0.371   0.017  0.00  0.00    +0.037 A 
ATOM     23  C   LIG    1       -5.160   0.551   0.031  0.00  0.00    +0.014 A 
ATOM     24  C   LIG    1       -6.466   0.107   0.028  0.00  0.00    +0.021 A 
ATOM     25  C   LIG    1       -6.738  -1.251   0.022  0.00  0.00    +0.041 A 
ATOM     26 CL   LIG    1       -8.384  -1.802   0.026  0.00  0.00    -0.084 Cl
ATOM     27  C   LIG    1       -5.703  -2.171   0.014  0.00  0.00    +0.021 A 
ATOM     28  C   LIG    1       -4.393  -1.739   0.010  0.00  0.00    +0.014 A 
ENDBRANCH  20  22
ENDBRANCH   3  18
TORSDOF 4
