REMARK  Name = ZINC01537834
REMARK                            x       y       z     vdW  Elec       q    Type
REMARK                         _______ _______ _______ _____ _____    ______ ____
ROOT
ATOM      1  C   LIG    1        1.719   3.206   0.002  0.00  0.00    +0.040 C 
ATOM      2  C   LIG    1        1.980   3.661  -1.435  0.00  0.00    +0.028 C 
ATOM      3  C   LIG    1        2.414   5.130  -1.431  0.00  0.00    +0.108 C 
ATOM      4  N   LIG    1        3.567   5.279  -0.533  0.00  0.00    -0.301 N 
ATOM      5  C   LIG    1        4.707   5.853  -0.968  0.00  0.00    +0.216 C 
ATOM      6  O   LIG    1        4.787   6.252  -2.111  0.00  0.00    -0.276 OA
ATOM      7  C   LIG    1        3.454   4.791   0.848  0.00  0.00    +0.108 C 
ATOM      8  C   LIG    1        3.008   3.326   0.819  0.00  0.00    +0.028 C 
ENDROOT
BRANCH   1  10
ATOM      9  C   LIG    1       -0.016   1.337   0.009  0.00  0.00    +0.105 A 
ATOM     10  C   LIG    1        1.259   1.771  -0.000  0.00  0.00    +0.036 A 
ATOM     11  N   LIG    1        2.056   0.658  -0.014  0.00  0.00    -0.350 N 
ATOM     12  C   LIG    1        1.240  -0.418  -0.012  0.00  0.00    +0.171 A 
ATOM     13  H   LIG    1        3.026   0.645  -0.023  0.00  0.00    +0.166 HD
ATOM     14  N   LIG    1        0.002  -0.004   0.002  0.00  0.00    -0.352 N 
ATOM     15  H   LIG    1       -0.781  -0.576   0.007  0.00  0.00    +0.166 HD
ENDBRANCH   1  10
BRANCH   5  16
ATOM     16  C   LIG    1        5.880   5.999  -0.034  0.00  0.00    +0.096 C 
BRANCH  16  17
ATOM     17  C   LIG    1        7.037   6.677  -0.772  0.00  0.00    +0.009 C 
BRANCH  17  18
ATOM     18  C   LIG    1        8.229   6.825   0.176  0.00  0.00    +0.001 C 
BRANCH  18  19
ATOM     19  C   LIG    1        9.386   7.503  -0.561  0.00  0.00    +0.003 C 
BRANCH  19  20
ATOM     20  C   LIG    1       10.578   7.652   0.387  0.00  0.00    -0.011 C 
ATOM     21  C   LIG    1       10.209   8.606   1.524  0.00  0.00    +0.003 C 
ATOM     22  C   LIG    1       11.400   8.754   2.472  0.00  0.00    +0.000 C 
ATOM     23  C   LIG    1       12.597   9.317   1.702  0.00  0.00    +0.000 C 
ATOM     24  C   LIG    1       12.966   8.363   0.565  0.00  0.00    +0.000 C 
ATOM     25  C   LIG    1       11.774   8.214  -0.383  0.00  0.00    +0.003 C 
ENDBRANCH  19  20
ENDBRANCH  18  19
ENDBRANCH  17  18
ENDBRANCH  16  17
ENDBRANCH   5  16
TORSDOF 6
