REMARK  Name = ZINC01656284
REMARK                            x       y       z     vdW  Elec       q    Type
REMARK                         _______ _______ _______ _____ _____    ______ ____
ROOT
ATOM      1  S   LIG    1        3.992   2.587   0.121  0.00  0.00    +0.025 S 
ATOM      2  O   LIG    1        3.676   3.937  -0.191  0.00  0.00    -0.164 OA
ATOM      3  O   LIG    1        4.865   1.804  -0.681  0.00  0.00    -0.164 OA
ENDROOT
BRANCH   1   6
ATOM      4  C   LIG    1        0.090   1.722   0.526  0.00  0.00    +0.025 A 
ATOM      5  C   LIG    1        1.291   2.402   0.465  0.00  0.00    +0.029 A 
ATOM      6  C   LIG    1        2.462   1.716   0.199  0.00  0.00    +0.094 A 
ATOM      7  C   LIG    1        2.436   0.349  -0.006  0.00  0.00    +0.029 A 
ATOM      8  C   LIG    1        1.238  -0.336   0.053  0.00  0.00    +0.025 A 
ATOM      9  C   LIG    1        0.060   0.349   0.320  0.00  0.00    +0.034 A 
BRANCH   9  10
ATOM     10  N   LIG    1       -1.155  -0.342   0.381  0.00  0.00    -0.285 N 
ATOM     11  H   LIG    1       -1.179  -1.252   0.717  0.00  0.00    +0.155 HD
ATOM     12  C   LIG    1       -2.292   0.255  -0.027  0.00  0.00    +0.232 C 
ATOM     13  O   LIG    1       -2.250   1.357  -0.533  0.00  0.00    -0.274 OA
BRANCH  12  14
ATOM     14  C   LIG    1       -3.615  -0.445   0.145  0.00  0.00    +0.204 C 
ATOM     15 CL   LIG    1       -4.937   0.602  -0.493  0.00  0.00    -0.116 Cl
ENDBRANCH  12  14
ENDBRANCH   9  10
ENDBRANCH   1   6
BRANCH   1  16
ATOM     16  C   LIG    1        4.671   2.593   1.747  0.00  0.00    +0.094 A 
ATOM     17  C   LIG    1        4.361   3.619   2.621  0.00  0.00    +0.029 A 
ATOM     18  C   LIG    1        4.892   3.627   3.896  0.00  0.00    +0.025 A 
ATOM     19  C   LIG    1        5.738   2.603   4.300  0.00  0.00    +0.034 A 
ATOM     20  C   LIG    1        6.048   1.574   3.420  0.00  0.00    +0.025 A 
ATOM     21  C   LIG    1        5.510   1.569   2.148  0.00  0.00    +0.029 A 
BRANCH  19  22
ATOM     22  N   LIG    1        6.279   2.608   5.591  0.00  0.00    -0.285 N 
ATOM     23  H   LIG    1        7.178   2.279   5.742  0.00  0.00    +0.155 HD
ATOM     24  C   LIG    1        5.549   3.071   6.625  0.00  0.00    +0.232 C 
ATOM     25  O   LIG    1        4.457   3.560   6.426  0.00  0.00    -0.274 OA
BRANCH  24  26
ATOM     26  C   LIG    1        6.089   2.981   8.029  0.00  0.00    +0.204 C 
ATOM     27 CL   LIG    1        4.890   3.678   9.181  0.00  0.00    -0.116 Cl
ENDBRANCH  24  26
ENDBRANCH  19  22
ENDBRANCH   1  16
TORSDOF 6
