REMARK  Name = ZINC01532333
REMARK                            x       y       z     vdW  Elec       q    Type
REMARK                         _______ _______ _______ _____ _____    ______ ____
ROOT
ATOM      1  C   LIG    1        2.975  -1.560  -4.999  0.00  0.00    -0.002 A 
ATOM      2  C   LIG    1        2.582  -2.662  -5.747  0.00  0.00    +0.032 A 
ATOM      3  C   LIG    1        3.141  -2.871  -6.962  0.00  0.00    +0.056 A 
ATOM      4 BR   LIG    1        2.808  -4.268  -8.192  0.00  0.00    -0.043 Br
ATOM      5  S   LIG    1        4.269  -1.497  -7.112  0.00  0.00    -0.081 S 
ATOM      6  C   LIG    1        3.932  -0.711  -5.545  0.00  0.00    +0.028 A 
ENDROOT
BRANCH   6   7
ATOM      7  C   LIG    1        4.518   0.518  -4.976  0.00  0.00    -0.011 A 
ATOM      8  C   LIG    1        5.901   0.712  -5.001  0.00  0.00    +0.012 A 
ATOM      9  C   LIG    1        6.443   1.863  -4.468  0.00  0.00    +0.039 A 
ATOM     10  C   LIG    1        5.618   2.825  -3.908  0.00  0.00    +0.123 A 
ATOM     11  F   LIG    1        6.155   3.950  -3.386  0.00  0.00    -0.205 F 
ATOM     12  C   LIG    1        4.245   2.638  -3.879  0.00  0.00    +0.039 A 
ATOM     13  C   LIG    1        3.692   1.494  -4.414  0.00  0.00    +0.012 A 
ENDBRANCH   6   7
BRANCH   1  17
ATOM     14  C   LIG    1        1.294  -0.796  -1.171  0.00  0.00    +0.088 A 
ATOM     15  C   LIG    1        0.468  -0.930  -2.272  0.00  0.00    +0.027 A 
ATOM     16  C   LIG    1        1.007  -1.178  -3.517  0.00  0.00    +0.010 A 
ATOM     17  C   LIG    1        2.389  -1.293  -3.665  0.00  0.00    -0.017 A 
ATOM     18  C   LIG    1        3.217  -1.157  -2.551  0.00  0.00    +0.010 A 
ATOM     19  C   LIG    1        2.666  -0.904  -1.311  0.00  0.00    +0.027 A 
BRANCH  14  21
ATOM     20  C   LIG    1        0.518   1.328   0.539  0.00  0.00    +0.200 C 
ATOM     21  S   LIG    1        0.597  -0.480   0.417  0.00  0.00    -0.006 S 
ATOM     22  O   LIG    1       -0.714  -1.024   0.352  0.00  0.00    -0.170 OA
ATOM     23  O   LIG    1        1.549  -0.992   1.339  0.00  0.00    -0.170 OA
ENDBRANCH  14  21
ENDBRANCH   1  17
TORSDOF 3
