REMARK  Name = ZINC01577199
REMARK                            x       y       z     vdW  Elec       q    Type
REMARK                         _______ _______ _______ _____ _____    ______ ____
ROOT
ATOM      1  C   LIG    1       -2.848  -2.593   0.015  0.00  0.00    +0.011 C 
ENDROOT
BRANCH   1   2
ATOM      2  C   LIG    1       -1.413  -2.063   0.004  0.00  0.00    +0.001 C 
BRANCH   2   3
ATOM      3  C   LIG    1       -1.433  -0.534   0.013  0.00  0.00    -0.000 C 
BRANCH   3   5
ATOM      4  C   LIG    1       -0.019   1.526   0.010  0.00  0.00    +0.004 C 
ATOM      5  C   LIG    1        0.002  -0.004   0.002  0.00  0.00    -0.003 C 
ENDBRANCH   3   5
ENDBRANCH   2   3
ENDBRANCH   1   2
BRANCH   1   6
ATOM      6  C   LIG    1       -2.827  -4.123   0.007  0.00  0.00    +0.120 C 
BRANCH   6   7
ATOM      7  C   LIG    1       -4.241  -4.644   0.018  0.00  0.00    +0.305 C 
ATOM      8  O   LIG    1       -5.178  -3.865   0.031  0.00  0.00    -0.251 OA
BRANCH   7   9
ATOM      9  O   LIG    1       -4.447  -5.846   0.013  0.00  0.00    -0.481 OA
ATOM     10  H   LIG    1       -3.727  -6.445   0.003  0.00  0.00    +0.295 HD
ENDBRANCH   7   9
ENDBRANCH   6   7
ENDBRANCH   1   6
TORSDOF 6
