REMARK  Name = ZINC01609268
REMARK                            x       y       z     vdW  Elec       q    Type
REMARK                         _______ _______ _______ _____ _____    ______ ____
ROOT
ATOM      1  C   LIG    1        1.685  -2.053  -0.025  0.00  0.00    +0.013 A 
ATOM      2  C   LIG    1        3.040  -2.032  -0.038  0.00  0.00    +0.102 A 
ATOM      3  N   LIG    1        3.480  -0.734  -0.035  0.00  0.00    -0.300 N 
ATOM      4  C   LIG    1        2.414   0.127  -0.020  0.00  0.00    +0.151 A 
ATOM      5  N   LIG    1        2.294   1.454  -0.012  0.00  0.00    -0.217 NA
ATOM      6  C   LIG    1        1.107   2.022   0.002  0.00  0.00    +0.225 A 
ATOM      7  N   LIG    1       -0.016   1.326   0.009  0.00  0.00    -0.220 NA
ATOM      8  C   LIG    1        0.002  -0.004   0.002  0.00  0.00    +0.129 A 
ATOM      9  C   LIG    1        1.244  -0.652  -0.013  0.00  0.00    +0.066 A 
ENDROOT
BRANCH   1  13
ATOM     10  C   LIG    1       -0.803  -5.503  -0.018  0.00  0.00    +0.120 A 
ATOM     11  C   LIG    1        0.219  -5.388  -0.949  0.00  0.00    +0.046 A 
ATOM     12  C   LIG    1        1.028  -4.271  -0.955  0.00  0.00    +0.012 A 
ATOM     13  C   LIG    1        0.817  -3.256  -0.023  0.00  0.00    -0.015 A 
ATOM     14  C   LIG    1       -0.208  -3.376   0.915  0.00  0.00    +0.012 A 
ATOM     15  C   LIG    1       -1.016  -4.494   0.911  0.00  0.00    +0.046 A 
BRANCH  10  17
ATOM     16  C   LIG    1       -2.631  -6.658   0.971  0.00  0.00    +0.277 C 
ATOM     17  O   LIG    1       -1.598  -6.606  -0.015  0.00  0.00    -0.495 OA
ENDBRANCH  10  17
ENDBRANCH   1  13
BRANCH   3  18
ATOM     18  C   LIG    1        4.825  -0.344  -0.046  0.00  0.00    +0.048 A 
ATOM     19  C   LIG    1        5.271   0.593  -0.969  0.00  0.00    +0.026 A 
ATOM     20  C   LIG    1        6.597   0.979  -0.974  0.00  0.00    +0.002 A 
ATOM     21  C   LIG    1        7.483   0.427  -0.067  0.00  0.00    +0.000 A 
ATOM     22  C   LIG    1        7.043  -0.510   0.850  0.00  0.00    +0.002 A 
ATOM     23  C   LIG    1        5.718  -0.897   0.863  0.00  0.00    +0.026 A 
ENDBRANCH   3  18
BRANCH   8  24
ATOM     24  N   LIG    1       -1.176  -0.729   0.009  0.00  0.00    -0.343 N 
ATOM     25  H   LIG    1       -1.149  -1.699   0.004  0.00  0.00    +0.144 HD
ATOM     26  H   LIG    1       -2.029  -0.268   0.019  0.00  0.00    +0.144 HD
ENDBRANCH   8  24
TORSDOF 4
