REMARK  Name = ZINC01640741
REMARK                            x       y       z     vdW  Elec       q    Type
REMARK                         _______ _______ _______ _____ _____    ______ ____
ROOT
ATOM      1  N   LIG    1       -0.009   0.046  -0.018  0.00  0.00    -0.284 N 
ATOM      2  C   LIG    1        1.373  -0.449  -0.065  0.00  0.00    +0.217 C 
ATOM      3  N   LIG    1        2.229   0.673   0.385  0.00  0.00    -0.300 N 
ATOM      4  C   LIG    1        1.429   1.865   0.035  0.00  0.00    +0.109 C 
ATOM      5  C   LIG    1        1.630   2.957   1.081  0.00  0.00    +0.017 C 
ATOM      6  C   LIG    1        0.829   4.199   0.678  0.00  0.00    -0.076 C 
ATOM      7  N   LIG    1        1.300   4.662  -0.645  0.00  0.00    +0.380 N 
ATOM      8  H   LIG    1        2.313   4.821  -0.601  0.00  0.00    -0.082 HD
ATOM      9  C   LIG    1        1.020   3.636  -1.673  0.00  0.00    -0.076 C 
ATOM     10  C   LIG    1        1.827   2.376  -1.347  0.00  0.00    +0.017 C 
ATOM     11  C   LIG    1       -0.004   1.395   0.031  0.00  0.00    +0.240 C 
ATOM     12  O   LIG    1       -0.985   2.108   0.061  0.00  0.00    -0.273 OA
ENDROOT
BRANCH   3  13
ATOM     13  C   LIG    1        3.451   0.673  -0.292  0.00  0.00    +0.032 A 
ATOM     14  C   LIG    1        3.781  -0.384  -1.131  0.00  0.00    +0.023 A 
ATOM     15  C   LIG    1        4.988  -0.378  -1.803  0.00  0.00    +0.002 A 
ATOM     16  C   LIG    1        5.871   0.673  -1.633  0.00  0.00    +0.000 A 
ATOM     17  C   LIG    1        5.547   1.723  -0.794  0.00  0.00    +0.002 A 
ATOM     18  C   LIG    1        4.340   1.726  -0.123  0.00  0.00    +0.023 A 
ENDBRANCH   3  13
BRANCH   1  19
ATOM     19  C   LIG    1       -1.209  -0.795  -0.024  0.00  0.00    +0.109 C 
BRANCH  19  21
ATOM     20  C   LIG    1       -2.909  -1.913  -1.473  0.00  0.00    +0.005 C 
ATOM     21  C   LIG    1       -1.656  -1.035  -1.467  0.00  0.00    +0.016 C 
ENDBRANCH  19  21
ENDBRANCH   1  19
BRANCH   7  22
ATOM     22  C   LIG    1        0.631   5.930  -1.003  0.00  0.00    -0.078 C 
BRANCH  22  23
ATOM     23  C   LIG    1        0.698   6.886   0.190  0.00  0.00    -0.011 C 
BRANCH  23  24
ATOM     24  C   LIG    1        0.033   8.212  -0.182  0.00  0.00    +0.078 C 
BRANCH  24  25
ATOM     25  C   LIG    1        0.098   9.153   0.993  0.00  0.00    +0.163 C 
ATOM     26  O   LIG    1        0.625   8.798   2.026  0.00  0.00    -0.292 OA
BRANCH  25  27
ATOM     27  C   LIG    1       -0.477  10.502   0.887  0.00  0.00    +0.018 A 
ATOM     28  C   LIG    1       -1.081  10.917  -0.305  0.00  0.00    +0.014 A 
ATOM     29  C   LIG    1       -1.623  12.181  -0.396  0.00  0.00    +0.039 A 
ATOM     30  C   LIG    1       -1.560  13.045   0.688  0.00  0.00    +0.123 A 
ATOM     31  F   LIG    1       -2.089  14.284   0.591  0.00  0.00    -0.205 F 
ATOM     32  C   LIG    1       -0.958  12.642   1.870  0.00  0.00    +0.039 A 
ATOM     33  C   LIG    1       -0.417  11.379   1.976  0.00  0.00    +0.014 A 
ENDBRANCH  25  27
ENDBRANCH  24  25
ENDBRANCH  23  24
ENDBRANCH  22  23
ENDBRANCH   7  22
TORSDOF 8
