REMARK  Name = ZINC01605725
REMARK                            x       y       z     vdW  Elec       q    Type
REMARK                         _______ _______ _______ _____ _____    ______ ____
ROOT
ATOM      1  C   VAL A  1        3.432   1.538   1.277  0.00  0.00    +0.199 C 
ATOM      2  N   PHE A  2        2.089   1.647   1.243  0.00  0.00    -0.303 N 
ATOM      3  H   PHE A  2        1.568   1.470   2.041  0.00  0.00    +0.149 HD
ATOM      4  O   VAL A  1        4.084   1.759   0.279  0.00  0.00    -0.278 OA
ENDROOT
BRANCH   1   5
ATOM      5  CA  VAL A  1        4.123   1.142   2.556  0.00  0.00    +0.015 C 
BRANCH   5   6
ATOM      6  N   VAL A  1        5.475   0.629   2.273  0.00  0.00    +0.386 N 
ATOM      7  H1  VAL A  1        5.940   0.396   3.158  0.00  0.00    -0.089 HD
ATOM      8  H2  VAL A  1        6.023   1.336   1.786  0.00  0.00    -0.089 HD
ATOM      9  H3  VAL A  1        5.417  -0.210   1.698  0.00  0.00    -0.089 HD
ENDBRANCH   5   6
BRANCH   5  11
ATOM     10  CG1 VAL A  1        2.838   2.891   3.793  0.00  0.00    +0.006 C 
ATOM     11  CB  VAL A  1        4.237   2.361   3.474  0.00  0.00    -0.023 C 
ATOM     12  CG2 VAL A  1        4.939   1.959   4.772  0.00  0.00    +0.006 C 
ENDBRANCH   5  11
ENDBRANCH   1   5
BRANCH   2  13
ATOM     13  CA  PHE A  2        1.417   2.032  -0.001  0.00  0.00    +0.186 C 
BRANCH  13  14
ATOM     14  C   PHE A  2        1.397   3.535  -0.116  0.00  0.00    +0.326 C 
ATOM     15  O   PHE A  2        1.894   4.214   0.751  0.00  0.00    -0.249 OA
BRANCH  14  16
ATOM     16  OXT PHE A  2        0.828   4.118  -1.183  0.00  0.00    -0.479 OA
ATOM     17  HXT PHE A  2        0.443   3.592  -1.855  0.00  0.00    +0.295 HD
ENDBRANCH  14  16
ENDBRANCH  13  14
BRANCH  13  18
ATOM     18  CB  PHE A  2       -0.018   1.503   0.010  0.00  0.00    +0.069 C 
BRANCH  18  19
ATOM     19  CG  PHE A  2        0.002  -0.004   0.002  0.00  0.00    -0.045 A 
ATOM     20  CD2 PHE A  2       -0.006  -0.689  -1.199  0.00  0.00    +0.004 A 
ATOM     21  CE2 PHE A  2        0.018  -2.071  -1.206  0.00  0.00    +0.000 A 
ATOM     22  CZ  PHE A  2        0.039  -2.768  -0.013  0.00  0.00    +0.000 A 
ATOM     23  CE1 PHE A  2        0.041  -2.084   1.188  0.00  0.00    +0.000 A 
ATOM     24  CD1 PHE A  2        0.023  -0.702   1.195  0.00  0.00    +0.004 A 
ENDBRANCH  18  19
ENDBRANCH  13  18
ENDBRANCH   2  13
TORSDOF 8
