REMARK  Name = ZINC01530866
REMARK                            x       y       z     vdW  Elec       q    Type
REMARK                         _______ _______ _______ _____ _____    ______ ____
ROOT
ATOM      1  C   LIG    1       -5.864  -6.534   0.183  0.00  0.00    -0.011 A 
ATOM      2  C   LIG    1       -6.429  -6.951  -0.968  0.00  0.00    +0.016 A 
ATOM      3  C   LIG    1       -7.774  -7.384  -1.015  0.00  0.00    +0.001 A 
ATOM      4  C   LIG    1       -8.554  -7.385   0.163  0.00  0.00    -0.007 A 
ATOM      5  C   LIG    1       -7.940  -6.933   1.415  0.00  0.00    -0.009 A 
ATOM      6  C   LIG    1       -8.656  -6.910   2.613  0.00  0.00    +0.021 A 
ATOM      7  C   LIG    1       -8.042  -6.496   3.760  0.00  0.00    +0.055 A 
ATOM      8  C   LIG    1       -6.716  -6.080   3.746  0.00  0.00    +0.013 A 
ATOM      9  C   LIG    1       -5.992  -6.087   2.590  0.00  0.00    +0.009 A 
ATOM     10  C   LIG    1       -9.883  -7.812   0.115  0.00  0.00    +0.029 A 
ATOM     11  C   LIG    1      -10.420  -8.229  -1.082  0.00  0.00    +0.043 A 
ATOM     12 CL   LIG    1      -12.072  -8.760  -1.146  0.00  0.00    -0.083 Cl
ATOM     13  C   LIG    1       -9.652  -8.228  -2.242  0.00  0.00    +0.040 A 
ATOM     14  C   LIG    1       -8.351  -7.815  -2.220  0.00  0.00    +0.050 A 
ATOM     15 CL   LIG    1       -7.412  -7.822  -3.680  0.00  0.00    -0.083 Cl
ATOM     16  C   LIG    1       -6.590  -6.516   1.397  0.00  0.00    -0.012 A 
ENDROOT
BRANCH   7  17
ATOM     17  C   LIG    1       -8.815  -6.479   5.054  0.00  0.00    +0.417 C 
ATOM     18  F   LIG    1       -9.248  -7.774   5.356  0.00  0.00    -0.166 F 
ATOM     19  F   LIG    1       -9.923  -5.635   4.925  0.00  0.00    -0.166 F 
ATOM     20  F   LIG    1       -7.990  -6.011   6.083  0.00  0.00    -0.166 F 
ENDBRANCH   7  17
BRANCH   1  21
ATOM     21  C   LIG    1       -4.426  -6.083   0.178  0.00  0.00    +0.143 C 
BRANCH  21  22
ATOM     22  O   LIG    1       -3.739  -6.696  -0.914  0.00  0.00    -0.387 OA
ATOM     23  H   LIG    1       -4.108  -6.481  -1.782  0.00  0.00    +0.210 HD
ENDBRANCH  21  22
BRANCH  21  24
ATOM     24  C   LIG    1       -4.370  -4.561   0.027  0.00  0.00    +0.017 C 
BRANCH  24  25
ATOM     25  C   LIG    1       -2.919  -4.090   0.146  0.00  0.00    -0.076 C 
BRANCH  25  26
ATOM     26  N   LIG    1       -2.854  -2.641  -0.085  0.00  0.00    +0.380 N 
ATOM     27  H   LIG    1       -3.283  -2.422  -0.972  0.00  0.00    -0.082 HD
BRANCH  26  28
ATOM     28  C   LIG    1       -3.569  -1.941   0.991  0.00  0.00    -0.079 C 
BRANCH  28  29
ATOM     29  C   LIG    1       -3.609  -0.443   0.685  0.00  0.00    -0.019 C 
BRANCH  29  31
ATOM     30  C   LIG    1       -4.394   1.785   1.500  0.00  0.00    +0.004 C 
ATOM     31  C   LIG    1       -4.354   0.286   1.805  0.00  0.00    -0.005 C 
ENDBRANCH  29  31
ENDBRANCH  28  29
ENDBRANCH  26  28
BRANCH  26  32
ATOM     32  C   LIG    1       -1.450  -2.210  -0.100  0.00  0.00    -0.079 C 
BRANCH  32  33
ATOM     33  C   LIG    1       -0.745  -2.810  -1.319  0.00  0.00    -0.019 C 
BRANCH  33  34
ATOM     34  C   LIG    1        0.721  -2.372  -1.327  0.00  0.00    -0.005 C 
ATOM     35  C   LIG    1        1.425  -2.972  -2.546  0.00  0.00    +0.004 C 
ENDBRANCH  33  34
ENDBRANCH  32  33
ENDBRANCH  26  32
ENDBRANCH  25  26
ENDBRANCH  24  25
ENDBRANCH  21  24
ENDBRANCH   1  21
TORSDOF 12
