REMARK  Name = ZINC01452720
REMARK                            x       y       z     vdW  Elec       q    Type
REMARK                         _______ _______ _______ _____ _____    ______ ____
ROOT
ATOM      1  C   LIG    1        1.235   2.055  -0.477  0.00  0.00    +0.001 A 
ATOM      2  C   LIG    1        0.040   1.340  -0.429  0.00  0.00    +0.001 A 
ATOM      3  C   LIG    1        0.041  -0.017  -0.298  0.00  0.00    +0.009 A 
ATOM      4  C   LIG    1        1.257  -0.703  -0.210  0.00  0.00    -0.011 A 
ATOM      5  C   LIG    1        2.474   0.020  -0.258  0.00  0.00    -0.017 A 
ATOM      6  C   LIG    1        3.693  -0.672  -0.170  0.00  0.00    +0.008 A 
ATOM      7  C   LIG    1        3.716  -2.028  -0.040  0.00  0.00    +0.001 A 
ATOM      8  C   LIG    1        2.551  -2.779   0.011  0.00  0.00    +0.008 A 
ATOM      9  C   LIG    1        1.306  -2.159  -0.069  0.00  0.00    -0.016 A 
ATOM     10  C   LIG    1        2.436   1.419  -0.393  0.00  0.00    +0.008 A 
ENDROOT
BRANCH   9  11
ATOM     11  C   LIG    1        0.072  -2.947  -0.015  0.00  0.00    +0.028 C 
ATOM     12  C   LIG    1        0.097  -4.215   0.474  0.00  0.00    +0.077 C 
ATOM     13  C   LIG    1       -0.969  -5.238   0.494  0.00  0.00    +0.256 C 
ATOM     14  N   LIG    1       -0.662  -6.402   1.040  0.00  0.00    -0.270 N 
ATOM     15  H   LIG    1       -1.333  -7.102   1.073  0.00  0.00    +0.156 HD
ATOM     16  C   LIG    1        0.563  -6.640   1.552  0.00  0.00    +0.118 C 
ATOM     17  S   LIG    1        1.147  -8.068   2.294  0.00  0.00    -0.027 S 
ATOM     18  O   LIG    1       -2.073  -5.020   0.031  0.00  0.00    -0.269 OA
ATOM     19  S   LIG    1        1.431  -5.106   1.263  0.00  0.00    -0.061 S 
ENDBRANCH   9  11
TORSDOF 1
