REMARK  Name = ZINC01566904
REMARK                            x       y       z     vdW  Elec       q    Type
REMARK                         _______ _______ _______ _____ _____    ______ ____
ROOT
ATOM      1  C   LIG    1       -0.016   1.312   0.009  0.00  0.00    +0.225 A 
ATOM      2  N   LIG    1        1.089   2.036   0.003  0.00  0.00    -0.219 NA
ATOM      3  C   LIG    1        2.288   1.462  -0.012  0.00  0.00    +0.147 A 
ATOM      4  C   LIG    1        2.358   0.059  -0.020  0.00  0.00    +0.147 A 
ATOM      5  C   LIG    1        1.155  -0.666  -0.013  0.00  0.00    +0.166 A 
ATOM      6  N   LIG    1        1.511  -1.991  -0.023  0.00  0.00    -0.312 N 
ATOM      7  C   LIG    1        2.873  -2.048  -0.036  0.00  0.00    +0.202 A 
ATOM      8  N   LIG    1        3.368  -0.844  -0.034  0.00  0.00    -0.231 NA
ATOM      9  N   LIG    1        0.002  -0.004   0.002  0.00  0.00    -0.216 NA
ENDROOT
BRANCH   6  10
ATOM     10  C   LIG    1        0.596  -3.135  -0.019  0.00  0.00    +0.090 C 
ATOM     11  C   LIG    1        0.867  -4.032  -1.244  0.00  0.00    +0.025 C 
ATOM     12  C   LIG    1        1.814  -5.133  -0.706  0.00  0.00    +0.002 C 
ATOM     13  C   LIG    1        1.256  -5.400   0.714  0.00  0.00    +0.002 C 
ATOM     14  C   LIG    1        0.843  -4.004   1.226  0.00  0.00    +0.025 C 
ENDBRANCH   6  10
BRANCH   3  15
ATOM     15  N   LIG    1        3.439   2.229  -0.019  0.00  0.00    -0.341 N 
ATOM     16  H   LIG    1        4.309   1.799  -0.030  0.00  0.00    +0.144 HD
ATOM     17  H   LIG    1        3.377   3.197  -0.014  0.00  0.00    +0.144 HD
ENDBRANCH   3  15
TORSDOF 2
