REMARK  Name = ZINC01529592
REMARK                            x       y       z     vdW  Elec       q    Type
REMARK                         _______ _______ _______ _____ _____    ______ ____
ROOT
ATOM      1  C   LIG    1       -0.017   1.378   0.010  0.00  0.00    +0.000 A 
ATOM      2  C   LIG    1        1.171   2.086   0.002  0.00  0.00    +0.000 A 
ATOM      3  C   LIG    1        2.377   1.411  -0.013  0.00  0.00    +0.005 A 
ATOM      4  C   LIG    1        2.396   0.029  -0.020  0.00  0.00    -0.025 A 
ATOM      5  C   LIG    1        1.208  -0.679  -0.012  0.00  0.00    +0.005 A 
ATOM      6  C   LIG    1        0.002  -0.004   0.002  0.00  0.00    +0.000 A 
ENDROOT
BRANCH   4   7
ATOM      7  C   LIG    1        3.711  -0.707  -0.038  0.00  0.00    +0.188 C 
BRANCH   7   8
ATOM      8  N   LIG    1        4.152  -0.952   1.338  0.00  0.00    -0.230 NA
ATOM      9  C   LIG    1        4.326  -2.123   1.739  0.00  0.00    +0.036 C 
ATOM     10  S   LIG    1        4.542  -3.579   2.238  0.00  0.00    +0.020 S 
ENDBRANCH   7   8
ENDBRANCH   4   7
TORSDOF 2
