REMARK  Name = ZINC01530718
REMARK                            x       y       z     vdW  Elec       q    Type
REMARK                         _______ _______ _______ _____ _____    ______ ____
ROOT
ATOM      1  C   LIG    1       -0.143  -0.349   4.883  0.00  0.00    +0.258 C 
ENDROOT
BRANCH   1   2
ATOM      2  C   LIG    1        0.700  -0.626   3.637  0.00  0.00    +0.135 C 
BRANCH   2   3
ATOM      3  O   LIG    1        1.955   0.049   3.752  0.00  0.00    -0.390 OA
ATOM      4  H   LIG    1        1.879   1.009   3.837  0.00  0.00    +0.210 HD
ENDBRANCH   2   3
BRANCH   2   5
ATOM      5  C   LIG    1       -0.040  -0.119   2.398  0.00  0.00    -0.047 C 
BRANCH   5   6
ATOM      6  N   LIG    1        0.713  -0.491   1.192  0.00  0.00    +0.382 N 
ATOM      7  H   LIG    1        1.632  -0.076   1.228  0.00  0.00    -0.085 HD
ATOM      8  H   LIG    1        0.798  -1.495   1.145  0.00  0.00    -0.085 HD
BRANCH   6  10
ATOM      9  C   LIG    1       -0.019   1.526   0.010  0.00  0.00    -0.014 C 
ATOM     10  C   LIG    1        0.002  -0.004   0.002  0.00  0.00    -0.078 C 
ATOM     11  C   LIG    1        0.718  -0.497  -1.257  0.00  0.00    -0.014 C 
ENDBRANCH   6  10
ENDBRANCH   5   6
ENDBRANCH   2   5
ENDBRANCH   1   2
BRANCH   1  12
ATOM     12  O   LIG    1        0.492  -0.925   6.026  0.00  0.00    -0.489 OA
BRANCH  12  13
ATOM     13  C   LIG    1       -0.132  -0.768   7.224  0.00  0.00    +0.121 A 
ATOM     14  C   LIG    1       -1.334  -0.080   7.296  0.00  0.00    +0.046 A 
ATOM     15  C   LIG    1       -1.966   0.077   8.514  0.00  0.00    +0.007 A 
ATOM     16  C   LIG    1       -1.402  -0.451   9.661  0.00  0.00    -0.045 A 
ATOM     17  C   LIG    1       -0.203  -1.137   9.591  0.00  0.00    +0.007 A 
ATOM     18  C   LIG    1        0.430  -1.302   8.375  0.00  0.00    +0.046 A 
BRANCH  16  19
ATOM     19  C   LIG    1       -2.094  -0.277  10.988  0.00  0.00    +0.063 C 
BRANCH  19  20
ATOM     20  C   LIG    1       -3.046  -1.451  11.224  0.00  0.00    +0.164 C 
BRANCH  20  21
ATOM     21  O   LIG    1       -3.703  -1.287  12.482  0.00  0.00    -0.383 OA
ATOM     22  C   LIG    1       -4.620  -2.335  12.801  0.00  0.00    +0.193 C 
ENDBRANCH  20  21
ENDBRANCH  19  20
ENDBRANCH  16  19
ENDBRANCH  12  13
ENDBRANCH   1  12
TORSDOF 10
