REMARK  Name = ZINC01433264
REMARK                            x       y       z     vdW  Elec       q    Type
REMARK                         _______ _______ _______ _____ _____    ______ ____
ROOT
ATOM      1  C   LIG    1        0.971   3.714   3.980  0.00  0.00    +0.002 A 
ATOM      2  C   LIG    1        2.234   3.934   3.461  0.00  0.00    +0.001 A 
ATOM      3  C   LIG    1        2.561   3.379   2.235  0.00  0.00    +0.016 A 
ATOM      4  C   LIG    1        1.633   2.622   1.556  0.00  0.00    +0.031 A 
ATOM      5  C   LIG    1        0.349   2.381   2.054  0.00  0.00    +0.042 A 
ATOM      6  N   LIG    1       -0.516   1.601   1.289  0.00  0.00    -0.323 N 
ATOM      7  H   LIG    1       -1.417   1.405   1.590  0.00  0.00    +0.148 HD
ATOM      8  C   LIG    1       -0.013   1.086   0.008  0.00  0.00    +0.189 C 
ATOM      9  S   LIG    1        1.693   1.770  -0.005  0.00  0.00    -0.090 S 
ATOM     10  C   LIG    1        0.045   2.958   3.300  0.00  0.00    +0.024 A 
ENDROOT
BRANCH   8  11
ATOM     11  S   LIG    1       -0.984   1.729  -1.382  0.00  0.00    -0.145 S 
ATOM     12  H   LIG    1       -0.363   1.238  -2.469  0.00  0.00    +0.104 HD
ENDBRANCH   8  11
TORSDOF 1
