REMARK  Name = ZINC01488051
REMARK                            x       y       z     vdW  Elec       q    Type
REMARK                         _______ _______ _______ _____ _____    ______ ____
ROOT
ATOM      1  C   LIG    1        0.244  -4.001  -2.927  0.00  0.00    +0.045 A 
ATOM      2  C   LIG    1        0.165  -3.104  -3.995  0.00  0.00    +0.015 A 
ATOM      3  C   LIG    1        0.672  -3.452  -5.226  0.00  0.00    +0.024 A 
ATOM      4  C   LIG    1        1.267  -4.698  -5.417  0.00  0.00    +0.028 A 
ATOM      5  C   LIG    1        1.353  -5.601  -4.365  0.00  0.00    +0.032 A 
ATOM      6  C   LIG    1        0.849  -5.260  -3.115  0.00  0.00    -0.003 A 
ENDROOT
BRANCH   6   7
ATOM      7  C   LIG    1        0.943  -6.216  -1.990  0.00  0.00    -0.009 A 
ATOM      8  C   LIG    1        2.179  -6.575  -1.478  0.00  0.00    +0.009 A 
ATOM      9  C   LIG    1        2.275  -7.472  -0.421  0.00  0.00    +0.001 A 
ATOM     10  C   LIG    1        1.162  -8.021   0.141  0.00  0.00    +0.008 A 
ATOM     11  C   LIG    1       -0.113  -7.684  -0.347  0.00  0.00    -0.017 A 
ATOM     12  C   LIG    1       -1.277  -8.238   0.215  0.00  0.00    +0.008 A 
ATOM     13  C   LIG    1       -2.496  -7.875  -0.269  0.00  0.00    +0.001 A 
ATOM     14  C   LIG    1       -2.609  -6.978  -1.329  0.00  0.00    +0.001 A 
ATOM     15  C   LIG    1       -1.502  -6.428  -1.902  0.00  0.00    +0.009 A 
ATOM     16  C   LIG    1       -0.230  -6.768  -1.420  0.00  0.00    -0.010 A 
ENDBRANCH   6   7
BRANCH   1  19
ATOM     17  N   LIG    1       -0.876  -2.426  -1.433  0.00  0.00    -0.298 N 
ATOM     18  H   LIG    1       -0.936  -1.804  -2.174  0.00  0.00    +0.150 HD
ATOM     19  C   LIG    1       -0.298  -3.631  -1.609  0.00  0.00    +0.245 C 
ATOM     20  O   LIG    1       -0.224  -4.412  -0.680  0.00  0.00    -0.270 OA
BRANCH  17  21
ATOM     21  C   LIG    1       -1.416  -2.058  -0.121  0.00  0.00    +0.182 C 
BRANCH  21  22
ATOM     22  C   LIG    1       -2.819  -2.590   0.013  0.00  0.00    +0.327 C 
ATOM     23  O   LIG    1       -3.318  -3.213  -0.894  0.00  0.00    -0.249 OA
BRANCH  22  24
ATOM     24  O   LIG    1       -3.515  -2.372   1.139  0.00  0.00    -0.467 OA
ATOM     25  C   LIG    1       -4.840  -2.905   1.197  0.00  0.00    +0.280 C 
ENDBRANCH  22  24
ENDBRANCH  21  22
BRANCH  21  26
ATOM     26  C   LIG    1       -1.433  -0.534   0.013  0.00  0.00    +0.036 C 
BRANCH  26  28
ATOM     27  C   LIG    1       -0.019   1.526   0.010  0.00  0.00    +0.007 C 
ATOM     28  C   LIG    1        0.002  -0.004   0.002  0.00  0.00    -0.015 C 
ATOM     29  C   LIG    1        0.742  -0.511   1.242  0.00  0.00    +0.007 C 
ENDBRANCH  26  28
ENDBRANCH  21  26
ENDBRANCH  17  21
ENDBRANCH   1  19
BRANCH   4  30
ATOM     30  N   LIG    1        1.776  -5.039  -6.666  0.00  0.00    -0.345 N 
ATOM     31  H   LIG    1        2.190  -5.906  -6.801  0.00  0.00    +0.146 HD
BRANCH  30  32
ATOM     32  C   LIG    1        1.687  -4.089  -7.777  0.00  0.00    +0.086 C 
BRANCH  32  33
ATOM     33  C   LIG    1        2.316  -4.707  -9.028  0.00  0.00    -0.048 C 
BRANCH  33  34
ATOM     34  N   LIG    1        1.678  -6.000  -9.309  0.00  0.00    +0.382 N 
ATOM     35  H   LIG    1        2.093  -6.407 -10.134  0.00  0.00    -0.090 HD
ATOM     36  H   LIG    1        0.690  -5.861  -9.463  0.00  0.00    -0.090 HD
ATOM     37  H   LIG    1        1.812  -6.619  -8.524  0.00  0.00    -0.090 HD
ENDBRANCH  33  34
BRANCH  33  38
ATOM     38  C   LIG    1        2.112  -3.767 -10.218  0.00  0.00    +0.051 C 
BRANCH  38  39
ATOM     39  S   LIG    1        2.858  -4.499 -11.701  0.00  0.00    -0.180 S 
ATOM     40  H   LIG    1        2.618  -3.595 -12.666  0.00  0.00    +0.102 HD
ENDBRANCH  38  39
ENDBRANCH  33  38
ENDBRANCH  32  33
ENDBRANCH  30  32
ENDBRANCH   4  30
TORSDOF 13
