REMARK  Name = ZINC01571123
REMARK                            x       y       z     vdW  Elec       q    Type
REMARK                         _______ _______ _______ _____ _____    ______ ____
ROOT
ATOM      1  C   LIG    1        2.317   0.386   0.269  0.00  0.00    +0.001 A 
ATOM      2  C   LIG    1        0.942   0.601   0.343  0.00  0.00    +0.001 A 
ATOM      3  C   LIG    1        0.428   1.861   0.319  0.00  0.00    +0.008 A 
ATOM      4  C   LIG    1        1.294   2.963   0.209  0.00  0.00    -0.015 A 
ATOM      5  C   LIG    1        0.797   4.277   0.176  0.00  0.00    +0.050 A 
ATOM      6  C   LIG    1        1.676   5.331   0.066  0.00  0.00    +0.100 A 
ATOM      7  C   LIG    1        3.056   5.106  -0.013  0.00  0.00    +0.043 A 
ATOM      8  C   LIG    1        3.560   3.844   0.017  0.00  0.00    +0.012 A 
ATOM      9  C   LIG    1        2.692   2.744   0.128  0.00  0.00    -0.018 A 
ATOM     10  C   LIG    1        3.185   1.429   0.161  0.00  0.00    +0.008 A 
ENDROOT
BRANCH   6  11
ATOM     11  N   LIG    1        1.186   6.640   0.034  0.00  0.00    -0.246 N 
ATOM     12  H   LIG    1        0.330   6.827  -0.383  0.00  0.00    +0.265 HD
BRANCH  11  13
ATOM     13  C   LIG    1        1.918   7.663   0.592  0.00  0.00    +0.346 C 
ATOM     14  N   LIG    1        3.021   7.329   1.246  0.00  0.00    -0.292 N 
ATOM     15  H   LIG    1        3.296   6.342   1.317  0.00  0.00    +0.255 HD
ATOM     16  H   LIG    1        3.597   8.051   1.677  0.00  0.00    +0.255 HD
BRANCH  13  17
ATOM     17  N   LIG    1        1.494   8.964   0.459  0.00  0.00    -0.292 N 
ATOM     18  H   LIG    1        2.009   9.686   0.852  0.00  0.00    +0.255 HD
ATOM     19  H   LIG    1        0.679   9.161  -0.029  0.00  0.00    +0.255 HD
ENDBRANCH  13  17
ENDBRANCH  11  13
ENDBRANCH   6  11
TORSDOF 3
