REMARK  Name = ZINC01651145
REMARK                            x       y       z     vdW  Elec       q    Type
REMARK                         _______ _______ _______ _____ _____    ______ ____
ROOT
ATOM      1  N   LIG    1        4.745   1.687  -2.843  0.00  0.00    -0.340 N 
ATOM      2  H   LIG    1        4.870   0.939  -2.238  0.00  0.00    +0.146 HD
ENDROOT
BRANCH   1   6
ATOM      3  C   LIG    1        6.980   1.943  -6.344  0.00  0.00    +0.100 A 
ATOM      4  C   LIG    1        6.043   2.934  -6.028  0.00  0.00    +0.020 A 
ATOM      5  C   LIG    1        5.309   2.841  -4.882  0.00  0.00    +0.024 A 
ATOM      6  C   LIG    1        5.494   1.768  -4.011  0.00  0.00    +0.031 A 
ATOM      7  C   LIG    1        6.421   0.777  -4.310  0.00  0.00    +0.069 A 
ATOM      8  C   LIG    1        7.166   0.857  -5.473  0.00  0.00    +0.133 A 
BRANCH   3   9
ATOM      9  C   LIG    1        7.768   2.039  -7.582  0.00  0.00    +0.342 C 
ATOM     10  O   LIG    1        8.581   1.178  -7.853  0.00  0.00    -0.245 OA
BRANCH   9  12
ATOM     11  C   LIG    1        8.399   3.112  -9.620  0.00  0.00    +0.280 C 
ATOM     12  O   LIG    1        7.587   3.083  -8.416  0.00  0.00    -0.464 OA
ENDBRANCH   9  12
ENDBRANCH   3   9
BRANCH   8  13
ATOM     13  O   LIG    1        8.073  -0.108  -5.770  0.00  0.00    -0.506 OA
ATOM     14  H   LIG    1        7.712  -0.840  -6.287  0.00  0.00    +0.292 HD
ENDBRANCH   8  13
ENDBRANCH   1   6
BRANCH   1  15
ATOM     15  C   LIG    1        3.768   2.731  -2.526  0.00  0.00    +0.140 C 
BRANCH  15  16
ATOM     16  C   LIG    1        3.096   2.409  -1.216  0.00  0.00    +0.014 A 
ATOM     17  C   LIG    1        1.842   1.830  -1.207  0.00  0.00    +0.054 A 
ATOM     18  C   LIG    1        1.224   1.533  -0.001  0.00  0.00    +0.117 A 
ATOM     19  C   LIG    1        1.862   1.822   1.196  0.00  0.00    +0.049 A 
ATOM     20  C   LIG    1        3.119   2.396   1.187  0.00  0.00    +0.049 A 
ATOM     21  C   LIG    1        3.737   2.693  -0.019  0.00  0.00    +0.122 A 
BRANCH  18  22
ATOM     22  O   LIG    1       -0.011   0.963   0.007  0.00  0.00    -0.507 OA
ATOM     23  H   LIG    1        0.002  -0.004   0.002  0.00  0.00    +0.292 HD
ENDBRANCH  18  22
BRANCH  21  24
ATOM     24  O   LIG    1        4.971   3.263  -0.028  0.00  0.00    -0.506 OA
ATOM     25  H   LIG    1        4.958   4.230  -0.022  0.00  0.00    +0.292 HD
ENDBRANCH  21  24
ENDBRANCH  15  16
ENDBRANCH   1  15
TORSDOF 8
