REMARK  Name = ZINC01639355
REMARK                            x       y       z     vdW  Elec       q    Type
REMARK                         _______ _______ _______ _____ _____    ______ ____
ROOT
ATOM      1  C   LIG    1       -0.017   1.373   0.010  0.00  0.00    +0.001 A 
ATOM      2  C   LIG    1        1.175   2.079   0.002  0.00  0.00    +0.002 A 
ATOM      3  C   LIG    1        2.379   1.410   0.006  0.00  0.00    +0.024 A 
ATOM      4  C   LIG    1        2.421   0.014   0.006  0.00  0.00    +0.043 A 
ATOM      5  C   LIG    1        1.219  -0.695  -0.018  0.00  0.00    +0.020 A 
ATOM      6  C   LIG    1        1.177  -2.170  -0.111  0.00  0.00    +0.053 A 
ATOM      7  C   LIG    1        2.046  -2.929  -0.826  0.00  0.00    -0.006 A 
ATOM      8  C   LIG    1        3.231  -2.391  -1.589  0.00  0.00    +0.134 C 
ATOM      9  C   LIG    1        4.106  -1.648  -0.609  0.00  0.00    +0.222 C 
ATOM     10  O   LIG    1        5.243  -2.030  -0.428  0.00  0.00    -0.275 OA
ATOM     11  C   LIG    1        1.631  -4.307  -0.683  0.00  0.00    +0.005 A 
ATOM     12  C   LIG    1        2.133  -5.506  -1.202  0.00  0.00    +0.025 A 
ATOM     13  C   LIG    1        1.474  -6.659  -0.849  0.00  0.00    +0.019 A 
ATOM     14 BR   LIG    1        2.102  -8.313  -1.518  0.00  0.00    -0.050 Br
ATOM     15  C   LIG    1        0.364  -6.648  -0.019  0.00  0.00    +0.017 A 
ATOM     16  C   LIG    1       -0.153  -5.477   0.508  0.00  0.00    +0.027 A 
ATOM     17  C   LIG    1        0.494  -4.291   0.168  0.00  0.00    +0.047 A 
ATOM     18  N   LIG    1        0.250  -2.990   0.504  0.00  0.00    -0.354 N 
ATOM     19  H   LIG    1       -0.464  -2.687   1.086  0.00  0.00    +0.166 HD
ATOM     20  N   LIG    1        3.666  -0.586   0.061  0.00  0.00    -0.285 N 
ATOM     21  H   LIG    1        4.303  -0.179   0.668  0.00  0.00    +0.155 HD
ATOM     22  C   LIG    1        0.002  -0.004   0.002  0.00  0.00    +0.012 A 
ENDROOT
TORSDOF 0
