REMARK  Name = ZINC01558334
REMARK                            x       y       z     vdW  Elec       q    Type
REMARK                         _______ _______ _______ _____ _____    ______ ____
ROOT
ATOM      1  N   LIG    1       -2.457   4.120  -0.093  0.00  0.00    -0.309 N 
ATOM      2  C   LIG    1       -3.293   3.046  -0.177  0.00  0.00    +0.202 A 
ATOM      3  N   LIG    1       -2.600   1.950  -0.282  0.00  0.00    -0.231 NA
ATOM      4  C   LIG    1       -1.279   2.249  -0.277  0.00  0.00    +0.147 A 
ATOM      5  C   LIG    1       -0.095   1.497  -0.351  0.00  0.00    +0.147 A 
ATOM      6  N   LIG    1        1.068   2.140  -0.308  0.00  0.00    -0.219 NA
ATOM      7  C   LIG    1        1.119   3.454  -0.194  0.00  0.00    +0.225 A 
ATOM      8  N   LIG    1        0.036   4.199  -0.116  0.00  0.00    -0.216 NA
ATOM      9  C   LIG    1       -1.171   3.645  -0.150  0.00  0.00    +0.166 A 
ENDROOT
BRANCH   5  10
ATOM     10  N   LIG    1       -0.138   0.119  -0.472  0.00  0.00    -0.341 N 
ATOM     11  H   LIG    1       -0.992  -0.339  -0.502  0.00  0.00    +0.144 HD
ATOM     12  H   LIG    1        0.313  -0.155  -1.321  0.00  0.00    +0.144 HD
ENDBRANCH   5  10
BRANCH   1  13
ATOM     13  C   LIG    1       -2.859   5.523   0.035  0.00  0.00    +0.118 C 
BRANCH  13  14
ATOM     14  C   LIG    1       -3.706   5.923  -1.174  0.00  0.00    +0.134 C 
ATOM     15  C   LIG    1       -2.867   5.804  -2.448  0.00  0.00    +0.040 C 
BRANCH  14  16
ATOM     16  O   LIG    1       -4.148   7.274  -1.019  0.00  0.00    -0.390 OA
ATOM     17  H   LIG    1       -3.430   7.917  -0.949  0.00  0.00    +0.210 HD
ENDBRANCH  14  16
ENDBRANCH  13  14
BRANCH  13  18
ATOM     18  C   LIG    1       -3.677   5.704   1.315  0.00  0.00    +0.028 C 
BRANCH  18  19
ATOM     19  C   LIG    1       -2.790   5.431   2.531  0.00  0.00    +0.002 C 
BRANCH  19  20
ATOM     20  C   LIG    1       -3.572   5.734   3.811  0.00  0.00    +0.000 C 
BRANCH  20  21
ATOM     21  C   LIG    1       -2.685   5.460   5.027  0.00  0.00    -0.000 C 
BRANCH  21  23
ATOM     22  C   LIG    1       -2.579   5.490   7.523  0.00  0.00    +0.004 C 
ATOM     23  C   LIG    1       -3.466   5.763   6.307  0.00  0.00    -0.003 C 
ENDBRANCH  21  23
ENDBRANCH  20  21
ENDBRANCH  19  20
ENDBRANCH  18  19
ENDBRANCH  13  18
ENDBRANCH   1  13
TORSDOF 9
