REMARK  Name = ZINC01628222
REMARK                            x       y       z     vdW  Elec       q    Type
REMARK                         _______ _______ _______ _____ _____    ______ ____
ROOT
ATOM      1  C   LIG    1        3.999   2.566  -0.021  0.00  0.00    +0.023 A 
ATOM      2  C   LIG    1        3.768   1.203  -0.026  0.00  0.00    +0.047 A 
ATOM      3  C   LIG    1        2.468   0.721  -0.012  0.00  0.00    +0.125 A 
ATOM      4  C   LIG    1        1.401   1.607  -0.003  0.00  0.00    -0.001 A 
ATOM      5  C   LIG    1        1.635   2.969   0.002  0.00  0.00    +0.027 A 
ATOM      6  C   LIG    1        2.934   3.448  -0.007  0.00  0.00    +0.041 A 
ATOM      7 CL   LIG    1        3.226   5.159  -0.001  0.00  0.00    -0.084 Cl
ENDROOT
BRANCH   4   8
ATOM      8  C   LIG    1       -0.013   1.086   0.008  0.00  0.00    +0.023 C 
ATOM      9  C   LIG    1       -0.729   1.579   1.267  0.00  0.00    +0.008 C 
ATOM     10  C   LIG    1       -2.164   1.050   1.278  0.00  0.00    +0.001 C 
ATOM     11  C   LIG    1       -2.904   1.556   0.038  0.00  0.00    +0.000 C 
ATOM     12  C   LIG    1       -2.188   1.063  -1.221  0.00  0.00    +0.001 C 
ATOM     13  C   LIG    1       -0.753   1.593  -1.232  0.00  0.00    +0.008 C 
ENDBRANCH   4   8
BRANCH   3  14
ATOM     14  O   LIG    1        2.239  -0.619  -0.011  0.00  0.00    -0.481 OA
BRANCH  14  15
ATOM     15  C   LIG    1        3.385  -1.473  -0.021  0.00  0.00    +0.349 C 
BRANCH  15  16
ATOM     16  C   LIG    1        2.939  -2.912  -0.019  0.00  0.00    +0.343 C 
ATOM     17  O   LIG    1        1.761  -3.180  -0.010  0.00  0.00    -0.247 OA
BRANCH  16  18
ATOM     18  O   LIG    1        3.851  -3.897  -0.027  0.00  0.00    -0.478 OA
ATOM     19  H   LIG    1        4.765  -3.690  -0.034  0.00  0.00    +0.295 HD
ENDBRANCH  16  18
ENDBRANCH  15  16
ENDBRANCH  14  15
ENDBRANCH   3  14
TORSDOF 5
