REMARK  Name = ZINC01529186
REMARK                            x       y       z     vdW  Elec       q    Type
REMARK                         _______ _______ _______ _____ _____    ______ ____
ROOT
ATOM      1  C   LIG    1       -4.648   3.910   1.882  0.00  0.00    +0.006 C 
ENDROOT
BRANCH   1   2
ATOM      2  C   LIG    1       -4.358   2.507   2.420  0.00  0.00    +0.039 C 
BRANCH   2   8
ATOM      3  C   LIG    1        1.468   1.567   2.392  0.00  0.00    +0.048 C 
ATOM      4  C   LIG    1       -0.021   1.798   2.370  0.00  0.00    +0.003 C 
ATOM      5  C   LIG    1       -0.718   1.572   1.248  0.00  0.00    +0.003 C 
ATOM      6  C   LIG    1       -0.013   1.086   0.008  0.00  0.00    +0.048 C 
ATOM      7  C   LIG    1       -2.177   1.804   1.225  0.00  0.00    +0.186 C 
ATOM      8  C   LIG    1       -2.869   2.276   2.442  0.00  0.00    +0.006 C 
ATOM      9  C   LIG    1       -2.172   2.502   3.564  0.00  0.00    +0.003 C 
ATOM     10  C   LIG    1       -2.877   2.987   4.804  0.00  0.00    +0.048 C 
ATOM     11  O   LIG    1       -2.807   1.603   0.207  0.00  0.00    -0.287 OA
ATOM     12  C   LIG    1       -0.713   2.275   3.585  0.00  0.00    +0.185 C 
ATOM     13  O   LIG    1       -0.081   2.479   4.602  0.00  0.00    -0.287 OA
ENDBRANCH   2   8
ENDBRANCH   1   2
BRANCH   1  14
ATOM     14  C   LIG    1       -6.159   4.145   1.860  0.00  0.00    +0.013 C 
BRANCH  14  15
ATOM     15  C   LIG    1       -6.449   5.548   1.323  0.00  0.00    +0.089 C 
BRANCH  15  16
ATOM     16  C   LIG    1       -7.904   5.774   1.301  0.00  0.00    -0.102 C 
ATOM     17  C   LIG    1       -9.064   5.955   1.284  0.00  0.00    -0.102 C 
BRANCH  17  18
ATOM     18  C   LIG    1      -10.518   6.181   1.262  0.00  0.00    +0.090 C 
BRANCH  18  19
ATOM     19  C   LIG    1      -11.075   6.053   2.682  0.00  0.00    +0.025 C 
BRANCH  19  20
ATOM     20  C   LIG    1      -12.587   6.288   2.659  0.00  0.00    +0.090 C 
BRANCH  20  21
ATOM     21  C   LIG    1      -13.123   6.165   4.025  0.00  0.00    -0.100 C 
ATOM     22  C   LIG    1      -13.550   6.067   5.114  0.00  0.00    -0.074 C 
BRANCH  22  23
ATOM     23  C   LIG    1      -14.086   5.944   6.479  0.00  0.00    +0.244 C 
BRANCH  23  24
ATOM     24  O   LIG    1      -15.498   6.164   6.458  0.00  0.00    -0.383 OA
ATOM     25  H   LIG    1      -15.919   6.098   7.326  0.00  0.00    +0.211 HD
ENDBRANCH  23  24
ENDBRANCH  22  23
ENDBRANCH  20  21
ENDBRANCH  19  20
ENDBRANCH  18  19
ENDBRANCH  17  18
ENDBRANCH  15  16
ENDBRANCH  14  15
ENDBRANCH   1  14
TORSDOF 11
