REMARK  Name = ZINC01573528
REMARK                            x       y       z     vdW  Elec       q    Type
REMARK                         _______ _______ _______ _____ _____    ______ ____
ROOT
ATOM      1  C   LIG    1       -4.880   5.462  -0.123  0.00  0.00    +0.263 C 
ATOM      2  N   LIG    1       -3.709   6.123  -0.029  0.00  0.00    -0.203 N 
ATOM      3  H   LIG    1       -3.704   7.090   0.049  0.00  0.00    +0.178 HD
ATOM      4  O   LIG    1       -4.888   4.249  -0.221  0.00  0.00    -0.268 OA
ENDROOT
BRANCH   1   7
ATOM      5  C   LIG    1       -8.556   6.228  -0.190  0.00  0.00    +0.162 A 
ATOM      6  C   LIG    1       -7.367   5.524  -0.205  0.00  0.00    +0.062 A 
ATOM      7  C   LIG    1       -6.153   6.208  -0.108  0.00  0.00    +0.042 A 
ATOM      8  C   LIG    1       -6.146   7.601   0.011  0.00  0.00    +0.017 A 
ATOM      9  C   LIG    1       -7.335   8.297   0.020  0.00  0.00    +0.050 A 
ATOM     10  C   LIG    1       -8.542   7.618  -0.078  0.00  0.00    +0.158 A 
BRANCH   5  12
ATOM     11  C   LIG    1       -9.680   4.142  -0.398  0.00  0.00    +0.277 C 
ATOM     12  O   LIG    1       -9.740   5.566  -0.285  0.00  0.00    -0.491 OA
ENDBRANCH   5  12
BRANCH  10  13
ATOM     13  O   LIG    1       -9.711   8.308  -0.063  0.00  0.00    -0.503 OA
ATOM     14  H   LIG    1      -10.080   8.437   0.822  0.00  0.00    +0.292 HD
ENDBRANCH  10  13
ENDBRANCH   1   7
BRANCH   2  15
ATOM     15  N   LIG    1       -2.501   5.414  -0.044  0.00  0.00    -0.187 NA
ATOM     16  C   LIG    1       -1.373   6.051   0.046  0.00  0.00    +0.139 C 
BRANCH  16  17
ATOM     17  C   LIG    1       -0.104   5.307   0.031  0.00  0.00    +0.002 A 
ATOM     18  C   LIG    1        1.113   5.978   0.015  0.00  0.00    +0.010 A 
ATOM     19  C   LIG    1        2.308   5.273  -0.001  0.00  0.00    +0.001 A 
ATOM     20  C   LIG    1        2.339   3.912   0.000  0.00  0.00    +0.008 A 
ATOM     21  C   LIG    1        1.147   3.168   0.016  0.00  0.00    -0.017 A 
ATOM     22  C   LIG    1        1.163   1.762   0.017  0.00  0.00    +0.008 A 
ATOM     23  C   LIG    1       -0.012   1.076   0.033  0.00  0.00    +0.001 A 
ATOM     24  C   LIG    1       -1.234   1.745   0.042  0.00  0.00    +0.001 A 
ATOM     25  C   LIG    1       -1.286   3.107   0.049  0.00  0.00    +0.009 A 
ATOM     26  C   LIG    1       -0.097   3.845   0.032  0.00  0.00    -0.009 A 
ENDBRANCH  16  17
ENDBRANCH   2  15
TORSDOF 5
