REMARK  Name = ZINC01483836
REMARK                            x       y       z     vdW  Elec       q    Type
REMARK                         _______ _______ _______ _____ _____    ______ ____
ROOT
ATOM      1  S   LIG    1        3.953   2.300  -0.106  0.00  0.00    +0.059 S 
ATOM      2  O   LIG    1        3.912   3.596  -0.687  0.00  0.00    -0.153 OA
ATOM      3  O   LIG    1        4.969   1.357  -0.420  0.00  0.00    -0.153 OA
ENDROOT
BRANCH   1   6
ATOM      4  C   LIG    1        0.046   1.674  -0.801  0.00  0.00    +0.048 A 
ATOM      5  C   LIG    1        1.253   2.277  -0.503  0.00  0.00    +0.032 A 
ATOM      6  C   LIG    1        2.415   1.528  -0.486  0.00  0.00    +0.106 A 
ATOM      7  C   LIG    1        2.373   0.175  -0.767  0.00  0.00    +0.032 A 
ATOM      8  C   LIG    1        1.169  -0.432  -1.066  0.00  0.00    +0.048 A 
ATOM      9  C   LIG    1        0.001   0.317  -1.083  0.00  0.00    +0.129 A 
BRANCH   9  10
ATOM     10  O   LIG    1       -1.185  -0.279  -1.375  0.00  0.00    -0.456 OA
BRANCH  10  11
ATOM     11  C   LIG    1       -1.714  -0.075  -2.611  0.00  0.00    +0.129 A 
ATOM     12  C   LIG    1       -0.993   0.625  -3.568  0.00  0.00    +0.048 A 
ATOM     13  C   LIG    1       -1.532   0.830  -4.823  0.00  0.00    +0.023 A 
ATOM     14  C   LIG    1       -2.790   0.340  -5.126  0.00  0.00    +0.041 A 
ATOM     15 CL   LIG    1       -3.465   0.600  -6.704  0.00  0.00    -0.084 Cl
ATOM     16  C   LIG    1       -3.510  -0.357  -4.172  0.00  0.00    +0.023 A 
ATOM     17  C   LIG    1       -2.973  -0.571  -2.918  0.00  0.00    +0.048 A 
ENDBRANCH  10  11
ENDBRANCH   9  10
ENDBRANCH   1   6
BRANCH   1  18
ATOM     18  N   LIG    1        4.000   2.517   1.535  0.00  0.00    -0.175 NA
ATOM     19  H   LIG    1        3.954   3.412   1.907  0.00  0.00    +0.149 HD
BRANCH  18  20
ATOM     20  C   LIG    1        4.110   1.358   2.424  0.00  0.00    +0.122 C 
ATOM     21  C   LIG    1        4.310   1.836   3.866  0.00  0.00    +0.061 C 
ATOM     22  C   LIG    1        3.078   2.631   4.307  0.00  0.00    +0.162 C 
ATOM     23  O   LIG    1        1.914   1.812   4.182  0.00  0.00    -0.380 OA
ATOM     24  C   LIG    1        1.650   1.374   2.847  0.00  0.00    +0.162 C 
ATOM     25  C   LIG    1        2.824   0.529   2.347  0.00  0.00    +0.061 C 
BRANCH  20  26
ATOM     26  C   LIG    1        5.283   0.510   2.005  0.00  0.00    +0.257 C 
ATOM     27  N   LIG    1        6.415   1.095   1.568  0.00  0.00    -0.196 N 
ATOM     28  H   LIG    1        6.502   2.061   1.591  0.00  0.00    +0.182 HD
ATOM     29  O   LIG    1        5.208  -0.699   2.061  0.00  0.00    -0.272 OA
BRANCH  27  30
ATOM     30  O   LIG    1        7.478   0.300   1.074  0.00  0.00    -0.295 OA
ATOM     31  H   LIG    1        8.275   0.802   0.855  0.00  0.00    +0.241 HD
ENDBRANCH  27  30
ENDBRANCH  20  26
ENDBRANCH  18  20
ENDBRANCH   1  18
TORSDOF 7
