REMARK  Name = ZINC01489430
REMARK                            x       y       z     vdW  Elec       q    Type
REMARK                         _______ _______ _______ _____ _____    ______ ____
ROOT
ATOM      1  C   LIG    1        0.647   8.286  -0.048  0.00  0.00    +0.053 A 
ATOM      2  C   LIG    1        1.744   7.436  -0.096  0.00  0.00    +0.028 A 
ATOM      3  C   LIG    1        1.560   6.068  -0.050  0.00  0.00    +0.048 A 
ATOM      4  C   LIG    1        0.279   5.542   0.032  0.00  0.00    +0.130 A 
ATOM      5  C   LIG    1       -0.818   6.390   0.080  0.00  0.00    +0.068 A 
ATOM      6  C   LIG    1       -0.636   7.759   0.040  0.00  0.00    +0.066 A 
ATOM      7 CL   LIG    1       -2.008   8.820   0.101  0.00  0.00    -0.082 Cl
ENDROOT
BRANCH   1  11
ATOM      8  N   LIG    1        1.961  11.536  -0.933  0.00  0.00    -0.251 N 
ATOM      9  H   LIG    1        1.332  12.121  -0.482  0.00  0.00    +0.158 HD
ATOM     10  C   LIG    1        1.834  10.199  -0.824  0.00  0.00    +0.309 C 
ATOM     11  N   LIG    1        0.833   9.675  -0.089  0.00  0.00    -0.268 N 
ATOM     12  H   LIG    1        0.242  10.258   0.412  0.00  0.00    +0.156 HD
ATOM     13  O   LIG    1        2.622   9.465  -1.389  0.00  0.00    -0.252 OA
BRANCH   8  17
ATOM     14  C   LIG    1        5.958  12.138  -3.851  0.00  0.00    +0.089 C 
ATOM     15  C   LIG    1        4.749  12.334  -2.973  0.00  0.00    +0.136 A 
ATOM     16  C   LIG    1        3.993  11.364  -2.410  0.00  0.00    +0.091 A 
ATOM     17  C   LIG    1        2.997  12.079  -1.694  0.00  0.00    +0.169 A 
ATOM     18  N   LIG    1        3.241  13.347  -1.895  0.00  0.00    -0.063 NA
ATOM     19  O   LIG    1        4.213  13.504  -2.597  0.00  0.00    -0.358 OA
ENDBRANCH   8  17
ENDBRANCH   1  11
BRANCH   4  20
ATOM     20  O   LIG    1        0.099   4.195   0.072  0.00  0.00    -0.455 OA
BRANCH  20  21
ATOM     21  C   LIG    1       -0.350   3.579  -1.049  0.00  0.00    +0.139 A 
ATOM     22  C   LIG    1       -0.712   4.310  -2.168  0.00  0.00    +0.066 A 
ATOM     23  C   LIG    1       -1.168   3.652  -3.302  0.00  0.00    +0.115 A 
ATOM     24  N   LIG    1       -1.270   2.344  -3.350  0.00  0.00    -0.255 NA
ATOM     25  C   LIG    1       -0.938   1.576  -2.305  0.00  0.00    +0.078 A 
ATOM     26  C   LIG    1       -1.053   0.177  -2.373  0.00  0.00    +0.077 A 
ATOM     27  C   LIG    1       -0.708  -0.585  -1.295  0.00  0.00    +0.164 A 
ATOM     28  C   LIG    1       -0.238   0.009  -0.114  0.00  0.00    +0.162 A 
ATOM     29  C   LIG    1       -0.116   1.365  -0.018  0.00  0.00    +0.063 A 
ATOM     30  C   LIG    1       -0.464   2.173  -1.112  0.00  0.00    +0.046 A 
BRANCH  27  31
ATOM     31  O   LIG    1       -0.821  -1.937  -1.366  0.00  0.00    -0.491 OA
ATOM     32  C   LIG    1       -1.304  -2.484  -2.594  0.00  0.00    +0.277 C 
ENDBRANCH  27  31
BRANCH  28  33
ATOM     33  O   LIG    1        0.099  -0.774   0.945  0.00  0.00    -0.491 OA
ATOM     34  C   LIG    1        0.571  -0.109   2.119  0.00  0.00    +0.277 C 
ENDBRANCH  28  33
ENDBRANCH  20  21
ENDBRANCH   4  20
TORSDOF 6
