REMARK  Name = ZINC01530939
REMARK                            x       y       z     vdW  Elec       q    Type
REMARK                         _______ _______ _______ _____ _____    ______ ____
ROOT
ATOM      1  C   LIG    1       -2.905  -4.065   0.627  0.00  0.00    +0.216 A 
ATOM      2  C   LIG    1       -4.208  -4.569   0.527  0.00  0.00    +0.081 A 
ATOM      3  C   LIG    1       -4.409  -5.942   0.523  0.00  0.00    +0.051 A 
ATOM      4  C   LIG    1       -3.225  -6.794   0.625  0.00  0.00    +0.013 A 
ATOM      5  C   LIG    1       -3.325  -8.190   0.629  0.00  0.00    +0.011 A 
ATOM      6  C   LIG    1       -2.195  -8.946   0.726  0.00  0.00    +0.001 A 
ATOM      7  C   LIG    1       -0.941  -8.345   0.822  0.00  0.00    +0.002 A 
ATOM      8  C   LIG    1       -0.809  -6.991   0.821  0.00  0.00    +0.028 A 
ATOM      9  C   LIG    1       -1.953  -6.178   0.722  0.00  0.00    +0.076 A 
ATOM     10  N   LIG    1       -1.854  -4.846   0.713  0.00  0.00    -0.213 NA
ENDROOT
BRANCH   3  11
ATOM     11  C   LIG    1       -5.767  -6.520   0.419  0.00  0.00    +0.245 C 
ATOM     12  N   LIG    1       -6.846  -5.713   0.439  0.00  0.00    -0.313 N 
ATOM     13  H   LIG    1       -6.733  -4.753   0.521  0.00  0.00    +0.149 HD
ATOM     14  O   LIG    1       -5.909  -7.723   0.316  0.00  0.00    -0.270 OA
BRANCH  12  15
ATOM     15  C   LIG    1       -8.191  -6.286   0.337  0.00  0.00    +0.086 C 
BRANCH  15  16
ATOM     16  C   LIG    1       -9.229  -5.162   0.384  0.00  0.00    -0.060 C 
BRANCH  16  17
ATOM     17  N   LIG    1      -10.579  -5.742   0.370  0.00  0.00    +0.380 N 
ATOM     18  H   LIG    1      -10.673  -6.355  -0.425  0.00  0.00    -0.082 HD
BRANCH  17  19
ATOM     19  C   LIG    1      -11.573  -4.664   0.279  0.00  0.00    -0.082 C 
ATOM     20  C   LIG    1      -11.451  -3.972  -1.080  0.00  0.00    -0.017 C 
ENDBRANCH  17  19
BRANCH  17  21
ATOM     21  C   LIG    1      -10.796  -6.505   1.607  0.00  0.00    -0.082 C 
ATOM     22  C   LIG    1      -12.152  -7.210   1.539  0.00  0.00    -0.017 C 
ENDBRANCH  17  21
ENDBRANCH  16  17
ENDBRANCH  15  16
ENDBRANCH  12  15
ENDBRANCH   3  11
BRANCH   1  23
ATOM     23  O   LIG    1       -2.723  -2.722   0.630  0.00  0.00    -0.476 OA
BRANCH  23  24
ATOM     24  C   LIG    1       -1.378  -2.250   0.728  0.00  0.00    +0.231 C 
BRANCH  24  25
ATOM     25  C   LIG    1       -1.372  -0.720   0.716  0.00  0.00    +0.041 C 
BRANCH  25  27
ATOM     26  C   LIG    1        0.074   1.316   0.808  0.00  0.00    +0.004 C 
ATOM     27  C   LIG    1        0.069  -0.214   0.821  0.00  0.00    -0.000 C 
ENDBRANCH  25  27
ENDBRANCH  24  25
ENDBRANCH  23  24
ENDBRANCH   1  23
TORSDOF 10
