REMARK  Name = ZINC01532986
REMARK                            x       y       z     vdW  Elec       q    Type
REMARK                         _______ _______ _______ _____ _____    ______ ____
ROOT
ATOM      1  C   LIG    1        3.695  -0.684  -0.038  0.00  0.00    +0.250 C 
ATOM      2  N   LIG    1        4.851   0.008  -0.046  0.00  0.00    -0.261 N 
ATOM      3  H   LIG    1        4.836   0.978  -0.040  0.00  0.00    +0.157 HD
ATOM      4  O   LIG    1        3.715  -1.900  -0.046  0.00  0.00    -0.270 OA
ENDROOT
BRANCH   1   8
ATOM      5  C   LIG    1       -0.017   1.379   0.010  0.00  0.00    +0.000 A 
ATOM      6  C   LIG    1        1.168   2.094   0.002  0.00  0.00    +0.001 A 
ATOM      7  C   LIG    1        2.377   1.430  -0.013  0.00  0.00    +0.013 A 
ATOM      8  C   LIG    1        2.404   0.034  -0.021  0.00  0.00    +0.037 A 
ATOM      9  C   LIG    1        1.204  -0.681  -0.013  0.00  0.00    +0.013 A 
ATOM     10  C   LIG    1        0.002  -0.004   0.002  0.00  0.00    +0.001 A 
ENDBRANCH   1   8
BRANCH   2  11
ATOM     11  C   LIG    1        6.065  -0.666  -0.062  0.00  0.00    +0.165 A 
ATOM     12  N   LIG    1        7.288  -0.172  -0.076  0.00  0.00    -0.228 NA
ATOM     13  C   LIG    1        8.344  -0.962  -0.086  0.00  0.00    +0.073 A 
ATOM     14  C   LIG    1        8.147  -2.303  -0.092  0.00  0.00    +0.073 A 
ATOM     15  S   LIG    1        6.362  -2.377  -0.075  0.00  0.00    -0.060 S 
BRANCH  13  16
ATOM     16  C   LIG    1        9.737  -0.387  -0.095  0.00  0.00    +0.208 C 
BRANCH  16  17
ATOM     17  N   LIG    1       10.129  -0.081  -1.473  0.00  0.00    -0.228 NA
ATOM     18  C   LIG    1       10.421   1.092  -1.794  0.00  0.00    +0.036 C 
ATOM     19  S   LIG    1       10.782   2.549  -2.192  0.00  0.00    +0.020 S 
ENDBRANCH  16  17
ENDBRANCH  13  16
ENDBRANCH   2  11
TORSDOF 4
