REMARK  Name = ZINC01531764
REMARK                            x       y       z     vdW  Elec       q    Type
REMARK                         _______ _______ _______ _____ _____    ______ ____
ROOT
ATOM      1  C   LIG    1        3.686 -10.097  -6.334  0.00  0.00    +0.048 C 
ATOM      2  C   LIG    1        2.735 -10.781  -7.004  0.00  0.00    +0.171 C 
ATOM      3  C   LIG    1        2.755 -12.268  -7.012  0.00  0.00    +0.224 C 
ATOM      4  C   LIG    1        3.809 -12.990  -6.293  0.00  0.00    +0.104 C 
ATOM      5  C   LIG    1        4.760 -12.306  -5.623  0.00  0.00    +0.168 C 
ATOM      6  O   LIG    1        1.899 -12.883  -7.615  0.00  0.00    -0.284 OA
ATOM      7  C   LIG    1        4.743 -10.820  -5.620  0.00  0.00    +0.227 C 
ATOM      8  O   LIG    1        5.602 -10.204  -5.021  0.00  0.00    -0.284 OA
ENDROOT
BRANCH   2   9
ATOM      9  O   LIG    1        1.762 -10.115  -7.667  0.00  0.00    -0.503 OA
ATOM     10  H   LIG    1        1.127 -10.689  -8.116  0.00  0.00    +0.292 HD
ENDBRANCH   2   9
BRANCH   5  11
ATOM     11  O   LIG    1        5.731 -12.973  -4.959  0.00  0.00    -0.503 OA
ATOM     12  H   LIG    1        5.742 -13.910  -4.961  0.00  0.00    +0.292 HD
ENDBRANCH   5  11
BRANCH   1  13
ATOM     13  C   LIG    1        3.666  -8.591  -6.326  0.00  0.00    +0.043 C 
BRANCH  13  14
ATOM     14  C   LIG    1        2.950  -8.097  -5.067  0.00  0.00    +0.005 C 
BRANCH  14  15
ATOM     15  C   LIG    1        2.929  -6.567  -5.058  0.00  0.00    +0.000 C 
BRANCH  15  16
ATOM     16  C   LIG    1        2.213  -6.074  -3.800  0.00  0.00    +0.000 C 
BRANCH  16  17
ATOM     17  C   LIG    1        2.192  -4.544  -3.791  0.00  0.00    +0.000 C 
BRANCH  17  18
ATOM     18  C   LIG    1        1.476  -4.051  -2.532  0.00  0.00    +0.000 C 
BRANCH  18  19
ATOM     19  C   LIG    1        1.455  -2.521  -2.524  0.00  0.00    -0.000 C 
BRANCH  19  20
ATOM     20  C   LIG    1        0.739  -2.027  -1.265  0.00  0.00    -0.000 C 
BRANCH  20  21
ATOM     21  C   LIG    1        0.718  -0.497  -1.257  0.00  0.00    -0.000 C 
BRANCH  21  23
ATOM     22  C   LIG    1       -0.019   1.526   0.010  0.00  0.00    +0.004 C 
ATOM     23  C   LIG    1        0.002  -0.004   0.002  0.00  0.00    -0.003 C 
ENDBRANCH  21  23
ENDBRANCH  20  21
ENDBRANCH  19  20
ENDBRANCH  18  19
ENDBRANCH  17  18
ENDBRANCH  16  17
ENDBRANCH  15  16
ENDBRANCH  14  15
ENDBRANCH  13  14
ENDBRANCH   1  13
TORSDOF 12
