REMARK  Name = ZINC01530638
REMARK                            x       y       z     vdW  Elec       q    Type
REMARK                         _______ _______ _______ _____ _____    ______ ____
ROOT
ATOM      1  C   LIG    1        1.429  -2.508  -2.485  0.00  0.00    +0.202 C 
ENDROOT
BRANCH   1   2
ATOM      2  C   LIG    1        1.352  -4.003  -2.662  0.00  0.00    -0.007 A 
ATOM      3  C   LIG    1        2.224  -4.826  -1.974  0.00  0.00    +0.007 A 
ATOM      4  C   LIG    1        2.154  -6.197  -2.136  0.00  0.00    +0.000 A 
ATOM      5  C   LIG    1        1.212  -6.745  -2.986  0.00  0.00    +0.000 A 
ATOM      6  C   LIG    1        0.339  -5.921  -3.674  0.00  0.00    +0.000 A 
ATOM      7  C   LIG    1        0.407  -4.551  -3.508  0.00  0.00    +0.007 A 
ENDBRANCH   1   2
BRANCH   1   8
ATOM      8  C   LIG    1        0.726  -2.111  -1.185  0.00  0.00    +0.030 C 
BRANCH   8   9
ATOM      9  C   LIG    1        0.694  -0.586  -1.067  0.00  0.00    -0.079 C 
BRANCH   9  11
ATOM     10  C   LIG    1       -0.012   1.258   0.294  0.00  0.00    -0.101 C 
ATOM     11  N   LIG    1        0.019  -0.206   0.181  0.00  0.00    +0.377 N 
ATOM     12  H   LIG    1       -0.925  -0.562   0.175  0.00  0.00    -0.086 HD
ATOM     13  H   LIG    1        0.520  -0.594   0.966  0.00  0.00    -0.086 HD
ENDBRANCH   9  11
ENDBRANCH   8   9
ENDBRANCH   1   8
BRANCH   1  14
ATOM     14  O   LIG    1        2.799  -2.105  -2.428  0.00  0.00    -0.484 OA
BRANCH  14  15
ATOM     15  C   LIG    1        3.129  -0.950  -3.063  0.00  0.00    +0.121 A 
ATOM     16  C   LIG    1        4.458  -0.561  -3.153  0.00  0.00    +0.046 A 
ATOM     17  C   LIG    1        4.791   0.613  -3.800  0.00  0.00    +0.016 A 
ATOM     18  C   LIG    1        3.801   1.401  -4.358  0.00  0.00    +0.055 A 
ATOM     19  C   LIG    1        2.476   1.016  -4.269  0.00  0.00    +0.016 A 
ATOM     20  C   LIG    1        2.138  -0.160  -3.629  0.00  0.00    +0.046 A 
BRANCH  18  21
ATOM     21  C   LIG    1        4.168   2.682  -5.062  0.00  0.00    +0.417 C 
ATOM     22  F   LIG    1        5.327   3.215  -4.488  0.00  0.00    -0.166 F 
ATOM     23  F   LIG    1        3.120   3.599  -4.936  0.00  0.00    -0.166 F 
ATOM     24  F   LIG    1        4.397   2.419  -6.417  0.00  0.00    -0.166 F 
ENDBRANCH  18  21
ENDBRANCH  14  15
ENDBRANCH   1  14
TORSDOF 7
