REMARK  Name = ZINC01483900
REMARK                            x       y       z     vdW  Elec       q    Type
REMARK                         _______ _______ _______ _____ _____    ______ ____
ROOT
ATOM      1  C   LIG    1       -2.080   0.873   1.303  0.00  0.00    +0.094 C 
ATOM      2  C   LIG    1       -0.630   1.367   1.300  0.00  0.00    +0.007 C 
ATOM      3  C   LIG    1        0.046   0.940  -0.005  0.00  0.00    -0.077 C 
ATOM      4  N   LIG    1       -0.687   1.537  -1.142  0.00  0.00    +0.380 N 
ATOM      5  H   LIG    1       -0.723   2.556  -1.017  0.00  0.00    -0.082 HD
ATOM      6  C   LIG    1       -2.067   1.010  -1.190  0.00  0.00    -0.071 C 
ATOM      7  C   LIG    1       -2.806   1.439   0.080  0.00  0.00    +0.021 C 
ENDROOT
BRANCH   1  15
ATOM      8  N   LIG    1       -3.575   2.653   4.075  0.00  0.00    -0.292 N 
ATOM      9  C   LIG    1       -3.846   1.347   4.476  0.00  0.00    +0.070 A 
ATOM     10  C   LIG    1       -4.486   0.804   5.580  0.00  0.00    +0.028 A 
ATOM     11  C   LIG    1       -4.603  -0.567   5.702  0.00  0.00    +0.002 A 
ATOM     12  C   LIG    1       -4.084  -1.401   4.726  0.00  0.00    +0.002 A 
ATOM     13  C   LIG    1       -3.445  -0.869   3.624  0.00  0.00    +0.028 A 
ATOM     14  C   LIG    1       -3.328   0.506   3.490  0.00  0.00    +0.070 A 
ATOM     15  N   LIG    1       -2.750   1.327   2.524  0.00  0.00    -0.289 N 
ATOM     16  C   LIG    1       -2.917   2.608   2.902  0.00  0.00    +0.330 A 
ATOM     17  O   LIG    1       -2.531   3.579   2.277  0.00  0.00    -0.246 OA
BRANCH   8  19
ATOM     18  C   LIG    1       -5.327   4.336   4.355  0.00  0.00    +0.027 C 
ATOM     19  C   LIG    1       -3.942   3.868   4.806  0.00  0.00    +0.123 C 
ENDBRANCH   8  19
ENDBRANCH   1  15
BRANCH   4  20
ATOM     20  C   LIG    1        0.013   1.235  -2.408  0.00  0.00    -0.075 C 
BRANCH  20  21
ATOM     21  C   LIG    1        1.349   1.980  -2.423  0.00  0.00    -0.028 C 
ATOM     22  C   LIG    1        1.091   3.488  -2.381  0.00  0.00    +0.002 C 
ATOM     23  C   LIG    1        2.382   4.215  -1.999  0.00  0.00    +0.000 C 
ATOM     24  C   LIG    1        3.060   3.479  -0.842  0.00  0.00    +0.000 C 
ATOM     25  C   LIG    1        4.377   2.869  -1.327  0.00  0.00    +0.000 C 
ATOM     26  C   LIG    1        4.083   1.620  -2.161  0.00  0.00    +0.000 C 
ATOM     27  C   LIG    1        3.580   2.038  -3.544  0.00  0.00    +0.000 C 
ATOM     28  C   LIG    1        2.114   1.629  -3.700  0.00  0.00    +0.002 C 
ENDBRANCH  20  21
ENDBRANCH   4  20
BRANCH   7  29
ATOM     29  C   LIG    1       -4.239   0.902   0.043  0.00  0.00    +0.159 C 
BRANCH  29  30
ATOM     30  O   LIG    1       -4.950   1.517  -1.033  0.00  0.00    -0.395 OA
ATOM     31  H   LIG    1       -5.867   1.223  -1.117  0.00  0.00    +0.209 HD
ENDBRANCH  29  30
ENDBRANCH   7  29
TORSDOF 6
