REMARK  Name = ZINC01529277
REMARK                            x       y       z     vdW  Elec       q    Type
REMARK                         _______ _______ _______ _____ _____    ______ ____
ROOT
ATOM      1  C   LIG    1       -2.170   1.064   1.264  0.00  0.00    -0.004 C 
ATOM      2  C   LIG    1       -0.729   1.579   1.267  0.00  0.00    -0.019 C 
ATOM      3  C   LIG    1       -0.013   1.086   0.008  0.00  0.00    -0.083 C 
ATOM      4  N   LIG    1       -0.718   1.579  -1.190  0.00  0.00    +0.379 N 
ATOM      5  H   LIG    1       -0.749   2.605  -1.166  0.00  0.00    -0.086 HD
ATOM      6  H   LIG    1       -0.213   1.273  -2.030  0.00  0.00    -0.086 HD
ATOM      7  C   LIG    1       -2.095   1.052  -1.231  0.00  0.00    -0.083 C 
ATOM      8  C   LIG    1       -2.873   1.544  -0.009  0.00  0.00    -0.019 C 
ENDROOT
TORSDOF 0
