REMARK  Name = ZINC01542113
REMARK                            x       y       z     vdW  Elec       q    Type
REMARK                         _______ _______ _______ _____ _____    ______ ____
ROOT
ATOM      1  N   LIG    1       -0.751   1.564  -1.180  0.00  0.00    +0.382 N 
ATOM      2  H   LIG    1       -1.715   1.213  -1.138  0.00  0.00    -0.082 HD
ATOM      3  C   LIG    1       -0.777   3.042  -1.196  0.00  0.00    -0.060 C 
ATOM      4  C   LIG    1       -1.495   3.536   0.062  0.00  0.00    +0.086 C 
ATOM      5  N   LIG    1       -0.783   3.048   1.252  0.00  0.00    -0.333 N 
ATOM      6  C   LIG    1       -0.730   1.580   1.267  0.00  0.00    +0.086 C 
ATOM      7  C   LIG    1       -0.013   1.086   0.008  0.00  0.00    -0.060 C 
ENDROOT
BRANCH   5   8
ATOM      8  C   LIG    1       -1.370   3.540   2.424  0.00  0.00    +0.030 A 
ATOM      9  C   LIG    1       -2.482   4.377   2.346  0.00  0.00    +0.027 A 
ATOM     10  C   LIG    1       -3.071   4.870   3.489  0.00  0.00    +0.049 A 
ATOM     11  C   LIG    1       -2.559   4.536   4.737  0.00  0.00    +0.136 A 
ATOM     12  C   LIG    1       -1.436   3.692   4.819  0.00  0.00    +0.023 A 
ATOM     13  C   LIG    1       -1.157   3.541   6.247  0.00  0.00    +0.063 A 
ATOM     14  C   LIG    1       -2.096   4.277   6.895  0.00  0.00    +0.190 A 
ATOM     15  O   LIG    1       -2.917   4.859   5.996  0.00  0.00    -0.450 OA
ATOM     16  C   LIG    1       -0.848   3.191   3.655  0.00  0.00    +0.034 A 
BRANCH  14  17
ATOM     17  C   LIG    1       -2.202   4.418   8.354  0.00  0.00    +0.277 C 
ATOM     18  N   LIG    1       -3.178   5.178   8.888  0.00  0.00    -0.323 N 
ATOM     19  H   LIG    1       -3.248   5.271   9.851  0.00  0.00    +0.145 HD
ATOM     20  H   LIG    1       -3.811   5.632   8.310  0.00  0.00    +0.145 HD
ATOM     21  O   LIG    1       -1.408   3.850   9.079  0.00  0.00    -0.267 OA
ENDBRANCH  14  17
ENDBRANCH   5   8
BRANCH   1  22
ATOM     22  C   LIG    1       -0.109   1.057  -2.412  0.00  0.00    -0.079 C 
BRANCH  22  23
ATOM     23  C   LIG    1       -0.710   1.773  -3.623  0.00  0.00    -0.018 C 
BRANCH  23  24
ATOM     24  C   LIG    1       -0.068   1.236  -4.903  0.00  0.00    +0.003 C 
BRANCH  24  25
ATOM     25  C   LIG    1       -0.669   1.952  -6.114  0.00  0.00    +0.037 C 
BRANCH  25  30
ATOM     26  C   LIG    1       -0.691  -1.842  -9.956  0.00  0.00    +0.021 A 
ATOM     27  C   LIG    1        0.291  -0.911 -10.128  0.00  0.00    +0.027 A 
ATOM     28  C   LIG    1        0.431   0.137  -9.220  0.00  0.00    +0.047 A 
ATOM     29  C   LIG    1       -0.445   0.227  -8.120  0.00  0.00    +0.004 A 
ATOM     30  C   LIG    1       -0.038   1.423  -7.376  0.00  0.00    -0.022 A 
ATOM     31  C   LIG    1        1.008   1.952  -8.029  0.00  0.00    +0.087 A 
ATOM     32  C   LIG    1       -1.450  -0.722  -7.950  0.00  0.00    +0.029 A 
ATOM     33  N   LIG    1        1.301   1.197  -9.132  0.00  0.00    -0.360 N 
ATOM     34  H   LIG    1        2.017   1.383  -9.760  0.00  0.00    +0.165 HD
ATOM     35  C   LIG    1       -1.571  -1.760  -8.869  0.00  0.00    +0.052 A 
BRANCH  35  36
ATOM     36  C   LIG    1       -2.597  -2.746  -8.703  0.00  0.00    +0.099 C 
ATOM     37  N   LIG    1       -3.411  -3.528  -8.572  0.00  0.00    -0.191 NA
ENDBRANCH  35  36
ENDBRANCH  25  30
ENDBRANCH  24  25
ENDBRANCH  23  24
ENDBRANCH  22  23
ENDBRANCH   1  22
TORSDOF 8
