REMARK  Name = ZINC01492386
REMARK                            x       y       z     vdW  Elec       q    Type
REMARK                         _______ _______ _______ _____ _____    ______ ____
ROOT
ATOM      1  N   LIG    1        4.152  -0.952   1.338  0.00  0.00    -0.259 N 
ATOM      2  C   LIG    1        4.932  -0.106   2.084  0.00  0.00    +0.070 A 
ATOM      3  C   LIG    1        5.515   1.135   1.835  0.00  0.00    +0.028 A 
ATOM      4  C   LIG    1        6.258   1.743   2.806  0.00  0.00    +0.002 A 
ATOM      5  C   LIG    1        6.443   1.139   4.043  0.00  0.00    +0.001 A 
ATOM      6  C   LIG    1        5.884  -0.077   4.313  0.00  0.00    +0.012 A 
ATOM      7  C   LIG    1        5.119  -0.718   3.337  0.00  0.00    +0.031 A 
ATOM      8  C   LIG    1        4.393  -1.993   3.285  0.00  0.00    +0.135 A 
ATOM      9  N   LIG    1        3.838  -2.083   2.098  0.00  0.00    -0.167 NA
ENDROOT
BRANCH   8  10
ATOM     10  C   LIG    1        4.298  -2.988   4.371  0.00  0.00    +0.156 A 
ATOM     11  C   LIG    1        3.218  -3.768   4.647  0.00  0.00    +0.052 A 
ATOM     12  C   LIG    1        3.566  -4.564   5.757  0.00  0.00    +0.048 A 
ATOM     13  C   LIG    1        4.826  -4.233   6.101  0.00  0.00    +0.131 A 
ATOM     14  O   LIG    1        5.267  -3.285   5.258  0.00  0.00    -0.456 OA
BRANCH  13  15
ATOM     15  C   LIG    1        5.612  -4.833   7.238  0.00  0.00    +0.230 C 
BRANCH  15  16
ATOM     16  O   LIG    1        6.336  -5.972   6.769  0.00  0.00    -0.387 OA
ATOM     17  H   LIG    1        6.866  -6.409   7.449  0.00  0.00    +0.210 HD
ENDBRANCH  15  16
ENDBRANCH  13  15
ENDBRANCH   8  10
BRANCH   1  18
ATOM     18  C   LIG    1        3.711  -0.707  -0.038  0.00  0.00    +0.179 C 
BRANCH  18  22
ATOM     19  C   LIG    1       -0.017   1.378   0.010  0.00  0.00    +0.000 A 
ATOM     20  C   LIG    1        1.171   2.086   0.002  0.00  0.00    +0.000 A 
ATOM     21  C   LIG    1        2.377   1.411  -0.013  0.00  0.00    +0.005 A 
ATOM     22  C   LIG    1        2.396   0.029  -0.020  0.00  0.00    -0.026 A 
ATOM     23  C   LIG    1        1.208  -0.679  -0.012  0.00  0.00    +0.005 A 
ATOM     24  C   LIG    1        0.002  -0.004   0.002  0.00  0.00    +0.000 A 
ENDBRANCH  18  22
ENDBRANCH   1  18
TORSDOF 5
