REMARK  Name = ZINC01482988
REMARK                            x       y       z     vdW  Elec       q    Type
REMARK                         _______ _______ _______ _____ _____    ______ ____
ROOT
ATOM      1  C   LIG    1        0.054  -0.352  -1.233  0.00  0.00    +0.280 C 
ATOM      2  C   LIG    1        1.426  -0.390  -1.849  0.00  0.00    +0.263 C 
ATOM      3  N   LIG    1        2.307  -1.339  -1.539  0.00  0.00    -0.260 N 
ATOM      4  C   LIG    1        2.064  -2.402  -0.683  0.00  0.00    +0.046 A 
ATOM      5  C   LIG    1        2.575  -3.649  -1.050  0.00  0.00    +0.024 A 
ATOM      6  C   LIG    1        2.377  -4.752  -0.250  0.00  0.00    +0.002 A 
ATOM      7  C   LIG    1        1.665  -4.634   0.932  0.00  0.00    +0.001 A 
ATOM      8  C   LIG    1        1.153  -3.414   1.309  0.00  0.00    +0.012 A 
ATOM      9  C   LIG    1        1.347  -2.281   0.504  0.00  0.00    +0.022 A 
ATOM     10  C   LIG    1        0.768  -1.010   0.967  0.00  0.00    +0.077 C 
ATOM     11  O   LIG    1        1.737   0.466  -2.651  0.00  0.00    -0.271 OA
ATOM     12  N   LIG    1        0.189  -0.147   0.209  0.00  0.00    -0.251 NA
ENDROOT
BRANCH   1  16
ATOM     13  N   LIG    1       -2.546  -2.788  -2.138  0.00  0.00    -0.269 N 
ATOM     14  H   LIG    1       -2.056  -3.624  -2.087  0.00  0.00    +0.156 HD
ATOM     15  C   LIG    1       -1.915  -1.621  -1.900  0.00  0.00    +0.306 C 
ATOM     16  N   LIG    1       -0.633  -1.621  -1.486  0.00  0.00    -0.270 N 
ATOM     17  H   LIG    1       -0.164  -2.460  -1.359  0.00  0.00    +0.153 HD
ATOM     18  O   LIG    1       -2.504  -0.569  -2.058  0.00  0.00    -0.252 OA
BRANCH  13  24
ATOM     19  C   LIG    1       -6.310  -4.799  -4.580  0.00  0.00    +0.044 C 
ATOM     20  C   LIG    1       -5.760  -3.758  -3.639  0.00  0.00    -0.049 A 
ATOM     21  C   LIG    1       -6.602  -2.809  -3.091  0.00  0.00    +0.003 A 
ATOM     22  C   LIG    1       -6.101  -1.852  -2.227  0.00  0.00    +0.002 A 
ATOM     23  C   LIG    1       -4.758  -1.846  -1.905  0.00  0.00    +0.023 A 
ATOM     24  C   LIG    1       -3.908  -2.795  -2.458  0.00  0.00    +0.035 A 
ATOM     25  C   LIG    1       -4.415  -3.754  -3.326  0.00  0.00    +0.026 A 
ENDBRANCH  13  24
ENDBRANCH   1  16
BRANCH  10  26
ATOM     26  C   LIG    1        0.859  -0.701   2.413  0.00  0.00    +0.001 A 
ATOM     27  C   LIG    1       -0.045   0.186   2.997  0.00  0.00    +0.010 A 
ATOM     28  C   LIG    1        0.041   0.465   4.346  0.00  0.00    +0.001 A 
ATOM     29  C   LIG    1        1.028  -0.124   5.116  0.00  0.00    +0.000 A 
ATOM     30  C   LIG    1        1.931  -1.000   4.540  0.00  0.00    +0.001 A 
ATOM     31  C   LIG    1        1.852  -1.292   3.194  0.00  0.00    +0.010 A 
ENDBRANCH  10  26
BRANCH   3  32
ATOM     32  C   LIG    1        3.636  -1.251  -2.148  0.00  0.00    +0.193 C 
BRANCH  32  33
ATOM     33  C   LIG    1        4.544  -0.442  -1.258  0.00  0.00    +0.181 C 
ATOM     34  O   LIG    1        4.122   0.017  -0.218  0.00  0.00    -0.290 OA
BRANCH  33  35
ATOM     35  C   LIG    1        5.943  -0.208  -1.652  0.00  0.00    +0.022 A 
ATOM     36  C   LIG    1        6.469  -0.838  -2.784  0.00  0.00    +0.012 A 
ATOM     37  C   LIG    1        7.779  -0.609  -3.150  0.00  0.00    +0.001 A 
ATOM     38  C   LIG    1        8.575   0.232  -2.393  0.00  0.00    +0.000 A 
ATOM     39  C   LIG    1        8.064   0.854  -1.267  0.00  0.00    +0.004 A 
ATOM     40  C   LIG    1        6.754   0.640  -0.892  0.00  0.00    -0.040 A 
ATOM     41  C   LIG    1        6.199   1.319   0.334  0.00  0.00    +0.044 C 
ENDBRANCH  33  35
ENDBRANCH  32  33
ENDBRANCH   3  32
TORSDOF 6
