REMARK  Name = ZINC01571009
REMARK                            x       y       z     vdW  Elec       q    Type
REMARK                         _______ _______ _______ _____ _____    ______ ____
ROOT
ATOM      1  O   LIG    1        4.543  -3.287  -5.775  0.00  0.00    -0.490 OA
ENDROOT
BRANCH   1   5
ATOM      2  C   LIG    1        2.384  -1.475  -2.762  0.00  0.00    -0.041 A 
ATOM      3  C   LIG    1        1.746  -2.305  -3.665  0.00  0.00    +0.008 A 
ATOM      4  C   LIG    1        2.467  -2.913  -4.675  0.00  0.00    +0.046 A 
ATOM      5  C   LIG    1        3.832  -2.690  -4.782  0.00  0.00    +0.121 A 
ATOM      6  C   LIG    1        4.470  -1.856  -3.876  0.00  0.00    +0.046 A 
ATOM      7  C   LIG    1        3.744  -1.246  -2.871  0.00  0.00    +0.008 A 
BRANCH   2   8
ATOM      8  C   LIG    1        1.596  -0.814  -1.661  0.00  0.00    -0.009 C 
ATOM      9  C   LIG    1        2.154  -1.246  -0.303  0.00  0.00    +0.016 C 
ATOM     10  C   LIG    1        1.706   0.706  -1.797  0.00  0.00    +0.016 C 
BRANCH   8  11
ATOM     11  C   LIG    1        0.127  -1.230  -1.764  0.00  0.00    +0.017 C 
BRANCH  11  13
ATOM     12  C   LIG    1       -0.668   1.137  -1.845  0.00  0.00    +0.010 C 
ATOM     13  C   LIG    1       -0.750  -0.183  -1.075  0.00  0.00    -0.037 C 
ATOM     14  C   LIG    1       -2.200  -0.670  -1.049  0.00  0.00    +0.010 C 
ATOM     15  C   LIG    1       -0.258   0.031   0.358  0.00  0.00    +0.010 C 
ENDBRANCH  11  13
ENDBRANCH   8  11
ENDBRANCH   2   8
ENDBRANCH   1   5
BRANCH   1  16
ATOM     16  C   LIG    1        5.944  -3.011  -5.825  0.00  0.00    +0.257 C 
BRANCH  16  17
ATOM     17  C   LIG    1        6.571  -3.765  -6.999  0.00  0.00    +0.200 C 
BRANCH  17  18
ATOM     18  O   LIG    1        6.042  -3.260  -8.227  0.00  0.00    -0.378 OA
BRANCH  18  19
ATOM     19  C   LIG    1        6.565  -3.901  -9.392  0.00  0.00    +0.142 C 
BRANCH  19  20
ATOM     20  C   LIG    1        5.932  -3.284 -10.641  0.00  0.00    -0.047 C 
BRANCH  20  21
ATOM     21  N   LIG    1        6.412  -1.905 -10.802  0.00  0.00    +0.380 N 
ATOM     22  C   LIG    1        7.860  -1.916 -11.048  0.00  0.00    -0.092 C 
ATOM     23  C   LIG    1        6.128  -1.141  -9.579  0.00  0.00    -0.092 C 
BRANCH  21  24
ATOM     24  C   LIG    1        5.726  -1.278 -11.940  0.00  0.00    -0.040 C 
BRANCH  24  25
ATOM     25  C   LIG    1        6.219   0.137 -12.106  0.00  0.00    -0.063 A 
ATOM     26  C   LIG    1        5.584   1.171 -11.444  0.00  0.00    +0.002 A 
ATOM     27  C   LIG    1        6.035   2.469 -11.596  0.00  0.00    +0.000 A 
ATOM     28  C   LIG    1        7.122   2.732 -12.409  0.00  0.00    +0.000 A 
ATOM     29  C   LIG    1        7.757   1.698 -13.070  0.00  0.00    +0.000 A 
ATOM     30  C   LIG    1        7.308   0.399 -12.915  0.00  0.00    +0.002 A 
ENDBRANCH  24  25
ENDBRANCH  21  24
ENDBRANCH  20  21
ENDBRANCH  19  20
ENDBRANCH  18  19
ENDBRANCH  17  18
ENDBRANCH  16  17
ENDBRANCH   1  16
TORSDOF 12
