REMARK  Name = ZINC01558399
REMARK                            x       y       z     vdW  Elec       q    Type
REMARK                         _______ _______ _______ _____ _____    ______ ____
ROOT
ATOM      1  N   LIG    1       -1.239   2.070   0.019  0.00  0.00    -0.202 N 
ATOM      2  C   LIG    1       -2.446   1.474   0.016  0.00  0.00    +0.260 C 
ATOM      3  C   LIG    1       -3.487   2.521   0.032  0.00  0.00    +0.071 A 
ATOM      4  C   LIG    1       -2.796   3.752   0.036  0.00  0.00    +0.071 A 
ATOM      5  C   LIG    1       -3.507   4.942   0.045  0.00  0.00    +0.074 A 
ATOM      6 CL   LIG    1       -2.666   6.461   0.050  0.00  0.00    -0.081 Cl
ATOM      7  C   LIG    1       -4.897   4.914   0.051  0.00  0.00    +0.080 A 
ATOM      8 CL   LIG    1       -5.789   6.403   0.063  0.00  0.00    -0.080 Cl
ATOM      9  C   LIG    1       -5.574   3.708   0.048  0.00  0.00    +0.080 A 
ATOM     10 CL   LIG    1       -7.309   3.693   0.057  0.00  0.00    -0.080 Cl
ATOM     11  C   LIG    1       -4.873   2.508   0.039  0.00  0.00    +0.074 A 
ATOM     12 CL   LIG    1       -5.730   0.998   0.037  0.00  0.00    -0.081 Cl
ATOM     13  O   LIG    1       -2.645   0.276   0.004  0.00  0.00    -0.269 OA
ATOM     14  C   LIG    1       -1.360   3.409   0.027  0.00  0.00    +0.260 C 
ATOM     15  O   LIG    1       -0.441   4.204   0.026  0.00  0.00    -0.269 OA
ENDROOT
BRANCH   1  19
ATOM     16  C   LIG    1        2.396   0.031  -0.021  0.00  0.00    +0.000 A 
ATOM     17  C   LIG    1        1.208  -0.677  -0.013  0.00  0.00    +0.002 A 
ATOM     18  C   LIG    1        0.002  -0.004   0.002  0.00  0.00    +0.024 A 
ATOM     19  C   LIG    1       -0.017   1.384   0.010  0.00  0.00    +0.045 A 
ATOM     20  C   LIG    1        1.178   2.092   0.002  0.00  0.00    +0.024 A 
ATOM     21  C   LIG    1        2.381   1.413  -0.013  0.00  0.00    +0.002 A 
ENDBRANCH   1  19
TORSDOF 1
