REMARK  Name = ZINC01554414
REMARK                            x       y       z     vdW  Elec       q    Type
REMARK                         _______ _______ _______ _____ _____    ______ ____
ROOT
ATOM      1  C   LIG    1        2.125   1.451  -1.164  0.00  0.00    +0.057 A 
ATOM      2  C   LIG    1        0.741   1.310  -0.947  0.00  0.00    +0.124 A 
ATOM      3  N   LIG    1        0.202   1.558   0.217  0.00  0.00    -0.250 NA
ATOM      4  C   LIG    1        0.931   1.958   1.269  0.00  0.00    +0.114 A 
ATOM      5  C   LIG    1        2.329   2.127   1.147  0.00  0.00    +0.026 A 
ATOM      6  C   LIG    1        3.082   2.546   2.252  0.00  0.00    +0.012 A 
ATOM      7  C   LIG    1        2.463   2.789   3.443  0.00  0.00    +0.004 A 
ATOM      8  C   LIG    1        1.088   2.628   3.577  0.00  0.00    +0.048 A 
ATOM      9  C   LIG    1        0.319   2.211   2.513  0.00  0.00    +0.146 A 
ATOM     10  C   LIG    1        2.946   1.868  -0.102  0.00  0.00    +0.053 A 
ENDROOT
BRANCH   1  11
ATOM     11  C   LIG    1        2.701   1.167  -2.479  0.00  0.00    +0.166 C 
ATOM     12  O   LIG    1        3.905   1.197  -2.633  0.00  0.00    -0.292 OA
BRANCH  11  13
ATOM     13  C   LIG    1        1.801   0.837  -3.641  0.00  0.00    +0.079 C 
BRANCH  13  15
ATOM     14  C   LIG    1        1.713   0.484  -6.113  0.00  0.00    +0.004 C 
ATOM     15  C   LIG    1        2.638   0.712  -4.916  0.00  0.00    +0.004 C 
ENDBRANCH  13  15
ENDBRANCH  11  13
ENDBRANCH   1  11
BRANCH  10  16
ATOM     16  N   LIG    1        4.304   2.019  -0.269  0.00  0.00    -0.313 N 
ATOM     17  H   LIG    1        4.894   1.256  -0.162  0.00  0.00    +0.152 HD
BRANCH  16  18
ATOM     18  C   LIG    1        4.833   3.271  -0.593  0.00  0.00    +0.034 A 
ATOM     19  C   LIG    1        3.992   4.368  -0.731  0.00  0.00    +0.023 A 
ATOM     20  C   LIG    1        4.519   5.604  -1.047  0.00  0.00    +0.002 A 
ATOM     21  C   LIG    1        5.882   5.750  -1.236  0.00  0.00    +0.000 A 
ATOM     22  C   LIG    1        6.721   4.659  -1.105  0.00  0.00    +0.005 A 
ATOM     23  C   LIG    1        6.201   3.420  -0.784  0.00  0.00    -0.029 A 
ATOM     24  C   LIG    1        7.117   2.231  -0.642  0.00  0.00    +0.045 C 
ENDBRANCH  16  18
ENDBRANCH  10  16
BRANCH   9  25
ATOM     25  O   LIG    1       -1.022   2.051   2.660  0.00  0.00    -0.488 OA
BRANCH  25  26
ATOM     26  C   LIG    1       -1.571   2.326   3.950  0.00  0.00    +0.257 C 
BRANCH  26  27
ATOM     27  C   LIG    1       -3.082   2.092   3.922  0.00  0.00    +0.196 C 
BRANCH  27  28
ATOM     28  O   LIG    1       -3.346   0.707   3.687  0.00  0.00    -0.392 OA
ATOM     29  H   LIG    1       -4.286   0.485   3.657  0.00  0.00    +0.210 HD
ENDBRANCH  27  28
ENDBRANCH  26  27
ENDBRANCH  25  26
ENDBRANCH   9  25
TORSDOF 9
