REMARK  Name = ZINC01577159
REMARK                            x       y       z     vdW  Elec       q    Type
REMARK                         _______ _______ _______ _____ _____    ______ ____
ROOT
ATOM      1  N   LIG    1        0.020  -0.012   0.025  0.00  0.00    +0.380 N 
ATOM      2  H   LIG    1        0.632  -0.322   0.788  0.00  0.00    -0.082 HD
ATOM      3  C   LIG    1       -1.338  -0.550   0.250  0.00  0.00    -0.079 C 
ATOM      4  C   LIG    1       -1.255  -2.072   0.379  0.00  0.00    -0.019 C 
ATOM      5  C   LIG    1       -0.675  -2.658  -0.911  0.00  0.00    -0.004 C 
ATOM      6  C   LIG    1        0.700  -2.038  -1.172  0.00  0.00    -0.019 C 
ATOM      7  C   LIG    1        0.559  -0.516  -1.256  0.00  0.00    -0.079 C 
ENDROOT
BRANCH   1   9
ATOM      8  C   LIG    1        1.417   1.994  -0.001  0.00  0.00    -0.017 C 
ATOM      9  C   LIG    1       -0.018   1.465   0.010  0.00  0.00    -0.082 C 
ENDBRANCH   1   9
TORSDOF 1
