REMARK  Name = ZINC01549397
REMARK                            x       y       z     vdW  Elec       q    Type
REMARK                         _______ _______ _______ _____ _____    ______ ____
ROOT
ATOM      1  C   LIG    1       -1.996   5.773  -2.727  0.00  0.00    +0.053 A 
ATOM      2  C   LIG    1       -2.338   4.574  -3.276  0.00  0.00    +0.031 A 
ATOM      3  C   LIG    1       -1.869   3.557  -2.406  0.00  0.00    +0.101 A 
ATOM      4  N   LIG    1       -1.270   4.137  -1.389  0.00  0.00    -0.165 NA
ATOM      5  N   LIG    1       -1.342   5.524  -1.564  0.00  0.00    -0.235 N 
ENDROOT
BRANCH   2   6
ATOM      6  C   LIG    1       -3.068   4.369  -4.551  0.00  0.00    -0.014 A 
ATOM      7  C   LIG    1       -4.389   4.795  -4.677  0.00  0.00    +0.008 A 
ATOM      8  C   LIG    1       -5.061   4.607  -5.867  0.00  0.00    +0.001 A 
ATOM      9  C   LIG    1       -4.430   3.986  -6.931  0.00  0.00    +0.000 A 
ATOM     10  C   LIG    1       -3.121   3.556  -6.809  0.00  0.00    +0.001 A 
ATOM     11  C   LIG    1       -2.437   3.744  -5.625  0.00  0.00    +0.008 A 
ENDBRANCH   2   6
BRANCH   3  12
ATOM     12  C   LIG    1       -2.021   2.096  -2.610  0.00  0.00    +0.003 A 
ATOM     13  C   LIG    1       -3.174   1.589  -3.207  0.00  0.00    +0.010 A 
ATOM     14  C   LIG    1       -3.308   0.229  -3.400  0.00  0.00    +0.001 A 
ATOM     15  C   LIG    1       -2.305  -0.632  -2.990  0.00  0.00    +0.000 A 
ATOM     16  C   LIG    1       -1.161  -0.135  -2.392  0.00  0.00    +0.001 A 
ATOM     17  C   LIG    1       -1.014   1.224  -2.200  0.00  0.00    +0.010 A 
ENDBRANCH   3  12
BRANCH   5  18
ATOM     18  C   LIG    1       -0.823   6.488  -0.694  0.00  0.00    +0.073 A 
ATOM     19  C   LIG    1        0.035   7.469  -1.171  0.00  0.00    +0.028 A 
ATOM     20  C   LIG    1        0.550   8.417  -0.309  0.00  0.00    +0.002 A 
ATOM     21  C   LIG    1        0.212   8.398   1.033  0.00  0.00    +0.001 A 
ATOM     22  C   LIG    1       -0.644   7.432   1.521  0.00  0.00    +0.010 A 
ATOM     23  C   LIG    1       -1.170   6.471   0.662  0.00  0.00    +0.008 A 
BRANCH  23  24
ATOM     24  C   LIG    1       -2.090   5.430   1.182  0.00  0.00    -0.012 A 
ATOM     25  C   LIG    1       -3.355   5.270   0.618  0.00  0.00    +0.009 A 
ATOM     26  C   LIG    1       -4.207   4.296   1.099  0.00  0.00    +0.004 A 
ATOM     27  C   LIG    1       -3.813   3.485   2.148  0.00  0.00    +0.046 A 
ATOM     28  C   LIG    1       -2.556   3.638   2.715  0.00  0.00    +0.122 A 
ATOM     29  C   LIG    1       -1.692   4.609   2.234  0.00  0.00    +0.054 A 
BRANCH  28  30
ATOM     30  O   LIG    1       -2.171   2.836   3.742  0.00  0.00    -0.481 OA
BRANCH  30  31
ATOM     31  C   LIG    1       -3.112   1.856   4.187  0.00  0.00    +0.349 C 
BRANCH  31  32
ATOM     32  C   LIG    1       -2.515   1.066   5.323  0.00  0.00    +0.343 C 
ATOM     33  O   LIG    1       -1.399   1.316   5.712  0.00  0.00    -0.247 OA
BRANCH  32  34
ATOM     34  O   LIG    1       -3.224   0.084   5.902  0.00  0.00    -0.478 OA
ATOM     35  H   LIG    1       -4.089  -0.110   5.601  0.00  0.00    +0.295 HD
ENDBRANCH  32  34
ENDBRANCH  31  32
ENDBRANCH  30  31
ENDBRANCH  28  30
ENDBRANCH  23  24
ENDBRANCH   5  18
BRANCH   1  37
ATOM     36  C   LIG    1       -1.214   7.496  -4.330  0.00  0.00    +0.010 C 
ATOM     37  C   LIG    1       -2.292   7.132  -3.307  0.00  0.00    +0.053 C 
ENDBRANCH   1  37
TORSDOF 9
