REMARK  Name = ZINC01555402
REMARK                            x       y       z     vdW  Elec       q    Type
REMARK                         _______ _______ _______ _____ _____    ______ ____
ROOT
ATOM      1  C   LIG    1        1.253  -2.157  -0.021  0.00  0.00    +0.233 C 
ATOM      2  O   LIG    1        0.581  -2.088  -1.029  0.00  0.00    -0.283 OA
ENDROOT
BRANCH   1   9
ATOM      3  C   LIG    1       -0.487  -0.940   1.279  0.00  0.00    +0.013 A 
ATOM      4  C   LIG    1       -0.968  -0.445   2.471  0.00  0.00    +0.021 A 
ATOM      5  C   LIG    1       -0.246  -0.624   3.641  0.00  0.00    +0.041 A 
ATOM      6 CL   LIG    1       -0.860   0.004   5.139  0.00  0.00    -0.084 Cl
ATOM      7  C   LIG    1        0.963  -1.301   3.620  0.00  0.00    +0.021 A 
ATOM      8  C   LIG    1        1.456  -1.802   2.435  0.00  0.00    +0.013 A 
ATOM      9  C   LIG    1        0.733  -1.625   1.250  0.00  0.00    +0.026 A 
ENDBRANCH   1   9
BRANCH   1  10
ATOM     10  C   LIG    1        2.607  -2.781  -0.070  0.00  0.00    +0.233 C 
ATOM     11  O   LIG    1        3.599  -2.082  -0.042  0.00  0.00    -0.283 OA
BRANCH  10  12
ATOM     12  C   LIG    1        2.741  -4.246  -0.152  0.00  0.00    +0.026 A 
ATOM     13  C   LIG    1        1.602  -5.050  -0.284  0.00  0.00    +0.013 A 
ATOM     14  C   LIG    1        1.735  -6.418  -0.366  0.00  0.00    +0.021 A 
ATOM     15  C   LIG    1        2.992  -7.001  -0.305  0.00  0.00    +0.041 A 
ATOM     16 CL   LIG    1        3.149  -8.727  -0.403  0.00  0.00    -0.084 Cl
ATOM     17  C   LIG    1        4.123  -6.212  -0.169  0.00  0.00    +0.021 A 
ATOM     18  C   LIG    1        4.006  -4.841  -0.091  0.00  0.00    +0.013 A 
ENDBRANCH  10  12
ENDBRANCH   1  10
TORSDOF 3
