REMARK  Name = ZINC01626277
REMARK                            x       y       z     vdW  Elec       q    Type
REMARK                         _______ _______ _______ _____ _____    ______ ____
ROOT
ATOM      1  C   LIG    1        1.907   7.329   1.141  0.00  0.00    +0.067 C 
ATOM      2  C   LIG    1        1.674   5.853   0.945  0.00  0.00    +0.059 A 
ATOM      3  C   LIG    1        0.391   5.343   0.786  0.00  0.00    +0.083 A 
ATOM      4  S   LIG    1        0.751   3.603   0.596  0.00  0.00    -0.044 S 
ATOM      5  C   LIG    1        2.477   3.711   0.746  0.00  0.00    +0.195 A 
ATOM      6  N   LIG    1        2.671   5.008   0.917  0.00  0.00    -0.226 NA
ENDROOT
BRANCH   5   7
ATOM      7  N   LIG    1        3.418   2.692   0.693  0.00  0.00    -0.207 N 
ATOM      8  C   LIG    1        3.154   1.350   0.710  0.00  0.00    +0.077 A 
ATOM      9  C   LIG    1        4.348   0.696   0.636  0.00  0.00    +0.058 A 
ATOM     10  C   LIG    1        5.365   1.665   0.578  0.00  0.00    +0.094 A 
ATOM     11  N   LIG    1        4.807   2.856   0.616  0.00  0.00    -0.164 NA
BRANCH   8  12
ATOM     12  C   LIG    1        1.816   0.722   0.788  0.00  0.00    +0.001 A 
ATOM     13  C   LIG    1        1.522  -0.398   0.010  0.00  0.00    +0.010 A 
ATOM     14  C   LIG    1        0.272  -0.979   0.088  0.00  0.00    +0.001 A 
ATOM     15  C   LIG    1       -0.687  -0.453   0.935  0.00  0.00    +0.000 A 
ATOM     16  C   LIG    1       -0.401   0.659   1.708  0.00  0.00    +0.001 A 
ATOM     17  C   LIG    1        0.844   1.249   1.639  0.00  0.00    +0.010 A 
ENDBRANCH   8  12
BRANCH  10  18
ATOM     18  C   LIG    1        6.821   1.390   0.491  0.00  0.00    +0.002 A 
ATOM     19  C   LIG    1        7.285   0.076   0.466  0.00  0.00    +0.010 A 
ATOM     20  C   LIG    1        8.640  -0.173   0.380  0.00  0.00    +0.001 A 
ATOM     21  C   LIG    1        9.537   0.879   0.330  0.00  0.00    +0.000 A 
ATOM     22  C   LIG    1        9.083   2.185   0.359  0.00  0.00    +0.001 A 
ATOM     23  C   LIG    1        7.730   2.446   0.440  0.00  0.00    +0.010 A 
ENDBRANCH  10  18
ENDBRANCH   5   7
BRANCH   3  24
ATOM     24  C   LIG    1       -0.899   6.040   0.773  0.00  0.00    +0.194 C 
ATOM     25  O   LIG    1       -0.939   7.251   0.916  0.00  0.00    -0.287 OA
BRANCH  24  26
ATOM     26  C   LIG    1       -2.099   5.307   0.594  0.00  0.00    +0.052 C 
ATOM     27  C   LIG    1       -3.293   5.952   0.582  0.00  0.00    +0.007 C 
BRANCH  27  28
ATOM     28  C   LIG    1       -4.488   5.222   0.404  0.00  0.00    -0.050 C 
ATOM     29  C   LIG    1       -4.438   3.726   0.228  0.00  0.00    +0.044 C 
ATOM     30  C   LIG    1       -5.678   5.865   0.392  0.00  0.00    +0.011 C 
BRANCH  30  31
ATOM     31  C   LIG    1       -6.930   5.094   0.359  0.00  0.00    -0.025 A 
ATOM     32  C   LIG    1       -8.033   5.574  -0.355  0.00  0.00    +0.008 A 
ATOM     33  C   LIG    1       -9.201   4.842  -0.386  0.00  0.00    +0.001 A 
ATOM     34  C   LIG    1       -9.289   3.642   0.297  0.00  0.00    +0.000 A 
ATOM     35  C   LIG    1       -8.204   3.163   1.012  0.00  0.00    +0.001 A 
ATOM     36  C   LIG    1       -7.027   3.880   1.047  0.00  0.00    +0.008 A 
ENDBRANCH  30  31
ENDBRANCH  27  28
ENDBRANCH  24  26
ENDBRANCH   3  24
TORSDOF 7
