REMARK  Name = ZINC01596706
REMARK                            x       y       z     vdW  Elec       q    Type
REMARK                         _______ _______ _______ _____ _____    ______ ____
ROOT
ATOM      1  S   LIG    1       -0.017   1.417   0.010  0.00  0.00    +0.025 S 
ATOM      2  O   LIG    1        1.172   2.195   0.003  0.00  0.00    -0.164 OA
ATOM      3  O   LIG    1        0.002  -0.004   0.002  0.00  0.00    -0.164 OA
ENDROOT
BRANCH   1  10
ATOM      4  C   LIG    1       -1.879   1.052  -1.952  0.00  0.00    +0.030 A 
ATOM      5  C   LIG    1       -2.619   1.444  -3.052  0.00  0.00    +0.042 A 
ATOM      6  C   LIG    1       -2.424   2.698  -3.605  0.00  0.00    +0.153 A 
ATOM      7  F   LIG    1       -3.142   3.081  -4.683  0.00  0.00    -0.203 F 
ATOM      8  C   LIG    1       -1.492   3.560  -3.051  0.00  0.00    +0.158 A 
ATOM      9  C   LIG    1       -0.758   3.168  -1.948  0.00  0.00    +0.063 A 
ATOM     10  C   LIG    1       -0.954   1.915  -1.397  0.00  0.00    +0.096 A 
BRANCH   8  11
ATOM     11  N   LIG    1       -1.284   4.902  -3.641  0.00  0.00    +0.009 N 
ATOM     12  O   LIG    1       -0.465   5.660  -3.153  0.00  0.00    -0.130 OA
BRANCH  11  13
ATOM     13  O   LIG    1       -1.931   5.247  -4.613  0.00  0.00    -0.396 OA
ATOM     14  H   LIG    1       -2.561   4.664  -4.988  0.00  0.00    +0.329 HD
ENDBRANCH  11  13
ENDBRANCH   8  11
ENDBRANCH   1  10
BRANCH   1  15
ATOM     15  C   LIG    1       -0.927   1.900   1.439  0.00  0.00    +0.096 A 
ATOM     16  C   LIG    1       -0.717   3.145   2.003  0.00  0.00    +0.030 A 
ATOM     17  C   LIG    1       -1.434   3.527   3.121  0.00  0.00    +0.042 A 
ATOM     18  C   LIG    1       -2.354   2.659   3.683  0.00  0.00    +0.153 A 
ATOM     19  F   LIG    1       -3.052   3.030   4.779  0.00  0.00    -0.203 F 
ATOM     20  C   LIG    1       -2.560   1.411   3.121  0.00  0.00    +0.158 A 
ATOM     21  C   LIG    1       -1.846   1.032   2.000  0.00  0.00    +0.063 A 
BRANCH  20  22
ATOM     22  N   LIG    1       -3.544   0.481   3.720  0.00  0.00    +0.009 N 
ATOM     23  O   LIG    1       -3.725  -0.617   3.225  0.00  0.00    -0.130 OA
BRANCH  22  24
ATOM     24  O   LIG    1       -4.173   0.815   4.708  0.00  0.00    -0.396 OA
ATOM     25  H   LIG    1       -4.034   1.660   5.089  0.00  0.00    +0.329 HD
ENDBRANCH  22  24
ENDBRANCH  20  22
ENDBRANCH   1  15
TORSDOF 6
