REMARK  Name = ZINC01645263
REMARK                            x       y       z     vdW  Elec       q    Type
REMARK                         _______ _______ _______ _____ _____    ______ ____
ROOT
ATOM      1  C   LIG    1        0.000   1.080   2.488  0.00  0.00    -0.006 A 
ATOM      2  C   LIG    1       -0.249  -0.176   3.198  0.00  0.00    +0.007 A 
ATOM      3  C   LIG    1       -1.146  -1.232   3.015  0.00  0.00    +0.056 A 
ATOM      4  C   LIG    1       -1.125  -2.303   3.885  0.00  0.00    +0.121 A 
ATOM      5  C   LIG    1       -0.217  -2.333   4.940  0.00  0.00    +0.047 A 
ATOM      6  C   LIG    1        0.677  -1.302   5.126  0.00  0.00    +0.030 A 
ATOM      7  C   LIG    1        0.669  -0.211   4.262  0.00  0.00    +0.048 A 
ATOM      8  N   LIG    1        1.411   0.950   4.197  0.00  0.00    -0.349 N 
ATOM      9  H   LIG    1        2.119   1.194   4.813  0.00  0.00    +0.166 HD
ATOM     10  C   LIG    1        0.998   1.706   3.134  0.00  0.00    +0.087 A 
ATOM     11 BR   LIG    1        1.724   3.382   2.647  0.00  0.00    -0.031 Br
ENDROOT
BRANCH   4  12
ATOM     12  O   LIG    1       -1.996  -3.333   3.712  0.00  0.00    -0.495 OA
ATOM     13  C   LIG    1       -1.922  -4.410   4.649  0.00  0.00    +0.277 C 
ENDBRANCH   4  12
BRANCH   1  14
ATOM     14  C   LIG    1       -0.729   1.579   1.267  0.00  0.00    +0.057 C 
BRANCH  14  15
ATOM     15  C   LIG    1       -0.013   1.086   0.008  0.00  0.00    +0.109 C 
BRANCH  15  18
ATOM     16  C   LIG    1       -0.997   1.758  -3.630  0.00  0.00    +0.109 C 
ATOM     17  C   LIG    1       -0.268   1.258  -2.409  0.00  0.00    +0.210 C 
ATOM     18  N   LIG    1       -0.721   1.571  -1.179  0.00  0.00    -0.315 N 
ATOM     19  H   LIG    1       -1.516   2.118  -1.079  0.00  0.00    +0.149 HD
ATOM     20  O   LIG    1        0.726   0.575  -2.534  0.00  0.00    -0.276 OA
ENDBRANCH  15  18
ENDBRANCH  14  15
ENDBRANCH   1  14
TORSDOF 4
