REMARK  Name = ZINC01640999
REMARK                            x       y       z     vdW  Elec       q    Type
REMARK                         _______ _______ _______ _____ _____    ______ ____
ROOT
ATOM      1  C   LIG    1        1.204  -0.695  -0.014  0.00  0.00    +0.001 A 
ATOM      2  C   LIG    1        0.002  -0.004   0.002  0.00  0.00    +0.002 A 
ATOM      3  C   LIG    1       -0.017   1.376   0.010  0.00  0.00    +0.026 A 
ATOM      4  C   LIG    1        1.177   2.081   0.002  0.00  0.00    +0.056 A 
ATOM      5  C   LIG    1        2.397   1.382  -0.014  0.00  0.00    +0.066 A 
ATOM      6  C   LIG    1        3.648   2.162  -0.023  0.00  0.00    +0.297 A 
ATOM      7  N   LIG    1        3.561   3.510  -0.014  0.00  0.00    -0.091 N 
ATOM      8  C   LIG    1        2.372   4.132   0.001  0.00  0.00    +0.363 A 
ATOM      9  O   LIG    1        2.351   5.347   0.007  0.00  0.00    -0.243 OA
ATOM     10  O   LIG    1        4.729   1.606  -0.037  0.00  0.00    -0.264 OA
ATOM     11  N   LIG    1        1.203   3.468   0.009  0.00  0.00    -0.305 N 
ATOM     12  H   LIG    1        0.369   3.964   0.020  0.00  0.00    +0.170 HD
ATOM     13  C   LIG    1        2.402  -0.011  -0.022  0.00  0.00    +0.015 A 
ENDROOT
BRANCH   7  14
ATOM     14  O   LIG    1        4.748   4.282  -0.022  0.00  0.00    -0.419 OA
ATOM     15  H   LIG    1        4.597   5.237  -0.016  0.00  0.00    +0.326 HD
ENDBRANCH   7  14
TORSDOF 1
