REMARK  Name = ZINC01629865
REMARK                            x       y       z     vdW  Elec       q    Type
REMARK                         _______ _______ _______ _____ _____    ______ ____
ROOT
ATOM      1  C   LIG    1        2.465   3.883  -0.082  0.00  0.00    +0.048 C 
ATOM      2  C   LIG    1        1.615   4.937  -0.743  0.00  0.00    -0.001 A 
ATOM      3  C   LIG    1        2.201   5.842  -1.601  0.00  0.00    +0.053 A 
ATOM      4  C   LIG    1        1.422   6.814  -2.211  0.00  0.00    +0.127 A 
ATOM      5  C   LIG    1        0.065   6.865  -1.950  0.00  0.00    +0.037 A 
ATOM      6  C   LIG    1       -0.779   7.923  -2.613  0.00  0.00    +0.051 C 
ATOM      7  C   LIG    1       -0.534   5.952  -1.079  0.00  0.00    +0.181 A 
ATOM      8  O   LIG    1       -1.875   6.116  -0.908  0.00  0.00    -0.418 OA
ATOM      9  C   LIG    1       -2.529   5.466   0.065  0.00  0.00    +0.348 C 
ATOM     10  O   LIG    1       -3.101   6.082   0.942  0.00  0.00    -0.244 OA
ATOM     11  C   LIG    1       -2.544   3.994   0.055  0.00  0.00    +0.107 A 
ATOM     12  C   LIG    1       -3.739   3.280  -0.060  0.00  0.00    -0.011 A 
ATOM     13  C   LIG    1       -5.054   4.013  -0.117  0.00  0.00    +0.046 C 
ATOM     14  C   LIG    1       -3.713   1.902  -0.121  0.00  0.00    +0.087 A 
ATOM     15 CL   LIG    1       -5.202   1.018  -0.235  0.00  0.00    -0.079 Cl
ATOM     16  C   LIG    1       -2.505   1.215  -0.091  0.00  0.00    +0.149 A 
ATOM     17  C   LIG    1       -1.291   1.922   0.014  0.00  0.00    +0.100 A 
ATOM     18  C   LIG    1       -1.325   3.317   0.134  0.00  0.00    +0.157 A 
ATOM     19  O   LIG    1       -0.218   4.040   0.379  0.00  0.00    -0.450 OA
ATOM     20  C   LIG    1        0.244   4.984  -0.476  0.00  0.00    +0.174 A 
ENDROOT
BRANCH   4  21
ATOM     21  O   LIG    1        1.989   7.711  -3.060  0.00  0.00    -0.495 OA
ATOM     22  C   LIG    1        3.396   7.595  -3.281  0.00  0.00    +0.277 C 
ENDBRANCH   4  21
BRANCH  16  23
ATOM     23  O   LIG    1       -2.495  -0.138  -0.165  0.00  0.00    -0.504 OA
ATOM     24  H   LIG    1       -2.541  -0.578   0.695  0.00  0.00    +0.292 HD
ENDBRANCH  16  23
BRANCH  17  25
ATOM     25  C   LIG    1       -0.013   1.208   0.005  0.00  0.00    +0.266 C 
ATOM     26  O   LIG    1        0.004  -0.005   0.001  0.00  0.00    -0.295 OA
ENDBRANCH  17  25
TORSDOF 3
