REMARK  Name = ZINC01488870
REMARK                            x       y       z     vdW  Elec       q    Type
REMARK                         _______ _______ _______ _____ _____    ______ ____
ROOT
ATOM      1  C   LIG    1        6.071  -0.666  -0.276  0.00  0.00    +0.037 A 
ATOM      2  C   LIG    1        6.096  -2.062  -0.289  0.00  0.00    +0.013 A 
ATOM      3  C   LIG    1        7.298  -2.727  -0.410  0.00  0.00    +0.006 A 
ATOM      4  C   LIG    1        8.479  -2.013  -0.517  0.00  0.00    -0.030 A 
ATOM      5  C   LIG    1        8.461  -0.629  -0.504  0.00  0.00    +0.006 A 
ATOM      6  C   LIG    1        7.265   0.048  -0.390  0.00  0.00    +0.013 A 
ENDROOT
BRANCH   1   9
ATOM      7  N   LIG    1        3.634  -0.640  -0.037  0.00  0.00    -0.280 N 
ATOM      8  H   LIG    1        3.655  -1.607   0.038  0.00  0.00    +0.155 HD
ATOM      9  C   LIG    1        4.785   0.052  -0.147  0.00  0.00    +0.248 C 
ATOM     10  O   LIG    1        4.767   1.268  -0.141  0.00  0.00    -0.270 OA
BRANCH   7  14
ATOM     11  C   LIG    1       -0.019   1.375  -0.024  0.00  0.00    +0.002 A 
ATOM     12  C   LIG    1        1.087   1.947  -0.626  0.00  0.00    +0.002 A 
ATOM     13  C   LIG    1        2.298   1.282  -0.632  0.00  0.00    +0.025 A 
ATOM     14  C   LIG    1        2.408   0.036  -0.032  0.00  0.00    +0.055 A 
ATOM     15  C   LIG    1        1.293  -0.541   0.575  0.00  0.00    +0.046 A 
ATOM     16  C   LIG    1        0.081   0.134   0.576  0.00  0.00    +0.024 A 
BRANCH  15  17
ATOM     17  N   LIG    1        1.397  -1.798   1.182  0.00  0.00    -0.357 N 
ATOM     18  H   LIG    1        0.620  -2.198   1.604  0.00  0.00    +0.142 HD
ATOM     19  H   LIG    1        2.245  -2.269   1.180  0.00  0.00    +0.142 HD
ENDBRANCH  15  17
ENDBRANCH   7  14
ENDBRANCH   1   9
BRANCH   4  20
ATOM     20  C   LIG    1        9.789  -2.745  -0.648  0.00  0.00    +0.142 C 
BRANCH  20  21
ATOM     21  N   LIG    1       10.082  -2.972  -2.066  0.00  0.00    -0.277 N 
ATOM     22  H   LIG    1        9.464  -2.660  -2.745  0.00  0.00    +0.152 HD
ATOM     23  C   LIG    1       11.211  -3.614  -2.426  0.00  0.00    +0.401 C 
ATOM     24  O   LIG    1       11.986  -4.005  -1.575  0.00  0.00    -0.226 OA
BRANCH  23  25
ATOM     25  O   LIG    1       11.481  -3.822  -3.728  0.00  0.00    -0.446 OA
BRANCH  25  26
ATOM     26  C   LIG    1       12.695  -4.510  -4.038  0.00  0.00    +0.270 C 
BRANCH  26  27
ATOM     27  C   LIG    1       12.826  -4.650  -5.532  0.00  0.00    +0.008 A 
ATOM     28  C   LIG    1       12.302  -5.758  -6.182  0.00  0.00    +0.010 A 
ATOM     29  C   LIG    1       12.446  -5.844  -7.558  0.00  0.00    +0.020 A 
ATOM     30  C   LIG    1       13.102  -4.831  -8.232  0.00  0.00    +0.111 A 
ATOM     31  N   LIG    1       13.588  -3.792  -7.581  0.00  0.00    -0.263 NA
ATOM     32  C   LIG    1       13.464  -3.674  -6.274  0.00  0.00    +0.117 A 
ENDBRANCH  26  27
ENDBRANCH  25  26
ENDBRANCH  23  25
ENDBRANCH  20  21
ENDBRANCH   4  20
TORSDOF 8
