REMARK  Name = ZINC01544807
REMARK                            x       y       z     vdW  Elec       q    Type
REMARK                         _______ _______ _______ _____ _____    ______ ____
ROOT
ATOM      1  C   LIG    1       -0.700  -2.048  -1.251  0.00  0.00    +0.002 C 
ENDROOT
BRANCH   1   2
ATOM      2  C   LIG    1       -0.609  -0.522  -1.302  0.00  0.00    +0.015 C 
BRANCH   2   7
ATOM      3  C   LIG    1       -0.019   1.522   0.010  0.00  0.00    +0.026 C 
ATOM      4  C   LIG    1        1.282   2.333   0.002  0.00  0.00    +0.082 C 
ATOM      5  S   LIG    1        2.539   1.253   0.832  0.00  0.00    -0.093 S 
ATOM      6  S   LIG    1        1.760  -0.556   0.129  0.00  0.00    -0.090 S 
ATOM      7  C   LIG    1        0.002  -0.004   0.002  0.00  0.00    +0.058 C 
ENDBRANCH   2   7
ENDBRANCH   1   2
BRANCH   1   8
ATOM      8  C   LIG    1       -1.311  -2.566  -2.555  0.00  0.00    +0.011 C 
BRANCH   8   9
ATOM      9  C   LIG    1       -1.401  -4.093  -2.504  0.00  0.00    +0.120 C 
BRANCH   9  10
ATOM     10  C   LIG    1       -2.003  -4.603  -3.788  0.00  0.00    +0.305 C 
ATOM     11  O   LIG    1       -2.330  -3.818  -4.662  0.00  0.00    -0.251 OA
BRANCH  10  12
ATOM     12  O   LIG    1       -2.164  -5.800  -3.953  0.00  0.00    -0.481 OA
ATOM     13  H   LIG    1       -1.913  -6.403  -3.281  0.00  0.00    +0.295 HD
ENDBRANCH  10  12
ENDBRANCH   9  10
ENDBRANCH   8   9
ENDBRANCH   1   8
TORSDOF 6
