REMARK  Name = ZINC01482006
REMARK                            x       y       z     vdW  Elec       q    Type
REMARK                         _______ _______ _______ _____ _____    ______ ____
ROOT
ATOM      1  C   LIG    1        1.115   6.341   0.029  0.00  0.00    +0.001 A 
ATOM      2  C   LIG    1       -0.081   5.631   0.036  0.00  0.00    +0.001 A 
ATOM      3  C   LIG    1       -0.084   4.266   0.027  0.00  0.00    +0.009 A 
ATOM      4  C   LIG    1        1.129   3.572   0.011  0.00  0.00    -0.010 A 
ATOM      5  C   LIG    1        2.347   4.290   0.003  0.00  0.00    -0.017 A 
ATOM      6  C   LIG    1        3.572   3.590  -0.013  0.00  0.00    +0.009 A 
ATOM      7  C   LIG    1        3.606   2.238  -0.020  0.00  0.00    +0.010 A 
ATOM      8  C   LIG    1        2.426   1.472  -0.013  0.00  0.00    -0.009 A 
ATOM      9  C   LIG    1        2.483   0.008  -0.022  0.00  0.00    -0.008 A 
ATOM     10  C   LIG    1        3.702  -0.675  -0.038  0.00  0.00    +0.009 A 
ATOM     11  C   LIG    1        3.711  -2.041  -0.044  0.00  0.00    +0.001 A 
ATOM     12  C   LIG    1        2.522  -2.761  -0.036  0.00  0.00    +0.001 A 
ATOM     13  C   LIG    1        1.316  -2.123  -0.021  0.00  0.00    +0.010 A 
ATOM     14  C   LIG    1        1.273  -0.723  -0.014  0.00  0.00    +0.003 A 
ATOM     15  C   LIG    1        0.002  -0.004   0.002  0.00  0.00    +0.033 A 
ATOM     16  C   LIG    1       -0.016   1.357   0.009  0.00  0.00    +0.032 A 
ATOM     17  C   LIG    1        1.170   2.107   0.002  0.00  0.00    -0.008 A 
ATOM     18  C   LIG    1        2.314   5.693   0.012  0.00  0.00    +0.008 A 
ENDROOT
BRANCH  15  19
ATOM     19  N   LIG    1       -1.196  -0.714   0.010  0.00  0.00    -0.357 N 
ATOM     20  H   LIG    1       -1.185  -1.684   0.005  0.00  0.00    +0.142 HD
ATOM     21  H   LIG    1       -2.041  -0.238   0.021  0.00  0.00    +0.142 HD
ENDBRANCH  15  19
TORSDOF 1
