REMARK  Name = ZINC01530886
REMARK                            x       y       z     vdW  Elec       q    Type
REMARK                         _______ _______ _______ _____ _____    ______ ____
ROOT
ATOM      1  C   LIG    1        0.892  -2.108  -2.102  0.00  0.00    +0.111 A 
ATOM      2  N   LIG    1        1.759  -2.977  -1.670  0.00  0.00    -0.232 NA
ATOM      3  C   LIG    1        1.243  -4.228  -1.774  0.00  0.00    +0.092 A 
ATOM      4  C   LIG    1        1.735  -5.500  -1.462  0.00  0.00    -0.022 A 
ATOM      5  C   LIG    1        3.117  -5.651  -0.881  0.00  0.00    +0.046 C 
ATOM      6  C   LIG    1        0.966  -6.603  -1.684  0.00  0.00    +0.017 A 
ATOM      7  C   LIG    1       -0.320  -6.476  -2.224  0.00  0.00    +0.018 A 
ATOM      8  C   LIG    1       -0.825  -5.218  -2.540  0.00  0.00    +0.039 A 
ATOM      9  C   LIG    1       -0.048  -4.093  -2.317  0.00  0.00    +0.070 A 
ATOM     10  N   LIG    1       -0.242  -2.739  -2.507  0.00  0.00    -0.323 N 
ENDROOT
BRANCH   7  11
ATOM     11  C   LIG    1       -1.142  -7.681  -2.460  0.00  0.00    +0.119 A 
ATOM     12  N   LIG    1       -0.682  -8.844  -2.854  0.00  0.00    -0.339 N 
ATOM     13  H   LIG    1        0.250  -9.043  -3.036  0.00  0.00    +0.167 HD
ATOM     14  C   LIG    1       -1.706  -9.724  -2.969  0.00  0.00    +0.065 A 
ATOM     15  C   LIG    1       -1.778 -11.070  -3.345  0.00  0.00    +0.028 A 
ATOM     16  C   LIG    1       -2.987 -11.706  -3.366  0.00  0.00    +0.002 A 
ATOM     17  C   LIG    1       -4.148 -11.032  -3.018  0.00  0.00    +0.002 A 
ATOM     18  C   LIG    1       -4.101  -9.705  -2.644  0.00  0.00    +0.028 A 
ATOM     19  C   LIG    1       -2.883  -9.041  -2.616  0.00  0.00    +0.067 A 
ATOM     20  N   LIG    1       -2.499  -7.754  -2.293  0.00  0.00    -0.328 N 
ATOM     21  C   LIG    1       -3.381  -6.668  -1.857  0.00  0.00    +0.151 C 
ENDBRANCH   7  11
BRANCH   1  22
ATOM     22  C   LIG    1        1.111  -0.617  -2.141  0.00  0.00    +0.074 C 
BRANCH  22  24
ATOM     23  C   LIG    1        0.867   1.515  -0.861  0.00  0.00    +0.004 C 
ATOM     24  C   LIG    1        0.645   0.002  -0.822  0.00  0.00    +0.004 C 
ENDBRANCH  22  24
ENDBRANCH   1  22
BRANCH  10  25
ATOM     25  C   LIG    1       -1.445  -2.102  -3.049  0.00  0.00    +0.158 C 
BRANCH  25  26
ATOM     26  C   LIG    1       -1.326  -1.996  -4.548  0.00  0.00    -0.028 A 
ATOM     27  C   LIG    1       -0.749  -0.874  -5.115  0.00  0.00    +0.006 A 
ATOM     28  C   LIG    1       -0.637  -0.772  -6.487  0.00  0.00    +0.009 A 
ATOM     29  C   LIG    1       -1.107  -1.802  -7.301  0.00  0.00    -0.017 A 
ATOM     30  C   LIG    1       -1.687  -2.930  -6.723  0.00  0.00    +0.009 A 
ATOM     31  C   LIG    1       -1.789  -3.024  -5.350  0.00  0.00    +0.006 A 
BRANCH  29  32
ATOM     32  C   LIG    1       -0.990  -1.698  -8.774  0.00  0.00    -0.004 A 
ATOM     33  C   LIG    1        0.258  -1.531  -9.368  0.00  0.00    +0.009 A 
ATOM     34  C   LIG    1        0.362  -1.435 -10.741  0.00  0.00    +0.001 A 
ATOM     35  C   LIG    1       -0.769  -1.503 -11.538  0.00  0.00    +0.001 A 
ATOM     36  C   LIG    1       -2.015  -1.668 -10.970  0.00  0.00    +0.015 A 
ATOM     37  C   LIG    1       -2.140  -1.773  -9.583  0.00  0.00    +0.067 A 
BRANCH  37  38
ATOM     38  C   LIG    1       -3.467  -1.956  -8.970  0.00  0.00    +0.337 C 
ATOM     39  O   LIG    1       -4.446  -2.147  -9.677  0.00  0.00    -0.245 OA
BRANCH  38  40
ATOM     40  O   LIG    1       -3.589  -1.917  -7.753  0.00  0.00    -0.477 OA
ATOM     41  H   LIG    1       -2.839  -1.770  -7.212  0.00  0.00    +0.295 HD
ENDBRANCH  38  40
ENDBRANCH  37  38
ENDBRANCH  29  32
ENDBRANCH  25  26
ENDBRANCH  10  25
TORSDOF 8
