REMARK  Name = ZINC01648377
REMARK                            x       y       z     vdW  Elec       q    Type
REMARK                         _______ _______ _______ _____ _____    ______ ____
ROOT
ATOM      1  C   LIG    1       -0.020   1.487   0.018  0.00  0.00    +0.233 C 
ATOM      2  O   LIG    1       -0.190   2.082   1.063  0.00  0.00    -0.283 OA
ENDROOT
BRANCH   1   6
ATOM      3  C   LIG    1        0.492   3.646  -3.587  0.00  0.00    +0.029 A 
ATOM      4  C   LIG    1        0.408   4.329  -2.374  0.00  0.00    +0.024 A 
ATOM      5  C   LIG    1        0.243   3.636  -1.209  0.00  0.00    +0.013 A 
ATOM      6  C   LIG    1        0.158   2.237  -1.234  0.00  0.00    +0.026 A 
ATOM      7  C   LIG    1        0.248   1.555  -2.455  0.00  0.00    +0.013 A 
ATOM      8  C   LIG    1        0.407   2.255  -3.616  0.00  0.00    +0.024 A 
BRANCH   3  10
ATOM      9  C   LIG    1        0.749   5.816  -4.740  0.00  0.00    +0.129 C 
ATOM     10  N   LIG    1        0.660   4.354  -4.768  0.00  0.00    -0.336 N 
ATOM     11  C   LIG    1        0.749   3.639  -6.044  0.00  0.00    +0.129 C 
ENDBRANCH   3  10
ENDBRANCH   1   6
BRANCH   1  12
ATOM     12  C   LIG    1        0.003  -0.003   0.004  0.00  0.00    +0.233 C 
ATOM     13  O   LIG    1        1.059  -0.593  -0.109  0.00  0.00    -0.283 OA
BRANCH  12  14
ATOM     14  C   LIG    1       -1.252  -0.759   0.126  0.00  0.00    +0.026 A 
ATOM     15  C   LIG    1       -2.480  -0.083   0.150  0.00  0.00    +0.013 A 
ATOM     16  C   LIG    1       -3.643  -0.789   0.258  0.00  0.00    +0.024 A 
ATOM     17  C   LIG    1       -3.610  -2.179   0.357  0.00  0.00    +0.029 A 
ATOM     18  C   LIG    1       -2.391  -2.855   0.340  0.00  0.00    +0.024 A 
ATOM     19  C   LIG    1       -1.224  -2.157   0.226  0.00  0.00    +0.013 A 
BRANCH  17  20
ATOM     20  N   LIG    1       -4.795  -2.892   0.473  0.00  0.00    -0.336 N 
ATOM     21  C   LIG    1       -6.077  -2.184   0.492  0.00  0.00    +0.129 C 
ATOM     22  C   LIG    1       -4.763  -4.353   0.577  0.00  0.00    +0.129 C 
ENDBRANCH  17  20
ENDBRANCH  12  14
ENDBRANCH   1  12
TORSDOF 5
