REMARK  Name = ZINC01538857
REMARK                            x       y       z     vdW  Elec       q    Type
REMARK                         _______ _______ _______ _____ _____    ______ ____
ROOT
ATOM      1  C   LIG    1        3.121  -1.002  -7.408  0.00  0.00    +0.188 A 
ATOM      2  C   LIG    1        2.924  -0.049  -8.411  0.00  0.00    +0.231 A 
ATOM      3  C   LIG    1        3.489  -0.281  -9.665  0.00  0.00    +0.264 A 
ATOM      4  N   LIG    1        4.189  -1.391  -9.863  0.00  0.00    -0.187 NA
ATOM      5  C   LIG    1        4.355  -2.273  -8.888  0.00  0.00    +0.203 A 
ATOM      6  N   LIG    1        3.839  -2.087  -7.681  0.00  0.00    -0.204 NA
ENDROOT
BRANCH   5   7
ATOM      7  C   LIG    1        5.144  -3.501  -9.153  0.00  0.00    +0.198 A 
ATOM      8  N   LIG    1        5.670  -3.685 -10.356  0.00  0.00    -0.233 NA
ATOM      9  C   LIG    1        6.379  -4.768 -10.625  0.00  0.00    +0.115 A 
ATOM     10  C   LIG    1        6.569  -5.716  -9.631  0.00  0.00    +0.039 A 
ATOM     11  C   LIG    1        6.005  -5.492  -8.384  0.00  0.00    +0.115 A 
ATOM     12  N   LIG    1        5.312  -4.385  -8.179  0.00  0.00    -0.233 NA
ENDBRANCH   5   7
BRANCH   1  13
ATOM     13  N   LIG    1        2.580  -0.816  -6.143  0.00  0.00    -0.196 N 
ATOM     14  H   LIG    1        2.049  -0.010  -5.948  0.00  0.00    +0.175 HD
BRANCH  13  15
ATOM     15  S   LIG    1        2.826  -1.950  -4.962  0.00  0.00    +0.074 S 
ATOM     16  O   LIG    1        2.148  -3.127  -5.380  0.00  0.00    -0.150 OA
ATOM     17  O   LIG    1        4.217  -1.937  -4.669  0.00  0.00    -0.150 OA
BRANCH  15  21
ATOM     18  C   LIG    1        0.707  -0.490  -1.238  0.00  0.00    -0.042 A 
ATOM     19  C   LIG    1        0.036  -1.284  -2.148  0.00  0.00    +0.006 A 
ATOM     20  C   LIG    1        0.683  -1.730  -3.286  0.00  0.00    +0.029 A 
ATOM     21  C   LIG    1        2.001  -1.381  -3.513  0.00  0.00    +0.109 A 
ATOM     22  C   LIG    1        2.672  -0.586  -2.603  0.00  0.00    +0.029 A 
ATOM     23  C   LIG    1        2.024  -0.137  -1.467  0.00  0.00    +0.006 A 
BRANCH  18  25
ATOM     24  C   LIG    1       -0.019   1.526   0.010  0.00  0.00    +0.015 C 
ATOM     25  C   LIG    1        0.002  -0.004   0.002  0.00  0.00    -0.013 C 
ATOM     26  C   LIG    1       -1.433  -0.534   0.013  0.00  0.00    +0.015 C 
ATOM     27  C   LIG    1        0.742  -0.511   1.242  0.00  0.00    +0.015 C 
ENDBRANCH  18  25
ENDBRANCH  15  21
ENDBRANCH  13  15
ENDBRANCH   1  13
BRANCH   2  28
ATOM     28  O   LIG    1        2.200   1.077  -8.170  0.00  0.00    -0.443 OA
BRANCH  28  29
ATOM     29  C   LIG    1        2.859   2.174  -7.713  0.00  0.00    +0.170 A 
ATOM     30  C   LIG    1        4.229   2.127  -7.510  0.00  0.00    +0.050 A 
ATOM     31  C   LIG    1        4.898   3.244  -7.045  0.00  0.00    +0.004 A 
ATOM     32  C   LIG    1        4.203   4.409  -6.780  0.00  0.00    +0.004 A 
ATOM     33  C   LIG    1        2.836   4.463  -6.979  0.00  0.00    +0.049 A 
ATOM     34  C   LIG    1        2.160   3.349  -7.452  0.00  0.00    +0.162 A 
BRANCH  34  35
ATOM     35  O   LIG    1        0.817   3.402  -7.654  0.00  0.00    -0.491 OA
ATOM     36  C   LIG    1        0.165   4.641  -7.365  0.00  0.00    +0.277 C 
ENDBRANCH  34  35
ENDBRANCH  28  29
ENDBRANCH   2  28
BRANCH   3  37
ATOM     37  O   LIG    1        3.324   0.616 -10.670  0.00  0.00    -0.471 OA
BRANCH  37  38
ATOM     38  C   LIG    1        3.934   0.305 -11.924  0.00  0.00    +0.258 C 
BRANCH  38  39
ATOM     39  C   LIG    1        3.641   1.424 -12.925  0.00  0.00    +0.196 C 
BRANCH  39  40
ATOM     40  O   LIG    1        4.270   2.630 -12.488  0.00  0.00    -0.392 OA
ATOM     41  H   LIG    1        4.127   3.384 -13.077  0.00  0.00    +0.210 HD
ENDBRANCH  39  40
ENDBRANCH  38  39
ENDBRANCH  37  38
ENDBRANCH   3  37
TORSDOF 12
