REMARK  Name = ZINC01530862
REMARK                            x       y       z     vdW  Elec       q    Type
REMARK                         _______ _______ _______ _____ _____    ______ ____
ROOT
ATOM      1  C   LIG    1       -2.074  -0.647  -1.184  0.00  0.00    +0.057 A 
ATOM      2  C   LIG    1       -1.477  -0.311  -2.378  0.00  0.00    +0.070 A 
ATOM      3  C   LIG    1       -2.167  -0.442  -3.585  0.00  0.00    +0.123 A 
ATOM      4  C   LIG    1       -3.462  -0.910  -3.607  0.00  0.00    +0.055 A 
ATOM      5  C   LIG    1       -4.097  -1.261  -2.405  0.00  0.00    +0.006 A 
ATOM      6  C   LIG    1       -5.420  -1.743  -2.392  0.00  0.00    +0.011 A 
ATOM      7  C   LIG    1       -5.970  -2.082  -1.189  0.00  0.00    +0.020 A 
ATOM      8  C   LIG    1       -5.230  -1.929  -0.018  0.00  0.00    +0.111 A 
ATOM      9  N   LIG    1       -4.001  -1.474  -0.034  0.00  0.00    -0.253 NA
ATOM     10  C   LIG    1       -3.400  -1.136  -1.178  0.00  0.00    +0.092 A 
ENDROOT
BRANCH   1  11
ATOM     11  N   LIG    1       -1.372  -0.511   0.012  0.00  0.00    -0.340 N 
ATOM     12  H   LIG    1       -1.794  -0.752   0.852  0.00  0.00    +0.146 HD
BRANCH  11  14
ATOM     13  C   LIG    1       -0.019   1.526   0.010  0.00  0.00    +0.028 C 
ATOM     14  C   LIG    1        0.002  -0.004   0.002  0.00  0.00    +0.067 C 
BRANCH  14  15
ATOM     15  C   LIG    1        0.742  -0.511   1.242  0.00  0.00    +0.020 C 
BRANCH  15  16
ATOM     16  C   LIG    1        0.872  -2.034   1.171  0.00  0.00    -0.018 C 
BRANCH  16  17
ATOM     17  C   LIG    1        1.612  -2.541   2.410  0.00  0.00    -0.086 C 
BRANCH  17  18
ATOM     18  N   LIG    1        1.737  -4.003   2.342  0.00  0.00    +0.378 N 
ATOM     19  H   LIG    1        2.225  -4.337   3.160  0.00  0.00    -0.090 HD
ATOM     20  H   LIG    1        2.253  -4.258   1.514  0.00  0.00    -0.090 HD
ATOM     21  H   LIG    1        0.818  -4.417   2.307  0.00  0.00    -0.090 HD
ENDBRANCH  17  18
ENDBRANCH  16  17
ENDBRANCH  15  16
ENDBRANCH  14  15
ENDBRANCH  11  14
ENDBRANCH   1  11
BRANCH   3  22
ATOM     22  O   LIG    1       -1.556  -0.103  -4.750  0.00  0.00    -0.495 OA
ATOM     23  C   LIG    1       -2.315  -0.259  -5.950  0.00  0.00    +0.277 C 
ENDBRANCH   3  22
TORSDOF 7
