REMARK  Name = ZINC01489583
REMARK                            x       y       z     vdW  Elec       q    Type
REMARK                         _______ _______ _______ _____ _____    ______ ____
ROOT
ATOM      1  C   LIG    1        1.220  -4.019   1.741  0.00  0.00    +0.151 A 
ATOM      2  C   LIG    1        1.286  -5.103   2.650  0.00  0.00    +0.083 A 
ATOM      3  C   LIG    1        2.509  -5.811   2.768  0.00  0.00    +0.080 A 
ATOM      4  N   LIG    1        3.551  -5.428   2.017  0.00  0.00    -0.227 NA
ATOM      5  C   LIG    1        3.436  -4.408   1.183  0.00  0.00    +0.169 A 
ATOM      6  C   LIG    1        2.598  -6.886   3.662  0.00  0.00    +0.029 A 
ATOM      7  C   LIG    1        1.512  -7.242   4.407  0.00  0.00    +0.006 A 
ATOM      8  C   LIG    1        0.310  -6.554   4.298  0.00  0.00    +0.046 A 
ATOM      9  C   LIG    1        0.184  -5.488   3.428  0.00  0.00    +0.133 A 
ATOM     10  N   LIG    1        2.302  -3.720   1.039  0.00  0.00    -0.210 NA
ENDROOT
BRANCH   5  11
ATOM     11  C   LIG    1        4.607  -4.019   0.375  0.00  0.00    +0.056 A 
ATOM     12  C   LIG    1        5.859  -4.577   0.344  0.00  0.00    +0.019 A 
ATOM     13  C   LIG    1        6.802  -4.039  -0.500  0.00  0.00    +0.008 A 
ATOM     14  C   LIG    1        6.466  -2.974  -1.276  0.00  0.00    +0.046 A 
ATOM     15  S   LIG    1        4.761  -2.704  -0.823  0.00  0.00    -0.094 S 
ENDBRANCH   5  11
BRANCH   1  16
ATOM     16  N   LIG    1        0.056  -3.297   1.587  0.00  0.00    -0.238 N 
ATOM     17  H   LIG    1       -0.605  -3.284   2.298  0.00  0.00    +0.172 HD
BRANCH  16  22
ATOM     18  C   LIG    1       -0.414   0.495  -1.719  0.00  0.00    +0.049 C 
ATOM     19  C   LIG    1       -0.398  -0.890  -1.126  0.00  0.00    +0.018 C 
ATOM     20  C   LIG    1       -0.669  -2.039  -1.767  0.00  0.00    +0.078 C 
ATOM     21  C   LIG    1       -0.523  -3.127  -0.775  0.00  0.00    +0.263 C 
ATOM     22  N   LIG    1       -0.174  -2.583   0.404  0.00  0.00    -0.149 N 
ATOM     23  O   LIG    1       -0.690  -4.311  -0.990  0.00  0.00    -0.269 OA
ATOM     24  C   LIG    1       -0.074  -1.248   0.273  0.00  0.00    +0.266 C 
ATOM     25  O   LIG    1        0.229  -0.468   1.153  0.00  0.00    -0.268 OA
ENDBRANCH  16  22
ENDBRANCH   1  16
BRANCH   9  26
ATOM     26  O   LIG    1       -0.994  -4.821   3.327  0.00  0.00    -0.494 OA
ATOM     27  C   LIG    1       -2.069  -5.274   4.152  0.00  0.00    +0.277 C 
ENDBRANCH   9  26
TORSDOF 4
