REMARK  Name = ZINC01542008
REMARK                            x       y       z     vdW  Elec       q    Type
REMARK                         _______ _______ _______ _____ _____    ______ ____
ROOT
ATOM      1  C   LIG    1        0.994  -2.147   0.651  0.00  0.00    +0.037 A 
ATOM      2  C   LIG    1        0.005  -2.857  -0.031  0.00  0.00    +0.013 A 
ATOM      3  C   LIG    1        0.032  -4.237  -0.039  0.00  0.00    +0.004 A 
ATOM      4  C   LIG    1        1.031  -4.916   0.636  0.00  0.00    -0.047 A 
ATOM      5  C   LIG    1        2.011  -4.217   1.318  0.00  0.00    +0.004 A 
ATOM      6  C   LIG    1        1.998  -2.838   1.330  0.00  0.00    +0.013 A 
ENDROOT
BRANCH   1   9
ATOM      7  N   LIG    1        0.002  -0.004   0.002  0.00  0.00    -0.298 N 
ATOM      8  H   LIG    1       -0.684  -0.496  -0.476  0.00  0.00    +0.150 HD
ATOM      9  C   LIG    1        0.974  -0.668   0.659  0.00  0.00    +0.245 C 
ATOM     10  O   LIG    1        1.833  -0.052   1.258  0.00  0.00    -0.270 OA
BRANCH   7  11
ATOM     11  CA  LIG    1       -0.018   1.461   0.010  0.00  0.00    +0.186 C 
BRANCH  11  12
ATOM     12  C   LIG    1       -0.723   1.947   1.250  0.00  0.00    +0.326 C 
ATOM     13  O   LIG    1       -1.164   1.151   2.045  0.00  0.00    -0.249 OA
BRANCH  12  14
ATOM     14  OXT LIG    1       -0.862   3.264   1.471  0.00  0.00    -0.479 OA
ATOM     15  HXT LIG    1       -0.520   3.880   0.854  0.00  0.00    +0.295 HD
ENDBRANCH  12  14
ENDBRANCH  11  12
BRANCH  11  16
ATOM     16  C   LIG    1       -0.758   1.968  -1.230  0.00  0.00    +0.075 C 
BRANCH  16  18
ATOM     17  C   LIG    1       -0.296   0.473  -3.127  0.00  0.00    +0.019 C 
ATOM     18  C   LIG    1        0.014   1.586  -2.466  0.00  0.00    +0.032 C 
BRANCH  18  19
ATOM     19  C   LIG    1        1.109   2.443  -2.943  0.00  0.00    +0.332 C 
ATOM     20  O   LIG    1        1.731   2.135  -3.940  0.00  0.00    -0.246 OA
BRANCH  19  21
ATOM     21  O   LIG    1        1.423   3.570  -2.273  0.00  0.00    -0.477 OA
ATOM     22  H   LIG    1        0.943   3.807  -1.504  0.00  0.00    +0.295 HD
ENDBRANCH  19  21
ENDBRANCH  18  19
ENDBRANCH  16  18
ENDBRANCH  11  16
ENDBRANCH   7  11
ENDBRANCH   1   9
BRANCH   4  23
ATOM     23  C   LIG    1        1.051  -6.423   0.628  0.00  0.00    +0.041 C 
BRANCH  23  24
ATOM     24  C   LIG    1        0.242  -6.950   1.815  0.00  0.00    +0.061 C 
BRANCH  24  25
ATOM     25  C   LIG    1        0.262  -8.456   1.807  0.00  0.00    +0.061 A 
ATOM     26  C   LIG    1        1.326  -9.136   2.399  0.00  0.00    +0.136 A 
ATOM     27  N   LIG    1        1.365 -10.451   2.405  0.00  0.00    -0.232 NA
ATOM     28  C   LIG    1        0.374 -11.143   1.837  0.00  0.00    +0.185 A 
ATOM     29  C   LIG    1       -0.705 -10.447   1.236  0.00  0.00    +0.148 A 
ATOM     30  C   LIG    1       -1.772 -11.240   0.624  0.00  0.00    +0.149 A 
ATOM     31  N   LIG    1       -1.663 -12.560   0.669  0.00  0.00    -0.198 NA
ATOM     32  C   LIG    1       -0.621 -13.147   1.249  0.00  0.00    +0.216 A 
ATOM     33  N   LIG    1        0.366 -12.481   1.815  0.00  0.00    -0.193 NA
ATOM     34  N   LIG    1       -0.728  -9.118   1.246  0.00  0.00    -0.243 NA
BRANCH  30  35
ATOM     35  N   LIG    1       -2.853 -10.634   0.021  0.00  0.00    -0.341 N 
ATOM     36  H   LIG    1       -2.916  -9.667  -0.003  0.00  0.00    +0.144 HD
ATOM     37  H   LIG    1       -3.551 -11.176  -0.380  0.00  0.00    +0.144 HD
ENDBRANCH  30  35
BRANCH  32  38
ATOM     38  N   LIG    1       -0.570 -14.528   1.261  0.00  0.00    -0.327 N 
ATOM     39  H   LIG    1       -1.282 -15.043   0.851  0.00  0.00    +0.145 HD
ATOM     40  H   LIG    1        0.179 -14.982   1.678  0.00  0.00    +0.145 HD
ENDBRANCH  32  38
ENDBRANCH  24  25
ENDBRANCH  23  24
ENDBRANCH   4  23
TORSDOF 13
