REMARK  Name = ZINC01534779
REMARK                            x       y       z     vdW  Elec       q    Type
REMARK                         _______ _______ _______ _____ _____    ______ ____
ROOT
ATOM      1  C   LIG    1       -0.017  -2.829  -0.013  0.00  0.00    +0.343 C 
ATOM      2  O   LIG    1        1.062  -2.268  -0.020  0.00  0.00    -0.245 OA
ENDROOT
BRANCH   1   9
ATOM      3  C   LIG    1       -1.198  -0.636   0.010  0.00  0.00    +0.136 A 
ATOM      4  C   LIG    1       -2.371   0.098   0.019  0.00  0.00    +0.070 A 
ATOM      5  C   LIG    1       -3.597  -0.555   0.028  0.00  0.00    +0.047 A 
ATOM      6  C   LIG    1       -3.651  -1.949   0.027  0.00  0.00    +0.063 A 
ATOM      7 CL   LIG    1       -5.189  -2.754   0.038  0.00  0.00    -0.082 Cl
ATOM      8  C   LIG    1       -2.500  -2.683   0.018  0.00  0.00    +0.040 A 
ATOM      9  C   LIG    1       -1.257  -2.039   0.003  0.00  0.00    +0.102 A 
BRANCH   5  10
ATOM     10  N   LIG    1       -4.776   0.184   0.037  0.00  0.00    -0.357 N 
ATOM     11  H   LIG    1       -5.633  -0.270   0.043  0.00  0.00    +0.142 HD
ATOM     12  H   LIG    1       -4.740   1.153   0.038  0.00  0.00    +0.142 HD
ENDBRANCH   5  10
BRANCH   3  14
ATOM     13  C   LIG    1       -0.017   1.425   0.010  0.00  0.00    +0.277 C 
ATOM     14  O   LIG    1        0.002  -0.004   0.002  0.00  0.00    -0.494 OA
ENDBRANCH   3  14
ENDBRANCH   1   9
BRANCH   1  15
ATOM     15  O   LIG    1       -0.076  -4.176  -0.020  0.00  0.00    -0.461 OA
BRANCH  15  16
ATOM     16  C   LIG    1        1.168  -4.880  -0.035  0.00  0.00    +0.230 C 
BRANCH  16  17
ATOM     17  C   LIG    1        0.901  -6.387  -0.041  0.00  0.00    +0.023 C 
BRANCH  17  18
ATOM     18  C   LIG    1        2.233  -7.140  -0.058  0.00  0.00    -0.076 C 
BRANCH  18  19
ATOM     19  N   LIG    1        1.977  -8.587  -0.063  0.00  0.00    +0.380 N 
ATOM     20  H   LIG    1        1.375  -8.818  -0.840  0.00  0.00    -0.082 HD
ATOM     21  C   LIG    1        1.320  -8.970   1.192  0.00  0.00    -0.079 C 
ATOM     22  C   LIG    1        0.978 -10.461   1.158  0.00  0.00    -0.019 C 
ATOM     23  C   LIG    1        2.266 -11.271   0.986  0.00  0.00    -0.004 C 
ATOM     24  C   LIG    1        2.981 -10.811  -0.287  0.00  0.00    -0.019 C 
ATOM     25  C   LIG    1        3.249  -9.307  -0.200  0.00  0.00    -0.079 C 
ENDBRANCH  18  19
ENDBRANCH  17  18
ENDBRANCH  16  17
ENDBRANCH  15  16
ENDBRANCH   1  15
TORSDOF 8
