REMARK  Name = ZINC01530717
REMARK                            x       y       z     vdW  Elec       q    Type
REMARK                         _______ _______ _______ _____ _____    ______ ____
ROOT
ATOM      1  C   LIG    1       -0.084  -0.238   4.893  0.00  0.00    +0.258 C 
ENDROOT
BRANCH   1   2
ATOM      2  C   LIG    1        0.700  -0.626   3.637  0.00  0.00    +0.135 C 
BRANCH   2   3
ATOM      3  O   LIG    1        0.821  -2.048   3.571  0.00  0.00    -0.390 OA
ATOM      4  H   LIG    1       -0.025  -2.514   3.534  0.00  0.00    +0.210 HD
ENDBRANCH   2   3
BRANCH   2   5
ATOM      5  C   LIG    1       -0.040  -0.119   2.398  0.00  0.00    -0.047 C 
BRANCH   5   6
ATOM      6  N   LIG    1        0.713  -0.491   1.192  0.00  0.00    +0.382 N 
ATOM      7  H   LIG    1        1.632  -0.076   1.228  0.00  0.00    -0.085 HD
ATOM      8  H   LIG    1        0.798  -1.495   1.145  0.00  0.00    -0.085 HD
BRANCH   6  10
ATOM      9  C   LIG    1       -0.019   1.526   0.010  0.00  0.00    -0.014 C 
ATOM     10  C   LIG    1        0.002  -0.004   0.002  0.00  0.00    -0.078 C 
ATOM     11  C   LIG    1        0.718  -0.497  -1.257  0.00  0.00    -0.014 C 
ENDBRANCH   6  10
ENDBRANCH   5   6
ENDBRANCH   2   5
ENDBRANCH   1   2
BRANCH   1  12
ATOM     12  O   LIG    1        0.663  -0.608   6.054  0.00  0.00    -0.489 OA
BRANCH  12  13
ATOM     13  C   LIG    1        0.104  -0.332   7.261  0.00  0.00    +0.121 A 
ATOM     14  C   LIG    1       -1.140   0.277   7.327  0.00  0.00    +0.046 A 
ATOM     15  C   LIG    1       -1.707   0.556   8.556  0.00  0.00    +0.007 A 
ATOM     16  C   LIG    1       -1.034   0.230   9.719  0.00  0.00    -0.045 A 
ATOM     17  C   LIG    1        0.207  -0.377   9.656  0.00  0.00    +0.007 A 
ATOM     18  C   LIG    1        0.775  -0.664   8.430  0.00  0.00    +0.046 A 
BRANCH  16  19
ATOM     19  C   LIG    1       -1.654   0.536  11.058  0.00  0.00    +0.063 C 
BRANCH  19  20
ATOM     20  C   LIG    1       -2.498  -0.656  11.514  0.00  0.00    +0.164 C 
BRANCH  20  21
ATOM     21  O   LIG    1       -3.086  -0.366  12.784  0.00  0.00    -0.383 OA
ATOM     22  C   LIG    1       -3.899  -1.420  13.303  0.00  0.00    +0.193 C 
ENDBRANCH  20  21
ENDBRANCH  19  20
ENDBRANCH  16  19
ENDBRANCH  12  13
ENDBRANCH   1  12
TORSDOF 10
