REMARK  Name = ZINC01552001
REMARK                            x       y       z     vdW  Elec       q    Type
REMARK                         _______ _______ _______ _____ _____    ______ ____
ROOT
ATOM      1  C   LIG    1       -0.017   1.378   0.010  0.00  0.00    +0.005 A 
ATOM      2  C   LIG    1        1.169   2.087   0.002  0.00  0.00    +0.046 A 
ATOM      3  C   LIG    1        2.380   1.409  -0.013  0.00  0.00    +0.121 A 
ATOM      4  C   LIG    1        2.396   0.022  -0.021  0.00  0.00    +0.046 A 
ATOM      5  C   LIG    1        1.207  -0.681  -0.013  0.00  0.00    +0.005 A 
ATOM      6  C   LIG    1        0.002  -0.004   0.002  0.00  0.00    -0.064 A 
ENDROOT
BRANCH   3   7
ATOM      7  O   LIG    1        3.548   2.104  -0.021  0.00  0.00    -0.492 OA
BRANCH   7   8
ATOM      8  C   LIG    1        4.756   1.341  -0.036  0.00  0.00    +0.227 C 
BRANCH   8   9
ATOM      9  C   LIG    1        5.958   2.288  -0.043  0.00  0.00    +0.022 C 
BRANCH   9  10
ATOM     10  C   LIG    1        7.252   1.471  -0.060  0.00  0.00    -0.076 C 
BRANCH  10  11
ATOM     11  N   LIG    1        8.405   2.380  -0.067  0.00  0.00    +0.380 N 
ATOM     12  H   LIG    1        8.339   3.011   0.718  0.00  0.00    -0.082 HD
ATOM     13  C   LIG    1        8.409   3.154  -1.314  0.00  0.00    -0.079 C 
ATOM     14  C   LIG    1        9.561   4.160  -1.291  0.00  0.00    -0.019 C 
ATOM     15  C   LIG    1       10.887   3.406  -1.152  0.00  0.00    -0.004 C 
ATOM     16  C   LIG    1       10.843   2.545   0.113  0.00  0.00    -0.019 C 
ATOM     17  C   LIG    1        9.643   1.599   0.038  0.00  0.00    -0.079 C 
ENDBRANCH  10  11
ENDBRANCH   9  10
ENDBRANCH   8   9
ENDBRANCH   7   8
ENDBRANCH   3   7
BRANCH   6  18
ATOM     18  C   LIG    1       -1.293  -0.774   0.011  0.00  0.00    -0.043 C 
BRANCH  18  19
ATOM     19  N   LIG    1       -1.728  -1.017  -1.371  0.00  0.00    +0.382 N 
ATOM     20  H   LIG    1       -0.989  -1.481  -1.879  0.00  0.00    -0.081 HD
ATOM     21  C   LIG    1       -2.033   0.265  -2.019  0.00  0.00    -0.078 C 
ATOM     22  C   LIG    1       -2.408   0.024  -3.483  0.00  0.00    -0.019 C 
ATOM     23  C   LIG    1       -3.638  -0.886  -3.546  0.00  0.00    -0.004 C 
ATOM     24  C   LIG    1       -3.333  -2.191  -2.803  0.00  0.00    -0.019 C 
ATOM     25  C   LIG    1       -2.924  -1.868  -1.364  0.00  0.00    -0.078 C 
ENDBRANCH  18  19
ENDBRANCH   6  18
TORSDOF 7
