REMARK  Name = ZINC01614080
REMARK                            x       y       z     vdW  Elec       q    Type
REMARK                         _______ _______ _______ _____ _____    ______ ____
ROOT
ATOM      1  C   LIG    1       -1.336   2.143   0.411  0.00  0.00    +0.181 A 
ATOM      2  C   LIG    1       -0.188   1.408   0.410  0.00  0.00    +0.211 A 
ATOM      3  C   LIG    1        1.057   2.058   0.211  0.00  0.00    +0.238 A 
ATOM      4  C   LIG    1        1.038   3.517   0.021  0.00  0.00    +0.117 A 
ATOM      5  C   LIG    1       -0.202   4.181   0.046  0.00  0.00    +0.188 A 
ATOM      6  C   LIG    1       -0.243   5.559  -0.131  0.00  0.00    +0.209 A 
ATOM      7  C   LIG    1        0.933   6.269  -0.331  0.00  0.00    +0.211 A 
ATOM      8  C   LIG    1        2.162   5.612  -0.355  0.00  0.00    +0.208 A 
ATOM      9  C   LIG    1        2.220   4.239  -0.180  0.00  0.00    +0.180 A 
ATOM     10  O   LIG    1        2.105   1.431   0.199  0.00  0.00    -0.283 OA
ATOM     11  O   LIG    1       -1.338   3.476   0.242  0.00  0.00    -0.447 OA
ENDROOT
BRANCH   1  15
ATOM     12  C   LIG    1       -5.040   0.144   0.986  0.00  0.00    +0.162 A 
ATOM     13  C   LIG    1       -4.125  -0.343   0.063  0.00  0.00    +0.050 A 
ATOM     14  C   LIG    1       -2.923   0.303  -0.127  0.00  0.00    +0.015 A 
ATOM     15  C   LIG    1       -2.622   1.451   0.612  0.00  0.00    +0.025 A 
ATOM     16  C   LIG    1       -3.541   1.938   1.546  0.00  0.00    +0.061 A 
ATOM     17  C   LIG    1       -4.747   1.288   1.726  0.00  0.00    +0.162 A 
BRANCH  12  19
ATOM     18  C   LIG    1       -6.460  -1.664   0.378  0.00  0.00    +0.277 C 
ATOM     19  O   LIG    1       -6.224  -0.497   1.169  0.00  0.00    -0.491 OA
ENDBRANCH  12  19
BRANCH  17  20
ATOM     20  O   LIG    1       -5.646   1.761   2.630  0.00  0.00    -0.491 OA
ATOM     21  C   LIG    1       -5.280   2.938   3.354  0.00  0.00    +0.277 C 
ENDBRANCH  17  20
ENDBRANCH   1  15
BRANCH   2  22
ATOM     22  O   LIG    1       -0.237   0.060   0.591  0.00  0.00    -0.488 OA
ATOM     23  C   LIG    1       -0.023  -0.424   1.919  0.00  0.00    +0.277 C 
ENDBRANCH   2  22
BRANCH   6  24
ATOM     24  O   LIG    1       -1.437   6.213  -0.108  0.00  0.00    -0.488 OA
ATOM     25  C   LIG    1       -1.894   6.686   1.161  0.00  0.00    +0.277 C 
ENDBRANCH   6  24
BRANCH   7  26
ATOM     26  O   LIG    1        0.886   7.616  -0.503  0.00  0.00    -0.488 OA
ATOM     27  C   LIG    1        0.746   8.094  -1.843  0.00  0.00    +0.277 C 
ENDBRANCH   7  26
BRANCH   8  28
ATOM     28  O   LIG    1        3.307   6.321  -0.551  0.00  0.00    -0.488 OA
ATOM     29  C   LIG    1        3.971   6.817   0.613  0.00  0.00    +0.277 C 
ENDBRANCH   8  28
BRANCH   9  30
ATOM     30  O   LIG    1        3.418   3.597  -0.204  0.00  0.00    -0.491 OA
ATOM     31  C   LIG    1        3.876   3.125  -1.473  0.00  0.00    +0.277 C 
ENDBRANCH   9  30
TORSDOF 8
