REMARK  Name = ZINC01531865
REMARK                            x       y       z     vdW  Elec       q    Type
REMARK                         _______ _______ _______ _____ _____    ______ ____
ROOT
ATOM      1  C   LIG    1        3.757  -8.413   2.610  0.00  0.00    +0.043 C 
ENDROOT
BRANCH   1   2
ATOM      2  C   LIG    1        5.069  -9.149   2.707  0.00  0.00    -0.043 A 
ATOM      3  C   LIG    1        5.764  -9.473   1.557  0.00  0.00    +0.007 A 
ATOM      4  C   LIG    1        6.968 -10.149   1.641  0.00  0.00    +0.049 A 
ATOM      5  C   LIG    1        7.479 -10.502   2.880  0.00  0.00    +0.158 A 
ATOM      6  C   LIG    1        6.779 -10.175   4.037  0.00  0.00    +0.162 A 
ATOM      7  C   LIG    1        5.576  -9.494   3.946  0.00  0.00    +0.053 A 
BRANCH   5   8
ATOM      8  O   LIG    1        8.662 -11.167   2.964  0.00  0.00    -0.503 OA
ATOM      9  H   LIG    1        9.435 -10.589   3.031  0.00  0.00    +0.292 HD
ENDBRANCH   5   8
BRANCH   6  10
ATOM     10  O   LIG    1        7.277 -10.520   5.255  0.00  0.00    -0.491 OA
ATOM     11  C   LIG    1        6.504 -10.152   6.399  0.00  0.00    +0.277 C 
ENDBRANCH   6  10
ENDBRANCH   1   2
BRANCH   1  12
ATOM     12  C   LIG    1        4.016  -6.905   2.640  0.00  0.00    +0.083 C 
BRANCH  12  13
ATOM     13  C   LIG    1        2.704  -6.169   2.542  0.00  0.00    +0.156 C 
ATOM     14  O   LIG    1        1.665  -6.789   2.458  0.00  0.00    -0.293 OA
BRANCH  13  16
ATOM     15  C   LIG    1        1.523  -4.054   2.464  0.00  0.00    -0.023 C 
ATOM     16  C   LIG    1        2.684  -4.707   2.550  0.00  0.00    +0.042 C 
BRANCH  15  17
ATOM     17  C   LIG    1        1.503  -2.548   2.473  0.00  0.00    +0.027 C 
BRANCH  17  18
ATOM     18  C   LIG    1        0.763  -2.041   1.233  0.00  0.00    +0.004 C 
BRANCH  18  19
ATOM     19  C   LIG    1        0.742  -0.511   1.242  0.00  0.00    +0.000 C 
BRANCH  19  21
ATOM     20  C   LIG    1       -0.019   1.526   0.010  0.00  0.00    +0.004 C 
ATOM     21  C   LIG    1        0.002  -0.004   0.002  0.00  0.00    -0.003 C 
ENDBRANCH  19  21
ENDBRANCH  18  19
ENDBRANCH  17  18
ENDBRANCH  15  17
ENDBRANCH  13  16
ENDBRANCH  12  13
ENDBRANCH   1  12
TORSDOF 10
