REMARK  Name = ZINC01482680
REMARK                            x       y       z     vdW  Elec       q    Type
REMARK                         _______ _______ _______ _____ _____    ______ ____
ROOT
ATOM      1  C   LIG    1       -2.518  -1.597   2.998  0.00  0.00    +0.086 C 
ATOM      2  C   LIG    1       -2.778  -0.585   4.131  0.00  0.00    +0.086 C 
ATOM      3  S   LIG    1       -1.962   0.991   3.717  0.00  0.00    -0.118 S 
ATOM      4  C   LIG    1       -1.116   0.700   2.173  0.00  0.00    +0.035 C 
ATOM      5  C   LIG    1       -0.718   1.572   1.248  0.00  0.00    -0.025 C 
ATOM      6  S   LIG    1       -0.954  -1.084   2.201  0.00  0.00    -0.118 S 
ENDROOT
BRANCH   5   7
ATOM      7  C   LIG    1       -0.013   1.086   0.008  0.00  0.00    -0.057 C 
BRANCH   7   8
ATOM      8  N   LIG    1       -0.746   1.561  -1.179  0.00  0.00    +0.380 N 
ATOM      9  H   LIG    1       -1.694   1.168  -1.169  0.00  0.00    -0.090 HD
ATOM     10  H   LIG    1       -0.269   1.260  -2.027  0.00  0.00    -0.090 HD
ATOM     11  H   LIG    1       -0.807   2.578  -1.167  0.00  0.00    -0.090 HD
ENDBRANCH   7   8
ENDBRANCH   5   7
TORSDOF 2
