REMARK  Name = ZINC01657402
REMARK                            x       y       z     vdW  Elec       q    Type
REMARK                         _______ _______ _______ _____ _____    ______ ____
ROOT
ATOM      1  N   LIG    1       -2.927   0.722   1.401  0.00  0.00    -0.260 N 
ATOM      2  C   LIG    1       -2.563  -0.407   2.131  0.00  0.00    +0.048 A 
ATOM      3  C   LIG    1       -1.773  -1.500   1.799  0.00  0.00    +0.024 A 
ATOM      4  C   LIG    1       -1.554  -2.506   2.722  0.00  0.00    +0.002 A 
ATOM      5  C   LIG    1       -2.112  -2.438   3.988  0.00  0.00    +0.001 A 
ATOM      6  C   LIG    1       -2.896  -1.358   4.341  0.00  0.00    +0.014 A 
ATOM      7  C   LIG    1       -3.123  -0.338   3.417  0.00  0.00    +0.048 A 
ATOM      8  C   LIG    1       -3.892   0.919   3.475  0.00  0.00    +0.250 C 
ATOM      9  O   LIG    1       -4.533   1.353   4.410  0.00  0.00    -0.282 OA
ATOM     10  C   LIG    1       -3.709   1.543   2.123  0.00  0.00    +0.292 C 
ATOM     11  O   LIG    1       -4.181   2.596   1.749  0.00  0.00    -0.266 OA
ENDROOT
BRANCH   1  12
ATOM     12  C   LIG    1       -2.514   0.980   0.019  0.00  0.00    +0.149 C 
BRANCH  12  16
ATOM     13  C   LIG    1        1.156   3.165   0.008  0.00  0.00    +0.000 A 
ATOM     14  C   LIG    1        1.175   1.783   0.000  0.00  0.00    +0.000 A 
ATOM     15  C   LIG    1       -0.013   1.076   0.008  0.00  0.00    +0.005 A 
ATOM     16  C   LIG    1       -1.219   1.751   0.017  0.00  0.00    -0.030 A 
ATOM     17  C   LIG    1       -1.238   3.133   0.030  0.00  0.00    +0.005 A 
ATOM     18  C   LIG    1       -0.050   3.840   0.022  0.00  0.00    +0.000 A 
ENDBRANCH  12  16
ENDBRANCH   1  12
TORSDOF 2
