REMARK  Name = ZINC01494188
REMARK                            x       y       z     vdW  Elec       q    Type
REMARK                         _______ _______ _______ _____ _____    ______ ____
ROOT
ATOM      1  N   LIG    1       -5.184   4.219   7.593  0.00  0.00    -0.203 N 
ENDROOT
BRANCH   1   5
ATOM      2  C   LIG    1       -2.837   2.813   4.448  0.00  0.00    +0.129 A 
ATOM      3  C   LIG    1       -4.159   2.408   4.562  0.00  0.00    +0.048 A 
ATOM      4  C   LIG    1       -4.935   2.869   5.606  0.00  0.00    +0.028 A 
ATOM      5  C   LIG    1       -4.396   3.748   6.537  0.00  0.00    +0.051 A 
ATOM      6  C   LIG    1       -3.075   4.158   6.420  0.00  0.00    +0.028 A 
ATOM      7  C   LIG    1       -2.298   3.692   5.378  0.00  0.00    +0.048 A 
BRANCH   2   8
ATOM      8  O   LIG    1       -2.071   2.355   3.423  0.00  0.00    -0.452 OA
BRANCH   8  14
ATOM      9  C   LIG    1       -3.399   2.193   1.450  0.00  0.00    +0.162 A 
ATOM     10  C   LIG    1       -4.003   1.409   0.479  0.00  0.00    +0.049 A 
ATOM     11  C   LIG    1       -3.885   0.033   0.529  0.00  0.00    +0.004 A 
ATOM     12  C   LIG    1       -3.165  -0.566   1.547  0.00  0.00    +0.004 A 
ATOM     13  C   LIG    1       -2.560   0.210   2.518  0.00  0.00    +0.050 A 
ATOM     14  C   LIG    1       -2.670   1.591   2.471  0.00  0.00    +0.170 A 
BRANCH   9  16
ATOM     15  C   LIG    1       -4.272   4.096   0.321  0.00  0.00    +0.277 C 
ATOM     16  O   LIG    1       -3.514   3.547   1.401  0.00  0.00    -0.491 OA
ENDBRANCH   9  16
ENDBRANCH   8  14
ENDBRANCH   2   8
ENDBRANCH   1   5
BRANCH   1  17
ATOM     17  S   LIG    1       -5.832   3.154   8.683  0.00  0.00    +0.054 S 
ATOM     18  O   LIG    1       -6.058   1.965   7.938  0.00  0.00    -0.155 OA
ATOM     19  O   LIG    1       -6.917   3.855   9.275  0.00  0.00    -0.155 OA
BRANCH  17  20
ATOM     20  C   LIG    1       -4.520   2.884   9.907  0.00  0.00    +0.301 C 
BRANCH  20  21
ATOM     21  C   LIG    1       -5.072   2.062  11.073  0.00  0.00    +0.411 C 
ATOM     22  F   LIG    1       -6.132   2.752  11.670  0.00  0.00    -0.169 F 
ATOM     23  F   LIG    1       -4.061   1.853  12.017  0.00  0.00    -0.169 F 
ATOM     24  F   LIG    1       -5.529   0.827  10.598  0.00  0.00    -0.169 F 
ENDBRANCH  20  21
ENDBRANCH  17  20
ENDBRANCH   1  17
BRANCH   1  25
ATOM     25  C   LIG    1       -5.436   5.655   7.734  0.00  0.00    +0.167 C 
BRANCH  25  26
ATOM     26  C   LIG    1       -6.610   6.047   6.875  0.00  0.00    -0.010 A 
ATOM     27  C   LIG    1       -6.415   6.454   5.563  0.00  0.00    +0.008 A 
ATOM     28  C   LIG    1       -7.525   6.800   4.808  0.00  0.00    +0.020 A 
ATOM     29  C   LIG    1       -8.779   6.738   5.386  0.00  0.00    +0.111 A 
ATOM     30  N   LIG    1       -8.926   6.350   6.638  0.00  0.00    -0.263 NA
ATOM     31  C   LIG    1       -7.894   6.009   7.384  0.00  0.00    +0.116 A 
ENDBRANCH  25  26
ENDBRANCH   1  25
TORSDOF 9
