REMARK  Name = ZINC01590053
REMARK                            x       y       z     vdW  Elec       q    Type
REMARK                         _______ _______ _______ _____ _____    ______ ____
ROOT
ATOM      1  C   LIG    1       -0.763   3.101   1.151  0.00  0.00    +0.074 C 
ENDROOT
BRANCH   1   2
ATOM      2  C   LIG    1       -1.660   3.503   0.009  0.00  0.00    +0.214 C 
ATOM      3  N   LIG    1       -1.445   3.005  -1.225  0.00  0.00    -0.329 N 
ATOM      4  H   LIG    1       -2.066   3.203  -1.943  0.00  0.00    +0.145 HD
ATOM      5  H   LIG    1       -0.669   2.448  -1.395  0.00  0.00    +0.145 HD
ATOM      6  O   LIG    1       -2.576   4.274   0.200  0.00  0.00    -0.276 OA
ENDBRANCH   1   2
BRANCH   1   7
ATOM      7  C   LIG    1       -1.312   1.835   1.810  0.00  0.00    +0.009 C 
ATOM      8  C   LIG    1       -2.683   2.132   2.422  0.00  0.00    +0.004 C 
ENDBRANCH   1   7
BRANCH   1   9
ATOM      9  C   LIG    1       -0.711   4.231   2.181  0.00  0.00    +0.013 C 
BRANCH   9  10
ATOM     10  C   LIG    1        0.295   3.876   3.277  0.00  0.00    +0.000 C 
BRANCH  10  12
ATOM     11  C   LIG    1        1.353   4.652   5.404  0.00  0.00    +0.004 C 
ATOM     12  C   LIG    1        0.347   5.007   4.307  0.00  0.00    -0.003 C 
ENDBRANCH  10  12
ENDBRANCH   9  10
ENDBRANCH   1   9
TORSDOF 5
