REMARK  Name = ZINC01490030
REMARK                            x       y       z     vdW  Elec       q    Type
REMARK                         _______ _______ _______ _____ _____    ______ ____
ROOT
ATOM      1  S   LIG    1        2.090   0.390  -1.431  0.00  0.00    +0.059 S 
ATOM      2  O   LIG    1        2.031   1.808  -1.363  0.00  0.00    -0.153 OA
ATOM      3  O   LIG    1        2.584  -0.298  -2.572  0.00  0.00    -0.153 OA
ENDROOT
BRANCH   1   4
ATOM      4  C   LIG    1        3.063  -0.141  -0.062  0.00  0.00    +0.106 A 
ATOM      5  C   LIG    1        3.026   0.566   1.127  0.00  0.00    +0.032 A 
ATOM      6  C   LIG    1        3.789   0.152   2.201  0.00  0.00    +0.048 A 
ATOM      7  C   LIG    1        4.593  -0.973   2.088  0.00  0.00    +0.129 A 
ATOM      8  C   LIG    1        4.628  -1.681   0.895  0.00  0.00    +0.048 A 
ATOM      9  C   LIG    1        3.859  -1.266  -0.175  0.00  0.00    +0.032 A 
BRANCH   7  10
ATOM     10  O   LIG    1        5.344  -1.382   3.144  0.00  0.00    -0.456 OA
BRANCH  10  11
ATOM     11  C   LIG    1        5.198  -0.724   4.324  0.00  0.00    +0.129 A 
ATOM     12  C   LIG    1        4.099  -0.980   5.130  0.00  0.00    +0.049 A 
ATOM     13  C   LIG    1        3.952  -0.310   6.330  0.00  0.00    +0.042 A 
ATOM     14  C   LIG    1        4.901   0.616   6.727  0.00  0.00    +0.124 A 
ATOM     15  F   LIG    1        4.756   1.270   7.900  0.00  0.00    -0.205 F 
ATOM     16  C   LIG    1        5.999   0.872   5.924  0.00  0.00    +0.042 A 
ATOM     17  C   LIG    1        6.151   0.201   4.726  0.00  0.00    +0.049 A 
ENDBRANCH  10  11
ENDBRANCH   7  10
ENDBRANCH   1   4
BRANCH   1  18
ATOM     18  N   LIG    1        0.548  -0.160  -1.178  0.00  0.00    -0.175 NA
ATOM     19  H   LIG    1       -0.168   0.469  -0.998  0.00  0.00    +0.149 HD
BRANCH  18  21
ATOM     20  C   LIG    1        1.243  -2.339  -0.313  0.00  0.00    +0.039 C 
ATOM     21  C   LIG    1        0.266  -1.597  -1.226  0.00  0.00    +0.112 C 
ATOM     22  C   LIG    1        0.426  -2.100  -2.662  0.00  0.00    +0.039 C 
BRANCH  21  23
ATOM     23  C   LIG    1       -1.145  -1.847  -0.761  0.00  0.00    +0.257 C 
ATOM     24  N   LIG    1       -1.679  -1.085   0.215  0.00  0.00    -0.196 N 
ATOM     25  H   LIG    1       -1.154  -0.375   0.617  0.00  0.00    +0.182 HD
ATOM     26  O   LIG    1       -1.801  -2.735  -1.264  0.00  0.00    -0.272 OA
BRANCH  24  27
ATOM     27  O   LIG    1       -3.005  -1.320   0.652  0.00  0.00    -0.295 OA
ATOM     28  H   LIG    1       -3.299  -0.724   1.354  0.00  0.00    +0.241 HD
ENDBRANCH  24  27
ENDBRANCH  21  23
ENDBRANCH  18  21
ENDBRANCH   1  18
TORSDOF 7
