REMARK  Name = ZINC01442802
REMARK                            x       y       z     vdW  Elec       q    Type
REMARK                         _______ _______ _______ _____ _____    ______ ____
ROOT
ATOM      1  C   LIG    1        1.743   3.595   0.014  0.00  0.00    +0.159 C 
ENDROOT
BRANCH   1   4
ATOM      2  C   LIG    1       -0.503   0.767  -1.081  0.00  0.00    +0.020 A 
ATOM      3  C   LIG    1        0.632   1.447  -0.663  0.00  0.00    +0.007 A 
ATOM      4  C   LIG    1        0.538   2.812  -0.440  0.00  0.00    -0.018 A 
ATOM      5  C   LIG    1       -0.674   3.446  -0.640  0.00  0.00    +0.114 A 
ATOM      6  N   LIG    1       -1.732   2.767  -1.037  0.00  0.00    -0.263 NA
ATOM      7  C   LIG    1       -1.679   1.469  -1.264  0.00  0.00    +0.111 A 
ENDBRANCH   1   4
BRANCH   1   8
ATOM      8  C   LIG    1        2.496   4.102  -1.189  0.00  0.00    +0.238 C 
ATOM      9  N   LIG    1        2.009   3.796  -2.371  0.00  0.00    -0.292 N 
ATOM     10  H   LIG    1        1.151   3.236  -2.444  0.00  0.00    +0.301 HD
ATOM     11  H   LIG    1        2.483   4.116  -3.216  0.00  0.00    +0.301 HD
BRANCH   8  12
ATOM     12  N   LIG    1        3.635   4.845  -1.021  0.00  0.00    -0.254 N 
ATOM     13  H   LIG    1        4.120   5.171  -1.796  0.00  0.00    +0.288 HD
ATOM     14  H   LIG    1        3.956   5.045  -0.128  0.00  0.00    +0.288 HD
ENDBRANCH   8  12
ENDBRANCH   1   8
TORSDOF 3
