REMARK  Name = ZINC01539711
REMARK                            x       y       z     vdW  Elec       q    Type
REMARK                         _______ _______ _______ _____ _____    ______ ____
ROOT
ATOM      1  C   UNK A  0        1.014  -2.070  -1.230  0.00  0.00    +0.165 C 
ENDROOT
BRANCH   1   2
ATOM      2  C   UNK A  0        1.188  -3.252  -0.311  0.00  0.00    +0.232 C 
ATOM      3  N   TRP A  1        2.398  -3.830  -0.179  0.00  0.00    -0.304 N 
ATOM      4  H   TRP A  1        3.172  -3.440  -0.615  0.00  0.00    +0.149 HD
ATOM      5  O   UNK A  0        0.239  -3.683   0.309  0.00  0.00    -0.274 OA
BRANCH   3   6
ATOM      6  CA  TRP A  1        2.545  -5.047   0.623  0.00  0.00    +0.140 C 
BRANCH   6   7
ATOM      7  C   TRP A  1        2.702  -4.676   2.075  0.00  0.00    +0.245 C 
ATOM      8  O   TRP A  1        2.693  -3.514   2.406  0.00  0.00    -0.299 OA
ENDBRANCH   6   7
BRANCH   6   9
ATOM      9  CB  TRP A  1        3.781  -5.819   0.157  0.00  0.00    +0.067 C 
BRANCH   9  10
ATOM     10  CG  TRP A  1        3.557  -6.326  -1.244  0.00  0.00    -0.020 A 
ATOM     11  CD1 TRP A  1        3.082  -7.533  -1.590  0.00  0.00    +0.087 A 
ATOM     12  NE1 TRP A  1        3.017  -7.636  -2.953  0.00  0.00    -0.360 N 
ATOM     13  CE2 TRP A  1        3.460  -6.468  -3.532  0.00  0.00    +0.047 A 
ATOM     14  CZ2 TRP A  1        3.600  -6.046  -4.850  0.00  0.00    +0.026 A 
ATOM     15  CH2 TRP A  1        4.070  -4.778  -5.116  0.00  0.00    +0.002 A 
ATOM     16  CZ3 TRP A  1        4.420  -3.921  -4.081  0.00  0.00    +0.001 A 
ATOM     17  CE3 TRP A  1        4.295  -4.318  -2.779  0.00  0.00    +0.010 A 
ATOM     18  HE1 TRP A  1        2.705  -8.415  -3.438  0.00  0.00    +0.165 HD
ATOM     19  CD2 TRP A  1        3.812  -5.594  -2.487  0.00  0.00    +0.003 A 
ENDBRANCH   9  10
ENDBRANCH   6   9
ENDBRANCH   3   6
ENDBRANCH   1   2
BRANCH   1  20
ATOM     20  C   UNK A  0        1.556  -0.811  -0.550  0.00  0.00    +0.013 C 
ATOM     21  C   UNK A  0        1.445   0.375  -1.509  0.00  0.00    +0.009 C 
BRANCH  20  23
ATOM     22  C   UNK A  0        1.362   0.660   1.460  0.00  0.00    +0.004 C 
ATOM     23  C   UNK A  0        0.743  -0.523   0.714  0.00  0.00    +0.002 C 
ENDBRANCH  20  23
ENDBRANCH   1  20
BRANCH   1  24
ATOM     24  N   UNK A  0       -0.409  -1.889  -1.528  0.00  0.00    -0.178 NA
ATOM     25  H   UNK A  0       -0.969  -1.373  -0.926  0.00  0.00    +0.149 HD
BRANCH  24  26
ATOM     26  S   UNK A  0       -1.062  -2.563  -2.893  0.00  0.00    +0.060 S 
ATOM     27  O   UNK A  0       -2.436  -2.204  -2.906  0.00  0.00    -0.153 OA
ATOM     28  O   UNK A  0       -0.628  -3.916  -2.924  0.00  0.00    -0.153 OA
BRANCH  26  29
ATOM     29  C   UNK A  0       -0.318  -1.764  -4.276  0.00  0.00    +0.113 A 
ATOM     30  C   UNK A  0        0.467  -2.471  -5.134  0.00  0.00    +0.029 A 
ATOM     31  C   UNK A  0        1.063  -1.856  -6.233  0.00  0.00    +0.003 A 
ATOM     32  C   UNK A  0        0.878  -0.530  -6.480  0.00  0.00    +0.008 A 
ATOM     33  C   UNK A  0        0.074   0.233  -5.616  0.00  0.00    -0.016 A 
ATOM     34  C   UNK A  0       -0.139   1.604  -5.838  0.00  0.00    +0.008 A 
ATOM     35  C   UNK A  0       -0.939   2.307  -4.990  0.00  0.00    +0.001 A 
ATOM     36  C   UNK A  0       -1.536   1.692  -3.891  0.00  0.00    +0.001 A 
ATOM     37  C   UNK A  0       -1.346   0.367  -3.641  0.00  0.00    +0.010 A 
ATOM     38  C   UNK A  0       -0.537  -0.394  -4.501  0.00  0.00    +0.008 A 
ENDBRANCH  26  29
ENDBRANCH  24  26
ENDBRANCH   1  24
TORSDOF 10
