REMARK  Name = ZINC01537824
REMARK                            x       y       z     vdW  Elec       q    Type
REMARK                         _______ _______ _______ _____ _____    ______ ____
ROOT
ATOM      1  C   LIG    1       -7.071  -9.273   1.670  0.00  0.00    +0.068 C 
ATOM      2  C   LIG    1       -6.064  -8.662   0.730  0.00  0.00    +0.066 A 
ATOM      3  C   LIG    1       -6.117  -8.679  -0.650  0.00  0.00    +0.088 A 
ATOM      4  C   LIG    1       -7.023  -9.208  -1.588  0.00  0.00    +0.033 A 
ATOM      5  C   LIG    1       -6.771  -9.044  -2.914  0.00  0.00    +0.051 A 
ATOM      6  C   LIG    1       -5.618  -8.352  -3.333  0.00  0.00    +0.159 A 
ATOM      7  N   LIG    1       -4.772  -7.858  -2.464  0.00  0.00    -0.147 NA
ATOM      8  N   LIG    1       -4.994  -8.005  -1.092  0.00  0.00    -0.215 N 
ATOM      9  C   LIG    1       -4.316  -7.613   0.002  0.00  0.00    +0.132 A 
ATOM     10  N   LIG    1       -4.954  -8.011   1.077  0.00  0.00    -0.235 NA
ENDROOT
BRANCH   6  11
ATOM     11  N   LIG    1       -5.372  -8.191  -4.701  0.00  0.00    -0.289 N 
ATOM     12  C   LIG    1       -4.301  -7.546  -5.267  0.00  0.00    +0.114 A 
ATOM     13  C   LIG    1       -4.459  -7.627  -6.601  0.00  0.00    +0.130 A 
ATOM     14  N   LIG    1       -5.592  -8.300  -6.850  0.00  0.00    -0.244 NA
ATOM     15  C   LIG    1       -6.145  -8.648  -5.721  0.00  0.00    +0.205 A 
ENDBRANCH   6  11
BRANCH   9  16
ATOM     16  C   LIG    1       -3.022  -6.842  -0.006  0.00  0.00    +0.076 C 
BRANCH  16  17
ATOM     17  C   LIG    1       -3.322  -5.342   0.005  0.00  0.00    +0.008 C 
BRANCH  17  18
ATOM     18  C   LIG    1       -2.007  -4.559  -0.003  0.00  0.00    +0.000 C 
BRANCH  18  19
ATOM     19  C   LIG    1       -2.307  -3.058   0.008  0.00  0.00    +0.000 C 
BRANCH  19  20
ATOM     20  C   LIG    1       -0.993  -2.276  -0.001  0.00  0.00    +0.008 C 
BRANCH  20  21
ATOM     21  C   LIG    1       -1.293  -0.775   0.010  0.00  0.00    +0.079 C 
BRANCH  21  22
ATOM     22  C   LIG    1        0.002  -0.004   0.002  0.00  0.00    +0.163 C 
ATOM     23  O   LIG    1        1.060  -0.596  -0.011  0.00  0.00    -0.292 OA
BRANCH  22  24
ATOM     24  C   LIG    1       -0.018   1.467   0.010  0.00  0.00    +0.017 A 
ATOM     25  C   LIG    1       -1.236   2.154   0.020  0.00  0.00    +0.011 A 
ATOM     26  C   LIG    1       -1.247   3.533   0.033  0.00  0.00    +0.001 A 
ATOM     27  C   LIG    1       -0.055   4.237   0.026  0.00  0.00    +0.000 A 
ATOM     28  C   LIG    1        1.154   3.565   0.010  0.00  0.00    +0.001 A 
ATOM     29  C   LIG    1        1.181   2.187   0.003  0.00  0.00    +0.011 A 
ENDBRANCH  22  24
ENDBRANCH  21  22
ENDBRANCH  20  21
ENDBRANCH  19  20
ENDBRANCH  18  19
ENDBRANCH  17  18
ENDBRANCH  16  17
ENDBRANCH   9  16
TORSDOF 9
