REMARK  Name = ZINC01661760
REMARK                            x       y       z     vdW  Elec       q    Type
REMARK                         _______ _______ _______ _____ _____    ______ ____
ROOT
ATOM      1  C   LIG    1        3.991  -3.286  -0.058  0.00  0.00    +0.159 C 
ATOM      2  C   LIG    1        5.441  -2.859  -0.098  0.00  0.00    -0.006 A 
ATOM      3  C   LIG    1        6.179  -2.135  -1.007  0.00  0.00    +0.036 A 
ATOM      4  C   LIG    1        7.521  -1.895  -0.770  0.00  0.00    +0.117 A 
ATOM      5  C   LIG    1        8.116  -2.383   0.379  0.00  0.00    +0.031 A 
ATOM      6  C   LIG    1        7.378  -3.109   1.291  0.00  0.00    +0.025 A 
ATOM      7  C   LIG    1        6.026  -3.355   1.060  0.00  0.00    +0.038 A 
ATOM      8  N   LIG    1        5.083  -4.050   1.818  0.00  0.00    -0.284 N 
ATOM      9  H   LIG    1        5.280  -4.478   2.666  0.00  0.00    +0.155 HD
ATOM     10  C   LIG    1        3.871  -4.058   1.239  0.00  0.00    +0.231 C 
ATOM     11  O   LIG    1        2.868  -4.584   1.673  0.00  0.00    -0.274 OA
ENDROOT
BRANCH   1  17
ATOM     12  C   LIG    1       -0.017   1.389   0.010  0.00  0.00    +0.001 A 
ATOM     13  C   LIG    1        1.167   2.094   0.002  0.00  0.00    +0.002 A 
ATOM     14  C   LIG    1        2.388   1.430  -0.013  0.00  0.00    +0.028 A 
ATOM     15  C   LIG    1        2.424   0.040  -0.022  0.00  0.00    +0.075 A 
ATOM     16  N   LIG    1        3.469  -0.848  -0.038  0.00  0.00    -0.247 NA
ATOM     17  C   LIG    1        3.086  -2.081  -0.041  0.00  0.00    +0.105 C 
ATOM     18  C   LIG    1        1.596  -2.109  -0.026  0.00  0.00    +0.210 C 
ATOM     19  O   LIG    1        0.867  -3.079  -0.025  0.00  0.00    -0.285 OA
ATOM     20  C   LIG    1        1.210  -0.672  -0.014  0.00  0.00    +0.049 A 
ATOM     21  C   LIG    1        0.002  -0.004   0.002  0.00  0.00    +0.014 A 
ENDBRANCH   1  17
BRANCH   4  22
ATOM     22  S   LIG    1        8.471  -0.969  -1.931  0.00  0.00    +0.110 S 
ATOM     23  O   LIG    1        7.888  -1.210  -3.242  0.00  0.00    -0.142 OA
ATOM     24  O   LIG    1        9.838  -1.460  -1.846  0.00  0.00    -0.142 OA
BRANCH  22  25
ATOM     25  O   LIG    1        8.370   0.428  -1.540  0.00  0.00    -0.250 OA
ATOM     26  H   LIG    1        8.769   0.548  -0.664  0.00  0.00    +0.245 HD
ENDBRANCH  22  25
ENDBRANCH   4  22
TORSDOF 3
