REMARK  Name = ZINC01642250
REMARK                            x       y       z     vdW  Elec       q    Type
REMARK                         _______ _______ _______ _____ _____    ______ ____
ROOT
ATOM      1  C   LIG    1       -1.197   2.125   0.019  0.00  0.00    +0.092 C 
ATOM      2  C   LIG    1       -0.018   1.465   0.010  0.00  0.00    +0.015 C 
ENDROOT
BRANCH   2   3
ATOM      3  C   LIG    1        0.002  -0.004   0.002  0.00  0.00    -0.021 A 
ATOM      4  C   LIG    1       -1.199  -0.722   0.010  0.00  0.00    +0.012 A 
ATOM      5  C   LIG    1       -1.178  -2.100   0.002  0.00  0.00    +0.050 A 
ATOM      6  C   LIG    1        0.034  -2.779  -0.014  0.00  0.00    +0.158 A 
ATOM      7  C   LIG    1        1.235  -2.070  -0.022  0.00  0.00    +0.159 A 
ATOM      8  C   LIG    1        1.222  -0.689  -0.019  0.00  0.00    +0.057 A 
BRANCH   6   9
ATOM      9  O   LIG    1        0.048  -4.137  -0.021  0.00  0.00    -0.503 OA
ATOM     10  H   LIG    1        0.044  -4.525  -0.907  0.00  0.00    +0.292 HD
ENDBRANCH   6   9
BRANCH   7  11
ATOM     11  O   LIG    1        2.418  -2.740  -0.037  0.00  0.00    -0.503 OA
ATOM     12  H   LIG    1        2.752  -2.928  -0.925  0.00  0.00    +0.292 HD
ENDBRANCH   7  11
ENDBRANCH   2   3
BRANCH   1  13
ATOM     13  C   LIG    1       -1.216   3.542   0.027  0.00  0.00    +0.332 C 
ATOM     14  O   LIG    1       -0.171   4.165   0.025  0.00  0.00    -0.246 OA
BRANCH  13  15
ATOM     15  O   LIG    1       -2.394   4.201   0.036  0.00  0.00    -0.457 OA
BRANCH  15  16
ATOM     16  C   LIG    1       -2.338   5.629   0.044  0.00  0.00    +0.268 C 
BRANCH  16  20
ATOM     17  C   LIG    1       -6.307   7.208   0.071  0.00  0.00    +0.000 A 
ATOM     18  C   LIG    1       -5.659   6.946   1.264  0.00  0.00    +0.000 A 
ATOM     19  C   LIG    1       -4.375   6.435   1.255  0.00  0.00    +0.007 A 
ATOM     20  C   LIG    1       -3.739   6.186   0.053  0.00  0.00    -0.010 A 
ATOM     21  C   LIG    1       -4.384   6.453  -1.139  0.00  0.00    +0.007 A 
ATOM     22  C   LIG    1       -5.671   6.959  -1.130  0.00  0.00    +0.000 A 
ENDBRANCH  16  20
ENDBRANCH  15  16
ENDBRANCH  13  15
ENDBRANCH   1  13
TORSDOF 7
