REMARK  Name = ZINC01666798
REMARK                            x       y       z     vdW  Elec       q    Type
REMARK                         _______ _______ _______ _____ _____    ______ ____
ROOT
ATOM      1  C   LIG    1        1.208  -0.679  -0.013  0.00  0.00    -0.049 A 
ATOM      2  C   LIG    1        0.002  -0.004   0.002  0.00  0.00    +0.006 A 
ATOM      3  C   LIG    1       -0.017   1.378   0.010  0.00  0.00    +0.033 A 
ATOM      4  C   LIG    1        1.171   2.086   0.002  0.00  0.00    +0.122 A 
ATOM      5  C   LIG    1        2.377   1.411  -0.015  0.00  0.00    +0.033 A 
ATOM      6  C   LIG    1        2.396   0.029  -0.021  0.00  0.00    +0.006 A 
ENDROOT
BRANCH   4   7
ATOM      7  N   LIG    1        1.151   3.566   0.010  0.00  0.00    +0.006 N 
ATOM      8  O   LIG    1        0.088   4.160   0.023  0.00  0.00    -0.130 OA
BRANCH   7   9
ATOM      9  O   LIG    1        2.197   4.189   0.003  0.00  0.00    -0.396 OA
ATOM     10  H   LIG    1        3.015   3.732  -0.007  0.00  0.00    +0.329 HD
ENDBRANCH   7   9
ENDBRANCH   4   7
BRANCH   1  11
ATOM     11  C   LIG    1        1.229  -2.186  -0.021  0.00  0.00    +0.016 C 
BRANCH  11  12
ATOM     12  C   LIG    1        1.221  -2.689  -1.465  0.00  0.00    -0.078 C 
BRANCH  12  13
ATOM     13  N   LIG    1        1.242  -4.164  -1.464  0.00  0.00    +0.379 N 
ATOM     14  H   LIG    1        0.413  -4.513  -0.968  0.00  0.00    -0.086 HD
ATOM     15  H   LIG    1        2.089  -4.490  -0.985  0.00  0.00    -0.086 HD
BRANCH  13  16
ATOM     16  C   LIG    1        1.235  -4.678  -2.846  0.00  0.00    -0.083 C 
BRANCH  16  18
ATOM     17  C   LIG    1        1.249  -6.749  -4.244  0.00  0.00    +0.002 C 
ATOM     18  C   LIG    1        1.256  -6.207  -2.813  0.00  0.00    -0.022 C 
ENDBRANCH  16  18
ENDBRANCH  13  16
ENDBRANCH  12  13
ENDBRANCH  11  12
ENDBRANCH   1  11
TORSDOF 7
