REMARK  Name = ZINC01588038
REMARK                            x       y       z     vdW  Elec       q    Type
REMARK                         _______ _______ _______ _____ _____    ______ ____
ROOT
ATOM      1  C   LIG    1       -6.224   5.758   1.273  0.00  0.00    +0.048 C 
ATOM      2  C   LIG    1       -4.949   5.097   0.818  0.00  0.00    -0.005 A 
ATOM      3  C   LIG    1       -3.838   5.870   0.507  0.00  0.00    +0.120 A 
ATOM      4  C   LIG    1       -2.661   5.267   0.086  0.00  0.00    +0.046 A 
ATOM      5  C   LIG    1       -2.593   3.894  -0.033  0.00  0.00    +0.012 A 
ATOM      6  C   LIG    1       -3.708   3.117   0.273  0.00  0.00    -0.013 A 
ATOM      7  C   LIG    1       -3.663   1.644   0.134  0.00  0.00    -0.007 A 
ATOM      8  C   LIG    1       -2.439   0.968   0.019  0.00  0.00    -0.014 A 
ATOM      9  C   LIG    1       -2.428  -0.421  -0.100  0.00  0.00    +0.054 A 
ATOM     10  C   LIG    1       -3.623  -1.121  -0.099  0.00  0.00    +0.118 A 
ATOM     11  C   LIG    1       -4.834  -0.446  -0.002  0.00  0.00    +0.049 A 
ATOM     12  C   LIG    1       -4.859   0.930   0.105  0.00  0.00    -0.035 A 
ATOM     13  C   LIG    1       -6.174   1.658   0.181  0.00  0.00    +0.040 C 
ATOM     14  C   LIG    1       -6.068   2.876   1.094  0.00  0.00    +0.041 C 
ATOM     15  C   LIG    1       -4.885   3.724   0.711  0.00  0.00    -0.033 A 
ENDROOT
BRANCH   3  16
ATOM     16  O   LIG    1       -3.904   7.223   0.615  0.00  0.00    -0.506 OA
ATOM     17  H   LIG    1       -3.651   7.561   1.484  0.00  0.00    +0.292 HD
ENDBRANCH   3  16
BRANCH   8  18
ATOM     18  C   LIG    1       -1.171   1.724   0.017  0.00  0.00    +0.001 C 
ATOM     19  C   LIG    1       -0.205   1.397  -0.833  0.00  0.00    +0.009 C 
ENDBRANCH   8  18
BRANCH  10  20
ATOM     20  O   LIG    1       -3.612  -2.476  -0.200  0.00  0.00    -0.507 OA
ATOM     21  H   LIG    1       -3.643  -2.803  -1.110  0.00  0.00    +0.292 HD
ENDBRANCH  10  20
TORSDOF 3
