REMARK  Name = ZINC01530694
REMARK                            x       y       z     vdW  Elec       q    Type
REMARK                         _______ _______ _______ _____ _____    ______ ____
ROOT
ATOM      1  C   LIG    1        5.267   0.652  -5.300  0.00  0.00    -0.071 C 
ATOM      2  C   LIG    1        5.901   0.265  -6.638  0.00  0.00    -0.013 C 
ENDROOT
BRANCH   1   3
ATOM      3  N   LIG    1        4.725  -0.548  -4.649  0.00  0.00    +0.383 N 
ATOM      4  H   LIG    1        5.456  -1.238  -4.554  0.00  0.00    -0.085 HD
ATOM      5  H   LIG    1        4.371  -0.305  -3.737  0.00  0.00    -0.085 HD
BRANCH   3   6
ATOM      6  C   LIG    1        3.636  -1.099  -5.467  0.00  0.00    -0.041 C 
BRANCH   6   7
ATOM      7  C   LIG    1        2.980  -2.264  -4.724  0.00  0.00    +0.210 C 
BRANCH   7   8
ATOM      8  O   LIG    1        2.319  -1.772  -3.556  0.00  0.00    -0.490 OA
BRANCH   8  14
ATOM      9  C   LIG    1        1.191  -2.295  -1.522  0.00  0.00    +0.162 A 
ATOM     10  C   LIG    1        0.629  -3.239  -0.678  0.00  0.00    +0.049 A 
ATOM     11  C   LIG    1        0.650  -4.577  -1.026  0.00  0.00    +0.004 A 
ATOM     12  C   LIG    1        1.232  -4.976  -2.214  0.00  0.00    +0.004 A 
ATOM     13  C   LIG    1        1.794  -4.039  -3.061  0.00  0.00    +0.049 A 
ATOM     14  C   LIG    1        1.771  -2.696  -2.721  0.00  0.00    +0.162 A 
BRANCH   9  15
ATOM     15  O   LIG    1        1.170  -0.978  -1.182  0.00  0.00    -0.489 OA
BRANCH  15  17
ATOM     16  C   LIG    1        0.597   0.872   0.264  0.00  0.00    +0.048 C 
ATOM     17  C   LIG    1        0.648  -0.649   0.107  0.00  0.00    +0.226 C 
ENDBRANCH  15  17
ENDBRANCH   9  15
ENDBRANCH   8  14
ENDBRANCH   7   8
ENDBRANCH   6   7
ENDBRANCH   3   6
ENDBRANCH   1   3
BRANCH   1  18
ATOM     18  C   LIG    1        6.327   1.287  -4.398  0.00  0.00    +0.019 C 
BRANCH  18  19
ATOM     19  C   LIG    1        5.685   1.740  -3.111  0.00  0.00    -0.047 A 
ATOM     20  C   LIG    1        5.049   2.966  -3.052  0.00  0.00    +0.007 A 
ATOM     21  C   LIG    1        4.460   3.384  -1.874  0.00  0.00    +0.048 A 
ATOM     22  C   LIG    1        4.508   2.571  -0.750  0.00  0.00    +0.146 A 
ATOM     23  C   LIG    1        5.147   1.342  -0.812  0.00  0.00    +0.147 A 
ATOM     24  C   LIG    1        5.730   0.926  -1.995  0.00  0.00    +0.035 A 
BRANCH  23  25
ATOM     25  S   LIG    1        5.210   0.307   0.613  0.00  0.00    +0.059 S 
ATOM     26  O   LIG    1        5.934  -0.856   0.238  0.00  0.00    -0.153 OA
ATOM     27  O   LIG    1        3.888   0.248   1.130  0.00  0.00    -0.153 OA
BRANCH  25  28
ATOM     28  N   LIG    1        6.128   1.091   1.746  0.00  0.00    -0.203 NA
ATOM     29  H   LIG    1        6.284   0.681   2.612  0.00  0.00    +0.144 HD
ATOM     30  H   LIG    1        6.509   1.960   1.545  0.00  0.00    +0.144 HD
ENDBRANCH  25  28
ENDBRANCH  23  25
BRANCH  22  31
ATOM     31  O   LIG    1        3.931   2.980   0.410  0.00  0.00    -0.493 OA
ATOM     32  C   LIG    1        3.291   4.258   0.402  0.00  0.00    +0.277 C 
ENDBRANCH  22  31
ENDBRANCH  18  19
ENDBRANCH   1  18
TORSDOF 12
