REMARK  Name = ZINC01495983
REMARK                            x       y       z     vdW  Elec       q    Type
REMARK                         _______ _______ _______ _____ _____    ______ ____
ROOT
ATOM      1  C   LIG    1       -0.014   1.208   0.009  0.00  0.00    +0.161 C 
ATOM      2  O   LIG    1        0.002  -0.004   0.002  0.00  0.00    -0.292 OA
ENDROOT
BRANCH   1   6
ATOM      3  C   LIG    1       -3.716   3.279   0.038  0.00  0.00    +0.088 A 
ATOM      4  C   LIG    1       -3.702   1.895   0.030  0.00  0.00    +0.027 A 
ATOM      5  C   LIG    1       -2.502   1.215   0.021  0.00  0.00    +0.013 A 
ATOM      6  C   LIG    1       -1.299   1.927   0.019  0.00  0.00    +0.017 A 
ATOM      7  C   LIG    1       -1.322   3.325   0.032  0.00  0.00    +0.013 A 
ATOM      8  C   LIG    1       -2.529   3.991   0.036  0.00  0.00    +0.027 A 
BRANCH   3  10
ATOM      9  C   LIG    1       -5.653   4.357   1.806  0.00  0.00    +0.200 C 
ATOM     10  S   LIG    1       -5.254   4.139   0.049  0.00  0.00    -0.006 S 
ATOM     11  O   LIG    1       -6.176   3.242  -0.554  0.00  0.00    -0.170 OA
ATOM     12  O   LIG    1       -4.970   5.397  -0.548  0.00  0.00    -0.170 OA
ENDBRANCH   3  10
ENDBRANCH   1   6
BRANCH   1  13
ATOM     13  C   LIG    1        1.280   1.980   0.001  0.00  0.00    +0.061 C 
BRANCH  13  14
ATOM     14  C   LIG    1        2.457   1.001  -0.016  0.00  0.00    -0.071 C 
BRANCH  14  15
ATOM     15  N   LIG    1        3.717   1.772  -0.001  0.00  0.00    +0.380 N 
ATOM     16  H   LIG    1        3.687   2.445   0.774  0.00  0.00    -0.082 HD
ATOM     17  C   LIG    1        4.864   0.861   0.198  0.00  0.00    -0.079 C 
ATOM     18  C   LIG    1        6.142   1.693   0.329  0.00  0.00    -0.019 C 
ATOM     19  C   LIG    1        6.347   2.508  -0.951  0.00  0.00    -0.004 C 
ATOM     20  C   LIG    1        5.120   3.393  -1.185  0.00  0.00    -0.019 C 
ATOM     21  C   LIG    1        3.871   2.512  -1.272  0.00  0.00    -0.079 C 
ENDBRANCH  14  15
ENDBRANCH  13  14
ENDBRANCH   1  13
TORSDOF 5
