REMARK  Name = ZINC01532358
REMARK                            x       y       z     vdW  Elec       q    Type
REMARK                         _______ _______ _______ _____ _____    ______ ____
ROOT
ATOM      1  C   LIG    1       -0.512   1.700  -6.124  0.00  0.00    +0.250 A 
ATOM      2  C   LIG    1       -0.086   1.134  -7.322  0.00  0.00    +0.137 A 
ATOM      3  N   LIG    1       -0.826   1.370  -8.387  0.00  0.00    -0.187 NA
ATOM      4  S   LIG    1       -2.005   2.285  -7.880  0.00  0.00    +0.119 S 
ATOM      5  N   LIG    1       -1.613   2.417  -6.226  0.00  0.00    -0.154 NA
ENDROOT
BRANCH   2   6
ATOM      6  C   LIG    1        1.134   0.304  -7.396  0.00  0.00    -0.037 C 
ATOM      7  C   LIG    1        1.548  -0.098  -8.578  0.00  0.00    -0.025 C 
ATOM      8  C   LIG    1        2.775  -0.947  -8.763  0.00  0.00    +0.009 C 
ATOM      9  C   LIG    1        3.627  -0.908  -7.492  0.00  0.00    -0.075 C 
ATOM     10  N   LIG    1        2.741  -1.192  -6.345  0.00  0.00    +0.381 N 
ATOM     11  H   LIG    1        2.178  -2.025  -6.554  0.00  0.00    -0.082 HD
ATOM     12  C   LIG    1        3.548  -1.449  -5.130  0.00  0.00    -0.096 C 
ATOM     13  C   LIG    1        1.840  -0.046  -6.118  0.00  0.00    -0.041 C 
ENDBRANCH   2   6
BRANCH   1  14
ATOM     14  O   LIG    1        0.153   1.533  -4.951  0.00  0.00    -0.475 OA
BRANCH  14  15
ATOM     15  C   LIG    1       -0.393   2.176  -3.797  0.00  0.00    +0.231 C 
BRANCH  15  16
ATOM     16  C   LIG    1        0.486   1.875  -2.582  0.00  0.00    +0.041 C 
BRANCH  16  17
ATOM     17  C   LIG    1       -0.099   2.564  -1.347  0.00  0.00    +0.003 C 
BRANCH  17  18
ATOM     18  C   LIG    1        0.780   2.263  -0.131  0.00  0.00    -0.000 C 
BRANCH  18  20
ATOM     19  C   LIG    1        1.074   2.651   2.320  0.00  0.00    +0.004 C 
ATOM     20  C   LIG    1        0.195   2.952   1.104  0.00  0.00    -0.003 C 
ENDBRANCH  18  20
ENDBRANCH  17  18
ENDBRANCH  16  17
ENDBRANCH  15  16
ENDBRANCH  14  15
ENDBRANCH   1  14
TORSDOF 7
