REMARK  Name = ZINC01530751
REMARK                            x       y       z     vdW  Elec       q    Type
REMARK                         _______ _______ _______ _____ _____    ______ ____
ROOT
ATOM      1  C   LIG    1       -0.597   5.852  -6.081  0.00  0.00    +0.190 C 
ENDROOT
BRANCH   1   2
ATOM      2  C   LIG    1        0.109   7.101  -6.610  0.00  0.00    +0.036 C 
ATOM      3  C   LIG    1       -0.544   7.539  -7.923  0.00  0.00    +0.007 C 
ATOM      4  C   LIG    1        0.163   8.788  -8.453  0.00  0.00    +0.000 C 
ATOM      5  C   LIG    1        1.640   8.474  -8.698  0.00  0.00    +0.000 C 
ATOM      6  C   LIG    1        2.293   8.036  -7.385  0.00  0.00    +0.000 C 
ATOM      7  C   LIG    1        1.587   6.787  -6.856  0.00  0.00    +0.007 C 
ENDBRANCH   1   2
BRANCH   1   8
ATOM      8  C   LIG    1       -2.052   6.162  -5.839  0.00  0.00    -0.005 A 
ATOM      9  C   LIG    1       -2.438   7.444  -5.495  0.00  0.00    +0.007 A 
ATOM     10  C   LIG    1       -3.772   7.728  -5.274  0.00  0.00    +0.000 A 
ATOM     11  C   LIG    1       -4.721   6.730  -5.397  0.00  0.00    +0.000 A 
ATOM     12  C   LIG    1       -4.335   5.449  -5.742  0.00  0.00    +0.000 A 
ATOM     13  C   LIG    1       -3.001   5.165  -5.968  0.00  0.00    +0.007 A 
ENDBRANCH   1   8
BRANCH   1  14
ATOM     14  C   LIG    1        0.046   5.421  -4.788  0.00  0.00    +0.345 C 
ATOM     15  O   LIG    1        0.629   6.229  -4.105  0.00  0.00    -0.247 OA
BRANCH  14  16
ATOM     16  O   LIG    1       -0.029   4.140  -4.395  0.00  0.00    -0.449 OA
BRANCH  16  17
ATOM     17  C   LIG    1        0.604   3.802  -3.159  0.00  0.00    +0.320 C 
BRANCH  17  19
ATOM     18  C   LIG    1        0.275   1.221  -2.677  0.00  0.00    -0.083 C 
ATOM     19  C   LIG    1        0.421   2.366  -2.891  0.00  0.00    -0.060 C 
BRANCH  18  20
ATOM     20  C   LIG    1        0.092  -0.215  -2.408  0.00  0.00    +0.174 C 
BRANCH  20  21
ATOM     21  N   LIG    1        0.742  -0.562  -1.138  0.00  0.00    -0.292 NA
BRANCH  21  23
ATOM     22  C   LIG    1       -1.339  -0.947   0.094  0.00  0.00    +0.020 C 
ATOM     23  C   LIG    1       -0.061  -0.110   0.006  0.00  0.00    +0.082 C 
ENDBRANCH  21  23
BRANCH  21  24
ATOM     24  C   LIG    1        1.006  -2.005  -1.058  0.00  0.00    +0.082 C 
ATOM     25  C   LIG    1        1.897  -2.295   0.151  0.00  0.00    +0.020 C 
ENDBRANCH  21  24
ENDBRANCH  20  21
ENDBRANCH  18  20
ENDBRANCH  17  19
ENDBRANCH  16  17
ENDBRANCH  14  16
ENDBRANCH   1  14
BRANCH   1  26
ATOM     26  O   LIG    1       -0.487   4.800  -7.041  0.00  0.00    -0.373 OA
ATOM     27  H   LIG    1        0.423   4.547  -7.246  0.00  0.00    +0.211 HD
ENDBRANCH   1  26
TORSDOF 11
