REMARK  Name = ZINC01550221
REMARK                            x       y       z     vdW  Elec       q    Type
REMARK                         _______ _______ _______ _____ _____    ______ ____
ROOT
ATOM      1  C   LIG    1        5.081  -0.412   2.862  0.00  0.00    +0.052 A 
ATOM      2  C   LIG    1        4.921   0.228   4.084  0.00  0.00    +0.025 A 
ATOM      3  C   LIG    1        5.828   1.191   4.481  0.00  0.00    +0.009 A 
ATOM      4  C   LIG    1        6.894   1.518   3.663  0.00  0.00    +0.002 A 
ATOM      5  C   LIG    1        7.056   0.882   2.446  0.00  0.00    +0.009 A 
ATOM      6  C   LIG    1        6.156  -0.086   2.045  0.00  0.00    +0.025 A 
ENDROOT
BRANCH   1   7
ATOM      7  N   LIG    1        4.165  -1.387   2.457  0.00  0.00    -0.194 N 
BRANCH   7   8
ATOM      8  S   LIG    1        3.295  -1.177   1.064  0.00  0.00    +0.075 S 
ATOM      9  O   LIG    1        4.003  -0.227   0.281  0.00  0.00    -0.150 OA
ATOM     10  O   LIG    1        2.979  -2.477   0.583  0.00  0.00    -0.150 OA
BRANCH   8  14
ATOM     11  C   LIG    1       -0.630   0.763   2.216  0.00  0.00    +0.000 A 
ATOM     12  C   LIG    1        0.462   1.548   1.896  0.00  0.00    +0.002 A 
ATOM     13  C   LIG    1        1.660   0.956   1.544  0.00  0.00    +0.029 A 
ATOM     14  C   LIG    1        1.767  -0.422   1.513  0.00  0.00    +0.109 A 
ATOM     15  C   LIG    1        0.676  -1.208   1.834  0.00  0.00    +0.029 A 
ATOM     16  C   LIG    1       -0.523  -0.615   2.184  0.00  0.00    +0.002 A 
ENDBRANCH   8  14
ENDBRANCH   7   8
BRANCH   7  17
ATOM     17  C   LIG    1        3.976  -2.594   3.265  0.00  0.00    +0.244 C 
BRANCH  17  18
ATOM     18  C   LIG    1        5.030  -3.635   2.882  0.00  0.00    +0.407 C 
ATOM     19  F   LIG    1        4.898  -3.955   1.527  0.00  0.00    -0.169 F 
ATOM     20  F   LIG    1        4.849  -4.788   3.654  0.00  0.00    -0.169 F 
ATOM     21  F   LIG    1        6.307  -3.113   3.116  0.00  0.00    -0.169 F 
ENDBRANCH  17  18
ENDBRANCH   7  17
ENDBRANCH   1   7
BRANCH   4  22
ATOM     22  C   LIG    1        7.881   2.570   4.099  0.00  0.00    +0.282 C 
BRANCH  22  23
ATOM     23  C   LIG    1        7.910   3.701   3.070  0.00  0.00    +0.431 C 
ATOM     24  F   LIG    1        8.293   3.189   1.825  0.00  0.00    -0.167 F 
ATOM     25  F   LIG    1        8.826   4.677   3.474  0.00  0.00    -0.167 F 
ATOM     26  F   LIG    1        6.636   4.270   2.967  0.00  0.00    -0.167 F 
ENDBRANCH  22  23
BRANCH  22  27
ATOM     27  C   LIG    1        9.274   1.946   4.211  0.00  0.00    +0.431 C 
ATOM     28  F   LIG    1        9.220   0.831   5.054  0.00  0.00    -0.167 F 
ATOM     29  F   LIG    1       10.165   2.887   4.739  0.00  0.00    -0.167 F 
ATOM     30  F   LIG    1        9.711   1.551   2.943  0.00  0.00    -0.167 F 
ENDBRANCH  22  27
BRANCH  22  31
ATOM     31  O   LIG    1        7.490   3.092   5.370  0.00  0.00    -0.369 OA
ATOM     32  H   LIG    1        6.615   3.504   5.374  0.00  0.00    +0.211 HD
ENDBRANCH  22  31
ENDBRANCH   4  22
TORSDOF 9
