REMARK  Name = ZINC01537619
REMARK                            x       y       z     vdW  Elec       q    Type
REMARK                         _______ _______ _______ _____ _____    ______ ____
ROOT
ATOM      1  C   LIG    1        0.905   3.502   3.581  0.00  0.00    +0.047 C 
ATOM      2  C   LIG    1       -0.122   2.626   4.252  0.00  0.00    -0.008 A 
ATOM      3  C   LIG    1       -0.641   2.987   5.477  0.00  0.00    +0.018 A 
ATOM      4  C   LIG    1       -1.585   2.173   6.100  0.00  0.00    +0.023 A 
ATOM      5  C   LIG    1       -2.007   0.998   5.479  0.00  0.00    +0.018 A 
ATOM      6  C   LIG    1       -1.489   0.645   4.252  0.00  0.00    -0.008 A 
ATOM      7  C   LIG    1       -1.944  -0.625   3.580  0.00  0.00    +0.047 C 
ATOM      8  C   LIG    1       -0.547   1.457   3.634  0.00  0.00    +0.126 A 
ENDROOT
BRANCH   4   9
ATOM      9  C   LIG    1       -2.142   2.557   7.420  0.00  0.00    +0.202 A 
ATOM     10  N   LIG    1       -1.826   3.661   8.134  0.00  0.00    -0.184 NA
ATOM     11  C   LIG    1       -2.549   3.594   9.225  0.00  0.00    +0.332 A 
ATOM     12  O   LIG    1       -3.272   2.472   9.149  0.00  0.00    -0.328 OA
ATOM     13  N   LIG    1       -3.033   1.893   8.110  0.00  0.00    -0.056 NA
BRANCH  11  14
ATOM     14  C   LIG    1       -2.563   4.594  10.352  0.00  0.00    +0.472 C 
ATOM     15  F   LIG    1       -1.308   5.204  10.451  0.00  0.00    -0.162 F 
ATOM     16  F   LIG    1       -2.859   3.938  11.552  0.00  0.00    -0.162 F 
ATOM     17  F   LIG    1       -3.536   5.567  10.100  0.00  0.00    -0.162 F 
ENDBRANCH  11  14
ENDBRANCH   4   9
BRANCH   8  18
ATOM     18  O   LIG    1       -0.038   1.106   2.425  0.00  0.00    -0.491 OA
BRANCH  18  19
ATOM     19  C   LIG    1       -0.729   1.579   1.267  0.00  0.00    +0.229 C 
BRANCH  19  20
ATOM     20  C   LIG    1       -0.013   1.086   0.008  0.00  0.00    +0.049 C 
BRANCH  20  21
ATOM     21  C   LIG    1       -0.753   1.593  -1.232  0.00  0.00    +0.080 C 
BRANCH  21  22
ATOM     22  C   LIG    1       -0.047   1.107  -2.471  0.00  0.00    +0.138 A 
ATOM     23  C   LIG    1       -0.282  -0.049  -3.138  0.00  0.00    +0.070 A 
ATOM     24  C   LIG    1        0.638  -0.018  -4.211  0.00  0.00    +0.081 A 
ATOM     25  C   LIG    1        0.815  -1.066  -5.279  0.00  0.00    +0.069 C 
ATOM     26  N   LIG    1        1.302   1.095  -4.093  0.00  0.00    -0.083 NA
ATOM     27  O   LIG    1        0.932   1.736  -3.136  0.00  0.00    -0.359 OA
ENDBRANCH  21  22
ENDBRANCH  20  21
ENDBRANCH  19  20
ENDBRANCH  18  19
ENDBRANCH   8  18
TORSDOF 7
