REMARK  Name = ZINC01609839
REMARK                            x       y       z     vdW  Elec       q    Type
REMARK                         _______ _______ _______ _____ _____    ______ ____
ROOT
ATOM      1  C   LIG    1        1.281  -0.719  -0.014  0.00  0.00    +0.131 C 
ATOM      2  N   LIG    1        0.002  -0.004   0.002  0.00  0.00    -0.312 N 
ENDROOT
BRANCH   2   3
ATOM      3  C   LIG    1       -0.017   1.393   0.010  0.00  0.00    +0.031 A 
ATOM      4  C   LIG    1       -1.228   2.072   0.019  0.00  0.00    +0.023 A 
ATOM      5  C   LIG    1       -1.243   3.453   0.031  0.00  0.00    +0.002 A 
ATOM      6  C   LIG    1       -0.054   4.159   0.024  0.00  0.00    +0.000 A 
ATOM      7  C   LIG    1        1.153   3.486   0.009  0.00  0.00    +0.002 A 
ATOM      8  C   LIG    1        1.176   2.105   0.002  0.00  0.00    +0.023 A 
ENDBRANCH   2   3
BRANCH   2   9
ATOM      9  C   LIG    1       -1.256  -0.754   0.010  0.00  0.00    +0.305 C 
BRANCH   9  10
ATOM     10  S   LIG    1       -1.792  -1.054  -1.697  0.00  0.00    +0.096 S 
ATOM     11  O   LIG    1       -0.897  -1.951  -2.340  0.00  0.00    -0.146 OA
ATOM     12  O   LIG    1       -2.161   0.170  -2.317  0.00  0.00    -0.146 OA
BRANCH  10  13
ATOM     13  O   LIG    1       -3.095  -1.831  -1.567  0.00  0.00    -0.253 OA
ATOM     14  H   LIG    1       -3.760  -1.276  -1.132  0.00  0.00    +0.245 HD
ENDBRANCH  10  13
ENDBRANCH   9  10
ENDBRANCH   2   9
TORSDOF 4
