REMARK  Name = ZINC01530783
REMARK                            x       y       z     vdW  Elec       q    Type
REMARK                         _______ _______ _______ _____ _____    ______ ____
ROOT
ATOM      1  C   LIG    1       -0.017   1.378   0.010  0.00  0.00    +0.046 A 
ATOM      2  C   LIG    1        1.178   2.087   0.002  0.00  0.00    +0.053 A 
ATOM      3  C   LIG    1        2.387   1.404  -0.013  0.00  0.00    +0.127 A 
ATOM      4  C   LIG    1        2.400   0.023  -0.021  0.00  0.00    +0.060 A 
ATOM      5  C   LIG    1        1.210  -0.681  -0.014  0.00  0.00    +0.125 A 
ATOM      6  C   LIG    1        0.002  -0.004   0.002  0.00  0.00    +0.069 A 
ATOM      7 CL   LIG    1       -1.490  -0.892   0.012  0.00  0.00    -0.081 Cl
ENDROOT
BRANCH   2   8
ATOM      8  N   LIG    1        1.163   3.483   0.009  0.00  0.00    -0.356 N 
ATOM      9  H   LIG    1        1.997   3.978   0.004  0.00  0.00    +0.142 HD
ATOM     10  H   LIG    1        0.317   3.959   0.019  0.00  0.00    +0.142 HD
ENDBRANCH   2   8
BRANCH   3  11
ATOM     11  S   LIG    1        3.905   2.299  -0.024  0.00  0.00    +0.058 S 
ATOM     12  O   LIG    1        4.946   1.333  -0.066  0.00  0.00    -0.153 OA
ATOM     13  O   LIG    1        3.810   3.272   1.008  0.00  0.00    -0.153 OA
BRANCH  11  14
ATOM     14  N   LIG    1        3.973   3.131  -1.454  0.00  0.00    -0.203 NA
ATOM     15  H   LIG    1        4.740   3.691  -1.653  0.00  0.00    +0.144 HD
ATOM     16  H   LIG    1        3.246   3.058  -2.092  0.00  0.00    +0.144 HD
ENDBRANCH  11  14
ENDBRANCH   3  11
BRANCH   5  17
ATOM     17  S   LIG    1        1.230  -2.443  -0.024  0.00  0.00    +0.057 S 
ATOM     18  O   LIG    1        2.596  -2.833  -0.013  0.00  0.00    -0.153 OA
ATOM     19  O   LIG    1        0.329  -2.853  -1.044  0.00  0.00    -0.153 OA
BRANCH  17  20
ATOM     20  N   LIG    1        0.581  -2.949   1.413  0.00  0.00    -0.203 NA
ATOM     21  H   LIG    1        0.503  -3.897   1.602  0.00  0.00    +0.144 HD
ATOM     22  H   LIG    1        0.279  -2.297   2.064  0.00  0.00    +0.144 HD
ENDBRANCH  17  20
ENDBRANCH   5  17
TORSDOF 5
