REMARK  Name = ZINC01490608
REMARK                            x       y       z     vdW  Elec       q    Type
REMARK                         _______ _______ _______ _____ _____    ______ ____
ROOT
ATOM      1  C   LIG    1       -0.019   1.540   0.011  0.00  0.00    +0.011 C 
ATOM      2  C   LIG    1        1.488   1.879  -0.002  0.00  0.00    +0.043 C 
ATOM      3  C   LIG    1        2.165   0.677   0.619  0.00  0.00    +0.036 A 
ATOM      4  C   LIG    1        1.330  -0.382   0.621  0.00  0.00    +0.032 A 
ATOM      5  N   LIG    1        1.758  -1.576   1.144  0.00  0.00    -0.298 N 
ATOM      6  C   LIG    1        2.995  -1.701   1.653  0.00  0.00    +0.329 A 
ATOM      7  N   LIG    1        3.848  -0.659   1.662  0.00  0.00    -0.275 N 
ATOM      8  H   LIG    1        4.738  -0.766   2.033  0.00  0.00    +0.173 HD
ATOM      9  O   LIG    1        3.350  -2.770   2.111  0.00  0.00    -0.246 OA
ATOM     10  C   LIG    1        3.467   0.531   1.159  0.00  0.00    +0.257 A 
ATOM     11  O   LIG    1        4.238   1.474   1.166  0.00  0.00    -0.267 OA
ATOM     12  C   LIG    1        0.002  -0.004   0.002  0.00  0.00    +0.054 C 
ENDROOT
BRANCH   5  13
ATOM     13  C   LIG    1        0.853  -2.728   1.149  0.00  0.00    +0.121 C 
BRANCH  13  14
ATOM     14  CA  LIG    1        1.032  -3.522  -0.147  0.00  0.00    +0.056 C 
BRANCH  14  15
ATOM     15  N   LIG    1        0.837  -2.630  -1.298  0.00  0.00    +0.388 N 
ATOM     16  H1  LIG    1        0.955  -3.153  -2.152  0.00  0.00    -0.089 HD
ATOM     17  H2  LIG    1        1.516  -1.884  -1.264  0.00  0.00    -0.089 HD
ATOM     18  H3  LIG    1       -0.093  -2.239  -1.268  0.00  0.00    -0.089 HD
ENDBRANCH  14  15
BRANCH  14  19
ATOM     19  C   LIG    1        0.018  -4.636  -0.198  0.00  0.00    +0.292 C 
ATOM     20  O   LIG    1       -1.074  -4.443  -0.706  0.00  0.00    -0.253 OA
BRANCH  19  21
ATOM     21  OXT LIG    1        0.289  -5.729   0.269  0.00  0.00    -0.482 OA
ATOM     22  HXT LIG    1        1.128  -5.876   0.659  0.00  0.00    +0.295 HD
ENDBRANCH  19  21
ENDBRANCH  14  19
ENDBRANCH  13  14
ENDBRANCH   5  13
TORSDOF 5
