REMARK  Name = ZINC01648257
REMARK                            x       y       z     vdW  Elec       q    Type
REMARK                         _______ _______ _______ _____ _____    ______ ____
ROOT
ATOM      1  C   LIG    1        0.775  -1.794  -1.334  0.00  0.00    +0.318 C 
ATOM      2  O   LIG    1        0.314  -2.540  -0.504  0.00  0.00    -0.250 OA
ENDROOT
BRANCH   1   3
ATOM      3  C   LIG    1        1.468  -2.353  -2.550  0.00  0.00    +0.200 C 
ATOM      4 BR   LIG    1        1.444  -4.318  -2.471  0.00  0.00    -0.080 Br
ENDBRANCH   1   3
BRANCH   1   5
ATOM      5  O   LIG    1        0.671  -0.465  -1.174  0.00  0.00    -0.464 OA
BRANCH   5   7
ATOM      6  C   LIG    1       -0.019   1.526   0.010  0.00  0.00    +0.048 C 
ATOM      7  C   LIG    1        0.002  -0.004   0.002  0.00  0.00    +0.229 C 
ENDBRANCH   5   7
ENDBRANCH   1   5
TORSDOF 3
