REMARK  Name = ZINC01553549
REMARK                            x       y       z     vdW  Elec       q    Type
REMARK                         _______ _______ _______ _____ _____    ______ ____
ROOT
ATOM      1  C   LIG    1        5.526   3.629   1.237  0.00  0.00    +0.202 C 
ENDROOT
BRANCH   1   2
ATOM      2  C   LIG    1        6.415   2.519   1.736  0.00  0.00    -0.007 A 
ATOM      3  C   LIG    1        7.234   1.840   0.853  0.00  0.00    +0.007 A 
ATOM      4  C   LIG    1        8.053   0.825   1.311  0.00  0.00    +0.000 A 
ATOM      5  C   LIG    1        8.046   0.482   2.650  0.00  0.00    +0.000 A 
ATOM      6  C   LIG    1        7.223   1.158   3.532  0.00  0.00    +0.000 A 
ATOM      7  C   LIG    1        6.408   2.176   3.075  0.00  0.00    +0.007 A 
ENDBRANCH   1   2
BRANCH   1   8
ATOM      8  O   LIG    1        4.971   3.263  -0.028  0.00  0.00    -0.484 OA
BRANCH   8  15
ATOM      9  C   LIG    1        3.730   2.723  -2.505  0.00  0.00    +0.047 C 
ATOM     10  C   LIG    1        3.194   2.200  -1.198  0.00  0.00    -0.005 A 
ATOM     11  C   LIG    1        2.051   1.424  -1.181  0.00  0.00    +0.052 A 
ATOM     12  C   LIG    1        1.558   0.943   0.023  0.00  0.00    +0.117 A 
ATOM     13  C   LIG    1        2.208   1.246   1.210  0.00  0.00    +0.049 A 
ATOM     14  C   LIG    1        3.353   2.017   1.192  0.00  0.00    +0.049 A 
ATOM     15  C   LIG    1        3.847   2.499  -0.011  0.00  0.00    +0.125 A 
BRANCH  12  16
ATOM     16  O   LIG    1        0.433   0.179   0.040  0.00  0.00    -0.507 OA
ATOM     17  H   LIG    1        0.601  -0.770  -0.044  0.00  0.00    +0.292 HD
ENDBRANCH  12  16
ENDBRANCH   8  15
ENDBRANCH   1   8
BRANCH   1  18
ATOM     18  C   LIG    1        6.348   4.910   1.083  0.00  0.00    +0.030 C 
BRANCH  18  19
ATOM     19  C   LIG    1        5.423   6.066   0.697  0.00  0.00    -0.079 C 
BRANCH  19  20
ATOM     20  N   LIG    1        6.222   7.297   0.550  0.00  0.00    +0.377 N 
ATOM     21  H   LIG    1        6.689   7.506   1.440  0.00  0.00    -0.086 HD
ATOM     22  H   LIG    1        6.928   7.157  -0.182  0.00  0.00    -0.086 HD
ATOM     23  C   LIG    1        5.354   8.430   0.177  0.00  0.00    -0.101 C 
ENDBRANCH  19  20
ENDBRANCH  18  19
ENDBRANCH   1  18
TORSDOF 7
