REMARK  Name = ZINC01544687
REMARK                            x       y       z     vdW  Elec       q    Type
REMARK                         _______ _______ _______ _____ _____    ______ ____
ROOT
ATOM      1  C   UNK A  0        3.648   3.149  -0.428  0.00  0.00    +0.165 C 
ENDROOT
BRANCH   1   4
ATOM      2  N   LEU A  1        1.936   1.472   0.186  0.00  0.00    -0.305 N 
ATOM      3  H   LEU A  1        1.259   2.150   0.035  0.00  0.00    +0.149 HD
ATOM      4  C   UNK A  0        3.242   1.787   0.073  0.00  0.00    +0.232 C 
ATOM      5  O   UNK A  0        4.090   0.974   0.374  0.00  0.00    -0.274 OA
BRANCH   2   6
ATOM      6  CA  LEU A  1        1.540   0.107   0.539  0.00  0.00    +0.136 C 
BRANCH   6   7
ATOM      7  C   LEU A  1        1.487  -0.739  -0.708  0.00  0.00    +0.245 C 
ATOM      8  O   LEU A  1        1.753  -0.251  -1.780  0.00  0.00    -0.299 OA
ENDBRANCH   6   7
BRANCH   6   9
ATOM      9  CB  LEU A  1        0.160   0.130   1.198  0.00  0.00    +0.032 C 
BRANCH   9  11
ATOM     10  CD1 LEU A  1       -1.173   1.069   3.092  0.00  0.00    +0.007 C 
ATOM     11  CG  LEU A  1        0.233   0.920   2.506  0.00  0.00    -0.015 C 
ATOM     12  CD2 LEU A  1        1.124   0.176   3.502  0.00  0.00    +0.007 C 
ENDBRANCH   9  11
ENDBRANCH   6   9
ENDBRANCH   2   6
ENDBRANCH   1   4
BRANCH   1  13
ATOM     13  C   UNK A  0        3.499   3.199  -1.950  0.00  0.00    +0.010 C 
ATOM     14  C   UNK A  0        4.425   2.160  -2.586  0.00  0.00    +0.009 C 
ATOM     15  C   UNK A  0        3.874   4.594  -2.454  0.00  0.00    +0.009 C 
ENDBRANCH   1  13
BRANCH   1  16
ATOM     16  N   UNK A  0        5.043   3.407  -0.065  0.00  0.00    -0.178 NA
ATOM     17  H   UNK A  0        5.750   2.850  -0.427  0.00  0.00    +0.149 HD
BRANCH  16  18
ATOM     18  S   UNK A  0        5.415   4.650   0.965  0.00  0.00    +0.059 S 
ATOM     19  O   UNK A  0        4.749   5.802   0.468  0.00  0.00    -0.153 OA
ATOM     20  O   UNK A  0        6.822   4.608   1.161  0.00  0.00    -0.153 OA
BRANCH  18  21
ATOM     21  C   UNK A  0        4.679   4.274   2.521  0.00  0.00    +0.105 A 
ATOM     22  C   UNK A  0        3.392   4.697   2.796  0.00  0.00    +0.031 A 
ATOM     23  C   UNK A  0        2.813   4.402   4.016  0.00  0.00    +0.040 A 
ATOM     24  C   UNK A  0        3.523   3.685   4.964  0.00  0.00    +0.124 A 
ATOM     25  F   UNK A  0        2.959   3.397   6.157  0.00  0.00    -0.205 F 
ATOM     26  C   UNK A  0        4.812   3.262   4.687  0.00  0.00    +0.040 A 
ATOM     27  C   UNK A  0        5.387   3.553   3.464  0.00  0.00    +0.031 A 
ENDBRANCH  18  21
ENDBRANCH  16  18
ENDBRANCH   1  16
TORSDOF 9
