REMARK  Name = ZINC01530862
REMARK                            x       y       z     vdW  Elec       q    Type
REMARK                         _______ _______ _______ _____ _____    ______ ____
ROOT
ATOM      1  C   LIG    1        2.077  -0.591  -1.215  0.00  0.00    +0.073 C 
ATOM      2  C   LIG    1        2.807  -0.266  -0.095  0.00  0.00    +0.051 C 
ATOM      3  C   LIG    1        4.199  -0.375  -0.092  0.00  0.00    +0.120 C 
ATOM      4  C   LIG    1        4.872  -0.810  -1.211  0.00  0.00    +0.036 C 
ATOM      5  C   LIG    1        4.154  -1.149  -2.369  0.00  0.00    +0.010 C 
ATOM      6  C   LIG    1        4.812  -1.598  -3.531  0.00  0.00    +0.006 C 
ATOM      7  C   LIG    1        4.050  -1.927  -4.615  0.00  0.00    +0.015 C 
ATOM      8  C   LIG    1        2.664  -1.797  -4.557  0.00  0.00    +0.081 C 
ATOM      9  N   LIG    1        2.057  -1.373  -3.475  0.00  0.00    -0.312 NA
ATOM     10  H   LIG    1        1.090  -1.296  -3.473  0.00  0.00    +0.122 HD
ATOM     11  C   LIG    1        2.742  -1.046  -2.376  0.00  0.00    +0.074 C 
ENDROOT
BRANCH   1  12
ATOM     12  N   LIG    1        0.688  -0.476  -1.203  0.00  0.00    -0.309 NA
ATOM     13  H   LIG    1        0.175  -0.710  -1.993  0.00  0.00    +0.123 HD
BRANCH  12  15
ATOM     14  C   LIG    1       -0.019   1.526   0.010  0.00  0.00    +0.024 C 
ATOM     15  C   LIG    1        0.002  -0.004   0.002  0.00  0.00    +0.051 C 
BRANCH  15  16
ATOM     16  C   LIG    1       -1.433  -0.534   0.013  0.00  0.00    +0.016 C 
BRANCH  16  17
ATOM     17  C   LIG    1       -1.413  -2.059   0.130  0.00  0.00    -0.018 C 
BRANCH  17  18
ATOM     18  C   LIG    1       -2.849  -2.589   0.141  0.00  0.00    -0.086 C 
BRANCH  18  19
ATOM     19  N   LIG    1       -2.829  -4.053   0.254  0.00  0.00    +0.378 N 
ATOM     20  H   LIG    1       -3.776  -4.402   0.261  0.00  0.00    -0.090 HD
ATOM     21  H   LIG    1       -2.366  -4.319   1.110  0.00  0.00    -0.090 HD
ATOM     22  H   LIG    1       -2.333  -4.444  -0.532  0.00  0.00    -0.090 HD
ENDBRANCH  18  19
ENDBRANCH  17  18
ENDBRANCH  16  17
ENDBRANCH  15  16
ENDBRANCH  12  15
ENDBRANCH   1  12
BRANCH   3  23
ATOM     23  O   LIG    1        4.897  -0.047   1.027  0.00  0.00    -0.380 OA
ATOM     24  C   LIG    1        6.319  -0.180   0.967  0.00  0.00    +0.194 C 
ENDBRANCH   3  23
TORSDOF 7
