REMARK  Name = ZINC01658592
REMARK                            x       y       z     vdW  Elec       q    Type
REMARK                         _______ _______ _______ _____ _____    ______ ____
ROOT
ATOM      1  C   LIG    1        2.950   3.187   3.687  0.00  0.00    +0.001 A 
ATOM      2  C   LIG    1        3.280   2.381   4.767  0.00  0.00    +0.002 A 
ATOM      3  C   LIG    1        2.558   1.240   5.040  0.00  0.00    +0.026 A 
ATOM      4  C   LIG    1        1.485   0.891   4.226  0.00  0.00    +0.047 A 
ATOM      5  C   LIG    1        1.154   1.711   3.132  0.00  0.00    +0.003 A 
ATOM      6  C   LIG    1        0.000   1.080   2.488  0.00  0.00    -0.021 A 
ATOM      7  C   LIG    1       -0.289  -0.024   3.194  0.00  0.00    +0.087 A 
ATOM      8  N   LIG    1        0.592  -0.157   4.233  0.00  0.00    -0.360 N 
ATOM      9  H   LIG    1        0.584  -0.878   4.881  0.00  0.00    +0.165 HD
ATOM     10  C   LIG    1        1.901   2.863   2.874  0.00  0.00    +0.010 A 
ENDROOT
BRANCH   6  11
ATOM     11  C   LIG    1       -0.729   1.579   1.267  0.00  0.00    +0.056 C 
BRANCH  11  12
ATOM     12  C   LIG    1       -0.013   1.086   0.008  0.00  0.00    +0.109 C 
BRANCH  12  13
ATOM     13  N   LIG    1       -0.721   1.571  -1.179  0.00  0.00    -0.314 N 
ATOM     14  H   LIG    1       -1.516   2.118  -1.079  0.00  0.00    +0.149 HD
ATOM     15  C   LIG    1       -0.268   1.258  -2.409  0.00  0.00    +0.223 C 
ATOM     16  O   LIG    1        0.726   0.575  -2.534  0.00  0.00    -0.275 OA
BRANCH  15  17
ATOM     17  C   LIG    1       -0.997   1.758  -3.630  0.00  0.00    +0.175 C 
ATOM     18 BR   LIG    1       -0.077   1.124  -5.247  0.00  0.00    -0.082 Br
ENDBRANCH  15  17
ENDBRANCH  12  13
ENDBRANCH  11  12
ENDBRANCH   6  11
TORSDOF 4
