REMARK  Name = ZINC01534965
REMARK                            x       y       z     vdW  Elec       q    Type
REMARK                         _______ _______ _______ _____ _____    ______ ____
ROOT
ATOM      1  C   LIG    1        0.027   1.353   0.405  0.00  0.00    +0.001 A 
ATOM      2  C   LIG    1        1.223   2.066   0.444  0.00  0.00    +0.002 A 
ATOM      3  C   LIG    1        2.422   1.434   0.318  0.00  0.00    +0.028 A 
ATOM      4  C   LIG    1        2.461   0.039   0.146  0.00  0.00    +0.072 A 
ATOM      5  C   LIG    1        1.243  -0.682   0.106  0.00  0.00    +0.009 A 
ATOM      6  C   LIG    1        1.282  -2.087  -0.068  0.00  0.00    +0.000 A 
ATOM      7  C   LIG    1        2.539  -2.695  -0.193  0.00  0.00    +0.005 A 
ATOM      8  C   LIG    1        3.694  -1.900  -0.142  0.00  0.00    +0.053 A 
ATOM      9  N   LIG    1        3.629  -0.603   0.020  0.00  0.00    -0.251 NA
ATOM     10  C   LIG    1        0.026   0.001   0.239  0.00  0.00    +0.010 A 
ENDROOT
BRANCH   6  11
ATOM     11  C   LIG    1        0.038  -2.886  -0.115  0.00  0.00    -0.016 A 
ATOM     12  C   LIG    1       -0.261  -3.778   0.916  0.00  0.00    +0.011 A 
ATOM     13  C   LIG    1       -1.422  -4.520   0.867  0.00  0.00    +0.039 A 
ATOM     14  C   LIG    1       -2.291  -4.382  -0.203  0.00  0.00    +0.123 A 
ATOM     15  F   LIG    1       -3.428  -5.112  -0.247  0.00  0.00    -0.205 F 
ATOM     16  C   LIG    1       -1.999  -3.498  -1.230  0.00  0.00    +0.039 A 
ATOM     17  C   LIG    1       -0.843  -2.747  -1.189  0.00  0.00    +0.011 A 
ENDBRANCH   6  11
BRANCH   8  18
ATOM     18  C   LIG    1        5.044  -2.556  -0.277  0.00  0.00    +0.038 C 
ATOM     19  C   LIG    1        6.279  -1.692  -0.015  0.00  0.00    +0.010 C 
ATOM     20  C   LIG    1        5.930  -2.116  -1.443  0.00  0.00    +0.010 C 
ENDBRANCH   8  18
BRANCH   7  21
ATOM     21  C   LIG    1        2.647  -4.155  -0.376  0.00  0.00    +0.008 C 
ATOM     22  C   LIG    1        2.039  -4.742  -1.399  0.00  0.00    +0.005 C 
BRANCH  22  23
ATOM     23  C   LIG    1        2.053  -6.244  -1.524  0.00  0.00    +0.140 C 
BRANCH  23  24
ATOM     24  O   LIG    1        2.676  -6.812  -0.369  0.00  0.00    -0.388 OA
ATOM     25  H   LIG    1        2.231  -6.599   0.462  0.00  0.00    +0.210 HD
ENDBRANCH  23  24
BRANCH  23  26
ATOM     26  C   LIG    1        0.618  -6.761  -1.634  0.00  0.00    +0.067 C 
BRANCH  26  27
ATOM     27  C   LIG    1        0.636  -8.270  -1.885  0.00  0.00    +0.128 C 
BRANCH  27  28
ATOM     28  O   LIG    1        1.191  -8.935  -0.749  0.00  0.00    -0.391 OA
ATOM     29  H   LIG    1        0.700  -8.788   0.071  0.00  0.00    +0.210 HD
ENDBRANCH  27  28
BRANCH  27  30
ATOM     30  C   LIG    1       -0.792  -8.766  -2.120  0.00  0.00    +0.151 C 
BRANCH  30  31
ATOM     31  C   LIG    1       -0.762 -10.227  -2.488  0.00  0.00    +0.307 C 
ATOM     32  O   LIG    1        0.302 -10.817  -2.556  0.00  0.00    -0.251 OA
BRANCH  31  33
ATOM     33  O   LIG    1       -1.803 -10.819  -2.717  0.00  0.00    -0.481 OA
ATOM     34  H   LIG    1       -2.621 -10.366  -2.665  0.00  0.00    +0.295 HD
ENDBRANCH  31  33
ENDBRANCH  30  31
ENDBRANCH  27  30
ENDBRANCH  26  27
ENDBRANCH  23  26
ENDBRANCH  22  23
ENDBRANCH   7  21
TORSDOF 11
