REMARK  Name = ZINC01508712
REMARK                            x       y       z     vdW  Elec       q    Type
REMARK                         _______ _______ _______ _____ _____    ______ ____
ROOT
ATOM      1  C   LIG    1        0.606  -0.607  -1.056  0.00  0.00    +0.162 A 
ATOM      2  C   LIG    1        1.172   0.163  -2.061  0.00  0.00    +0.050 A 
ATOM      3  C   LIG    1        1.786  -0.444  -3.136  0.00  0.00    +0.014 A 
ATOM      4  C   LIG    1        1.839  -1.837  -3.215  0.00  0.00    +0.011 A 
ATOM      5  C   LIG    1        1.269  -2.612  -2.203  0.00  0.00    +0.060 A 
ATOM      6  C   LIG    1        0.660  -1.998  -1.125  0.00  0.00    +0.162 A 
ENDROOT
BRANCH   4   7
ATOM      7  C   LIG    1        2.496  -2.489  -4.367  0.00  0.00    +0.110 A 
ATOM      8  N   LIG    1        2.638  -3.773  -4.617  0.00  0.00    -0.239 NA
ATOM      9  C   LIG    1        3.266  -4.230  -5.718  0.00  0.00    +0.079 A 
ATOM     10  C   LIG    1        3.486  -5.574  -6.104  0.00  0.00    +0.029 A 
ATOM     11  C   LIG    1        4.144  -5.869  -7.257  0.00  0.00    +0.002 A 
ATOM     12  C   LIG    1        4.624  -4.874  -8.098  0.00  0.00    +0.001 A 
ATOM     13  C   LIG    1        4.430  -3.548  -7.758  0.00  0.00    +0.017 A 
ATOM     14  C   LIG    1        3.767  -3.239  -6.596  0.00  0.00    +0.040 A 
ATOM     15  S   LIG    1        3.292  -1.735  -5.778  0.00  0.00    -0.067 S 
ENDBRANCH   4   7
BRANCH   1  17
ATOM     16  C   LIG    1       -0.017   1.425   0.010  0.00  0.00    +0.277 C 
ATOM     17  O   LIG    1        0.002  -0.004   0.002  0.00  0.00    -0.491 OA
ENDBRANCH   1  17
BRANCH   6  18
ATOM     18  O   LIG    1        0.108  -2.750  -0.136  0.00  0.00    -0.491 OA
ATOM     19  C   LIG    1        0.200  -4.169  -0.272  0.00  0.00    +0.277 C 
ENDBRANCH   6  18
TORSDOF 3
