REMARK  Name = ZINC01530850
REMARK                            x       y       z     vdW  Elec       q    Type
REMARK                         _______ _______ _______ _____ _____    ______ ____
ROOT
ATOM      1  C   LIG    1       -3.584   3.091   0.419  0.00  0.00    +0.246 C 
ATOM      2  C   LIG    1       -3.575   1.750  -0.327  0.00  0.00    +0.244 C 
ATOM      3  O   LIG    1       -2.385   1.043   0.036  0.00  0.00    -0.479 OA
ATOM      4  C   LIG    1       -1.223   1.752   0.017  0.00  0.00    +0.163 A 
ATOM      5  C   LIG    1       -0.013   1.076   0.008  0.00  0.00    +0.050 A 
ATOM      6  C   LIG    1        1.175   1.782   0.000  0.00  0.00    +0.011 A 
ATOM      7  C   LIG    1        1.160   3.165   0.008  0.00  0.00    -0.001 A 
ATOM      8  C   LIG    1       -0.043   3.845   0.021  0.00  0.00    +0.056 A 
ATOM      9  C   LIG    1       -1.239   3.142   0.028  0.00  0.00    +0.163 A 
ATOM     10  O   LIG    1       -2.416   3.825   0.036  0.00  0.00    -0.477 OA
ENDROOT
BRANCH   7  11
ATOM     11  C   LIG    1        2.457   3.931   0.002  0.00  0.00    +0.240 C 
ATOM     12  C   LIG    1        2.951   4.091  -1.443  0.00  0.00    +0.230 C 
ATOM     13  C   LIG    1        4.273   4.837  -1.387  0.00  0.00    +0.202 C 
ATOM     14  C   LIG    1        5.189   4.466  -0.303  0.00  0.00    +0.103 A 
ATOM     15  C   LIG    1        6.523   4.905  -0.311  0.00  0.00    +0.134 A 
ATOM     16  C   LIG    1        7.363   4.551   0.729  0.00  0.00    +0.091 A 
ATOM     17  C   LIG    1        6.888   3.764   1.771  0.00  0.00    +0.124 A 
ATOM     18  C   LIG    1        5.571   3.322   1.782  0.00  0.00    +0.092 A 
ATOM     19  C   LIG    1        4.714   3.663   0.750  0.00  0.00    +0.139 A 
ATOM     20  O   LIG    1        4.556   5.696  -2.196  0.00  0.00    -0.289 OA
ATOM     21  O   LIG    1        3.435   3.219   0.759  0.00  0.00    -0.480 OA
BRANCH  12  22
ATOM     22  O   LIG    1        2.001   4.842  -2.202  0.00  0.00    -0.380 OA
ATOM     23  H   LIG    1        2.255   4.978  -3.125  0.00  0.00    +0.211 HD
ENDBRANCH  12  22
BRANCH  15  24
ATOM     24  O   LIG    1        6.984   5.671  -1.331  0.00  0.00    -0.506 OA
ATOM     25  H   LIG    1        6.880   6.622  -1.187  0.00  0.00    +0.292 HD
ENDBRANCH  15  24
BRANCH  17  26
ATOM     26  O   LIG    1        7.718   3.424   2.789  0.00  0.00    -0.507 OA
ATOM     27  H   LIG    1        7.718   4.053   3.523  0.00  0.00    +0.292 HD
ENDBRANCH  17  26
ENDBRANCH   7  11
BRANCH   1  30
ATOM     28  C   LIG    1       -7.035   4.620   0.572  0.00  0.00    +0.162 A 
ATOM     29  C   LIG    1       -5.899   3.902   0.911  0.00  0.00    +0.056 A 
ATOM     30  C   LIG    1       -4.819   3.872   0.049  0.00  0.00    -0.000 A 
ATOM     31  C   LIG    1       -4.866   4.561  -1.149  0.00  0.00    +0.011 A 
ATOM     32  C   LIG    1       -5.999   5.274  -1.495  0.00  0.00    +0.049 A 
ATOM     33  C   LIG    1       -7.085   5.308  -0.636  0.00  0.00    +0.158 A 
BRANCH  28  35
ATOM     34  C   LIG    1       -7.977   3.919   2.641  0.00  0.00    +0.277 C 
ATOM     35  O   LIG    1       -8.099   4.650   1.419  0.00  0.00    -0.491 OA
ENDBRANCH  28  35
BRANCH  33  36
ATOM     36  O   LIG    1       -8.198   6.014  -0.972  0.00  0.00    -0.503 OA
ATOM     37  H   LIG    1       -8.185   6.934  -0.675  0.00  0.00    +0.292 HD
ENDBRANCH  33  36
ENDBRANCH   1  30
BRANCH   2  38
ATOM     38  C   LIG    1       -4.805   0.931   0.069  0.00  0.00    +0.204 C 
BRANCH  38  39
ATOM     39  O   LIG    1       -4.854  -0.263  -0.713  0.00  0.00    -0.391 OA
ATOM     40  H   LIG    1       -5.610  -0.833  -0.515  0.00  0.00    +0.210 HD
ENDBRANCH  38  39
ENDBRANCH   2  38
TORSDOF 9
