REMARK  Name = ZINC01530967
REMARK                            x       y       z     vdW  Elec       q    Type
REMARK                         _______ _______ _______ _____ _____    ______ ____
ROOT
ATOM      1  C   LIG    1       -1.139  -1.944   0.147  0.00  0.00    +0.056 C 
ENDROOT
BRANCH   1   2
ATOM      2  C   LIG    1       -0.554  -1.760  -1.230  0.00  0.00    -0.033 A 
ATOM      3  C   LIG    1       -0.283  -2.863  -2.018  0.00  0.00    +0.004 A 
ATOM      4  C   LIG    1        0.249  -2.695  -3.283  0.00  0.00    +0.000 A 
ATOM      5  C   LIG    1        0.520  -1.424  -3.756  0.00  0.00    +0.000 A 
ATOM      6  C   LIG    1        0.254  -0.322  -2.965  0.00  0.00    +0.000 A 
ATOM      7  C   LIG    1       -0.283  -0.490  -1.702  0.00  0.00    +0.004 A 
ENDBRANCH   1   2
BRANCH   1   8
ATOM      8  C   LIG    1       -2.475  -2.631   0.037  0.00  0.00    -0.033 A 
ATOM      9  C   LIG    1       -3.636  -1.934   0.316  0.00  0.00    +0.004 A 
ATOM     10  C   LIG    1       -4.862  -2.562   0.211  0.00  0.00    +0.000 A 
ATOM     11  C   LIG    1       -4.928  -3.892  -0.163  0.00  0.00    +0.000 A 
ATOM     12  C   LIG    1       -3.767  -4.591  -0.437  0.00  0.00    +0.000 A 
ATOM     13  C   LIG    1       -2.541  -3.960  -0.337  0.00  0.00    +0.004 A 
ENDBRANCH   1   8
BRANCH   1  14
ATOM     14  C   LIG    1       -1.320  -0.577   0.810  0.00  0.00    +0.191 C 
BRANCH  14  16
ATOM     15  C   LIG    1       -2.002   0.596   2.908  0.00  0.00    +0.007 C 
ATOM     16  C   LIG    1       -1.887  -0.765   2.219  0.00  0.00    +0.042 C 
ENDBRANCH  14  16
BRANCH  14  17
ATOM     17  O   LIG    1       -2.240   0.225   0.022  0.00  0.00    -0.460 OA
BRANCH  17  18
ATOM     18  C   LIG    1       -2.065   1.555   0.049  0.00  0.00    +0.304 C 
ATOM     19  C   LIG    1       -2.980   2.452  -0.744  0.00  0.00    +0.136 C 
ATOM     20  O   LIG    1       -1.173   2.034   0.710  0.00  0.00    -0.251 OA
ENDBRANCH  17  18
ENDBRANCH  14  17
ENDBRANCH   1  14
BRANCH   1  21
ATOM     21  C   LIG    1       -0.193  -2.800   0.992  0.00  0.00    +0.004 C 
BRANCH  21  22
ATOM     22  C   LIG    1        1.209  -2.188   0.966  0.00  0.00    -0.071 C 
ATOM     23  C   LIG    1        2.190  -3.132   1.665  0.00  0.00    -0.013 C 
BRANCH  22  24
ATOM     24  N   LIG    1        1.169  -0.881   1.654  0.00  0.00    +0.378 N 
ATOM     25  H   LIG    1        0.323  -0.377   1.364  0.00  0.00    -0.082 HD
ATOM     26  C   LIG    1        2.356  -0.080   1.287  0.00  0.00    -0.096 C 
ATOM     27  C   LIG    1        1.129  -1.082   3.118  0.00  0.00    -0.096 C 
ENDBRANCH  22  24
ENDBRANCH  21  22
ENDBRANCH   1  21
TORSDOF 9
