REMARK  Name = ZINC01605729
REMARK                            x       y       z     vdW  Elec       q    Type
REMARK                         _______ _______ _______ _____ _____    ______ ____
ROOT
ATOM      1  CA  PHE A  1        1.280   1.980   0.001  0.00  0.00    +0.017 C 
ENDROOT
BRANCH   1   4
ATOM      2  N   ALA A  2       -1.191   1.867   0.018  0.00  0.00    -0.304 N 
ATOM      3  H   ALA A  2       -1.204   2.837   0.023  0.00  0.00    +0.149 HD
ATOM      4  C   PHE A  1       -0.014   1.209   0.009  0.00  0.00    +0.199 C 
ATOM      5  O   PHE A  1        0.002  -0.004   0.002  0.00  0.00    -0.278 OA
BRANCH   2   7
ATOM      6  CB  ALA A  2       -2.816   0.740   1.456  0.00  0.00    +0.040 C 
ATOM      7  CA  ALA A  2       -2.449   1.117   0.020  0.00  0.00    +0.178 C 
BRANCH   7   8
ATOM      8  C   ALA A  2       -3.543   1.969  -0.571  0.00  0.00    +0.325 C 
ATOM      9  O   ALA A  2       -3.296   3.088  -0.954  0.00  0.00    -0.249 OA
BRANCH   8  10
ATOM     10  OXT ALA A  2       -4.791   1.486  -0.671  0.00  0.00    -0.479 OA
ATOM     11  HXT ALA A  2       -4.982   0.618  -0.374  0.00  0.00    +0.295 HD
ENDBRANCH   8  10
ENDBRANCH   7   8
ENDBRANCH   2   7
ENDBRANCH   1   4
BRANCH   1  12
ATOM     12  N   PHE A  1        2.382   1.131  -0.486  0.00  0.00    +0.386 N 
ATOM     13  H1  PHE A  1        3.259   1.664  -0.452  0.00  0.00    -0.089 HD
ATOM     14  H2  PHE A  1        2.204   0.844  -1.447  0.00  0.00    -0.089 HD
ATOM     15  H3  PHE A  1        2.472   0.304   0.103  0.00  0.00    -0.089 HD
ENDBRANCH   1  12
BRANCH   1  16
ATOM     16  CB  PHE A  1        1.604   2.448   1.421  0.00  0.00    +0.028 C 
BRANCH  16  17
ATOM     17  CG  PHE A  1        2.832   3.322   1.394  0.00  0.00    -0.048 A 
ATOM     18  CD2 PHE A  1        4.084   2.759   1.548  0.00  0.00    +0.003 A 
ATOM     19  CE2 PHE A  1        5.211   3.560   1.519  0.00  0.00    +0.000 A 
ATOM     20  CZ  PHE A  1        5.083   4.925   1.345  0.00  0.00    +0.000 A 
ATOM     21  CE1 PHE A  1        3.830   5.489   1.196  0.00  0.00    +0.000 A 
ATOM     22  CD1 PHE A  1        2.704   4.688   1.220  0.00  0.00    +0.003 A 
ENDBRANCH  16  17
ENDBRANCH   1  16
TORSDOF 7
