REMARK  Name = ZINC01605731
REMARK                            x       y       z     vdW  Elec       q    Type
REMARK                         _______ _______ _______ _____ _____    ______ ____
ROOT
ATOM      1  CA  PHE A  1       -0.013   1.086   0.008  0.00  0.00    +0.017 C 
ENDROOT
BRANCH   1   4
ATOM      2  N   ALA A  2       -1.854   0.954  -1.639  0.00  0.00    -0.304 N 
ATOM      3  H   ALA A  2       -2.185   0.178  -1.160  0.00  0.00    +0.149 HD
ATOM      4  C   PHE A  1       -0.742   1.585  -1.213  0.00  0.00    +0.199 C 
ATOM      5  O   PHE A  1       -0.328   2.555  -1.812  0.00  0.00    -0.278 OA
BRANCH   2   7
ATOM      6  CB  ALA A  2       -1.921   0.845  -4.081  0.00  0.00    +0.040 C 
ATOM      7  CA  ALA A  2       -2.562   1.439  -2.826  0.00  0.00    +0.178 C 
BRANCH   7   8
ATOM      8  C   ALA A  2       -4.008   1.020  -2.754  0.00  0.00    +0.325 C 
ATOM      9  O   ALA A  2       -4.406   0.382  -1.808  0.00  0.00    -0.249 OA
BRANCH   8  10
ATOM     10  OXT ALA A  2       -4.854   1.357  -3.740  0.00  0.00    -0.479 OA
ATOM     11  HXT ALA A  2       -4.546   1.852  -4.474  0.00  0.00    +0.295 HD
ENDBRANCH   8  10
ENDBRANCH   7   8
ENDBRANCH   2   7
ENDBRANCH   1   4
BRANCH   1  12
ATOM     12  N   PHE A  1        1.374   1.585   0.019  0.00  0.00    +0.386 N 
ATOM     13  H1  PHE A  1        1.842   1.261   0.874  0.00  0.00    -0.089 HD
ATOM     14  H2  PHE A  1        1.379   2.603   0.003  0.00  0.00    -0.089 HD
ATOM     15  H3  PHE A  1        1.879   1.230  -0.791  0.00  0.00    -0.089 HD
ENDBRANCH   1  12
BRANCH   1  16
ATOM     16  CB  PHE A  1       -0.729   1.579   1.267  0.00  0.00    +0.028 C 
BRANCH  16  17
ATOM     17  CG  PHE A  1       -0.074   0.981   2.485  0.00  0.00    -0.048 A 
ATOM     18  CD2 PHE A  1       -0.523  -0.226   2.989  0.00  0.00    +0.003 A 
ATOM     19  CE2 PHE A  1        0.081  -0.777   4.103  0.00  0.00    +0.000 A 
ATOM     20  CZ  PHE A  1        1.127  -0.118   4.720  0.00  0.00    +0.000 A 
ATOM     21  CE1 PHE A  1        1.573   1.091   4.219  0.00  0.00    +0.000 A 
ATOM     22  CD1 PHE A  1        0.973   1.640   3.102  0.00  0.00    +0.003 A 
ENDBRANCH  16  17
ENDBRANCH   1  16
TORSDOF 7
