REMARK  Name = ZINC01587665
REMARK                            x       y       z     vdW  Elec       q    Type
REMARK                         _______ _______ _______ _____ _____    ______ ____
ROOT
ATOM      1  C   LIG    1       -2.150   4.025   0.104  0.00  0.00    +0.045 C 
ENDROOT
BRANCH   1   2
ATOM      2  C   LIG    1       -2.221   5.080  -0.969  0.00  0.00    -0.034 A 
ATOM      3  C   LIG    1       -2.918   4.832  -2.137  0.00  0.00    +0.004 A 
ATOM      4  C   LIG    1       -2.986   5.802  -3.120  0.00  0.00    +0.000 A 
ATOM      5  C   LIG    1       -2.349   7.015  -2.939  0.00  0.00    +0.000 A 
ATOM      6  C   LIG    1       -1.647   7.261  -1.774  0.00  0.00    +0.000 A 
ATOM      7  C   LIG    1       -1.583   6.293  -0.789  0.00  0.00    +0.004 A 
ENDBRANCH   1   2
BRANCH   1   8
ATOM      8  C   LIG    1       -1.310   2.871  -0.379  0.00  0.00    -0.034 A 
ATOM      9  C   LIG    1       -1.404   1.640   0.242  0.00  0.00    +0.004 A 
ATOM     10  C   LIG    1       -0.629   0.583  -0.198  0.00  0.00    +0.000 A 
ATOM     11  C   LIG    1        0.231   0.754  -1.267  0.00  0.00    +0.000 A 
ATOM     12  C   LIG    1        0.320   1.984  -1.892  0.00  0.00    +0.000 A 
ATOM     13  C   LIG    1       -0.450   3.043  -1.448  0.00  0.00    +0.004 A 
ENDBRANCH   1   8
BRANCH   1  14
ATOM     14  C   LIG    1       -1.521   4.621   1.365  0.00  0.00    +0.129 C 
BRANCH  14  16
ATOM     15  C   LIG    1       -0.997   4.209   3.773  0.00  0.00    +0.006 C 
ATOM     16  C   LIG    1       -1.678   3.639   2.527  0.00  0.00    +0.029 C 
ENDBRANCH  14  16
BRANCH  14  17
ATOM     17  O   LIG    1       -0.132   4.867   1.134  0.00  0.00    -0.391 OA
ATOM     18  H   LIG    1        0.374   4.076   0.902  0.00  0.00    +0.210 HD
ENDBRANCH  14  17
ENDBRANCH   1  14
BRANCH   1  19
ATOM     19  C   LIG    1       -3.562   3.529   0.425  0.00  0.00    +0.003 C 
BRANCH  19  20
ATOM     20  C   LIG    1       -4.409   4.696   0.935  0.00  0.00    -0.071 C 
ATOM     21  C   LIG    1       -4.781   5.607  -0.237  0.00  0.00    -0.013 C 
BRANCH  20  22
ATOM     22  N   LIG    1       -5.647   4.160   1.539  0.00  0.00    +0.378 N 
ATOM     23  H   LIG    1       -6.117   3.555   0.856  0.00  0.00    -0.082 HD
ATOM     24  C   LIG    1       -6.554   5.269   1.902  0.00  0.00    -0.096 C 
ATOM     25  C   LIG    1       -5.318   3.363   2.740  0.00  0.00    -0.096 C 
ENDBRANCH  20  22
ENDBRANCH  19  20
ENDBRANCH   1  19
TORSDOF 8
