REMARK  Name = ZINC01482162
REMARK                            x       y       z     vdW  Elec       q    Type
REMARK                         _______ _______ _______ _____ _____    ______ ____
ROOT
ATOM      1  C   LIG    1       -0.623   1.229   1.378  0.00  0.00    -0.032 C 
ATOM      2  C   LIG    1       -0.989   0.216   2.144  0.00  0.00    -0.063 C 
ATOM      3  C   LIG    1       -1.551   0.773   3.431  0.00  0.00    +0.066 C 
ATOM      4  C   LIG    1       -1.456   2.273   3.295  0.00  0.00    -0.036 A 
ATOM      5  C   LIG    1       -1.801   3.317   4.121  0.00  0.00    +0.004 A 
ATOM      6  C   LIG    1       -1.587   4.623   3.712  0.00  0.00    +0.000 A 
ATOM      7  C   LIG    1       -1.028   4.879   2.473  0.00  0.00    +0.001 A 
ATOM      8  C   LIG    1       -0.679   3.838   1.637  0.00  0.00    +0.008 A 
ATOM      9  C   LIG    1       -0.885   2.518   2.044  0.00  0.00    -0.018 A 
ENDROOT
BRANCH   1  11
ATOM     10  C   LIG    1       -0.895   1.797  -1.020  0.00  0.00    +0.019 C 
ATOM     11  C   LIG    1       -0.013   1.086   0.008  0.00  0.00    +0.065 C 
BRANCH  11  12
ATOM     12  C   LIG    1        1.362   1.703   0.003  0.00  0.00    +0.048 A 
ATOM     13  C   LIG    1        1.562   2.921  -0.620  0.00  0.00    +0.024 A 
ATOM     14  C   LIG    1        2.829   3.483  -0.614  0.00  0.00    +0.003 A 
ATOM     15  C   LIG    1        3.855   2.791   0.012  0.00  0.00    +0.020 A 
ATOM     16  C   LIG    1        3.581   1.576   0.610  0.00  0.00    +0.111 A 
ATOM     17  N   LIG    1        2.361   1.074   0.589  0.00  0.00    -0.259 NA
ENDBRANCH  11  12
ENDBRANCH   1  11
BRANCH   2  18
ATOM     18  C   LIG    1       -0.865  -1.245   1.794  0.00  0.00    +0.013 C 
BRANCH  18  19
ATOM     19  C   LIG    1        0.438  -1.800   2.373  0.00  0.00    -0.075 C 
BRANCH  19  20
ATOM     20  N   LIG    1        0.534  -3.236   2.040  0.00  0.00    +0.376 N 
ATOM     21  H   LIG    1       -0.335  -3.704   2.325  0.00  0.00    -0.083 HD
ATOM     22  C   LIG    1        1.668  -3.848   2.764  0.00  0.00    -0.097 C 
ATOM     23  C   LIG    1        0.714  -3.406   0.583  0.00  0.00    -0.097 C 
ENDBRANCH  19  20
ENDBRANCH  18  19
ENDBRANCH   2  18
TORSDOF 5
