REMARK  Name = ZINC01530567
REMARK                            x       y       z     vdW  Elec       q    Type
REMARK                         _______ _______ _______ _____ _____    ______ ____
ROOT
ATOM      1  C   LIG    1        6.244  -0.189  -3.715  0.00  0.00    +0.121 A 
ATOM      2  C   LIG    1        6.908   0.441  -2.672  0.00  0.00    +0.046 A 
ATOM      3  C   LIG    1        8.248   0.754  -2.797  0.00  0.00    +0.007 A 
ATOM      4  C   LIG    1        8.927   0.440  -3.960  0.00  0.00    -0.045 A 
ATOM      5  C   LIG    1        8.268  -0.187  -5.000  0.00  0.00    +0.007 A 
ATOM      6  C   LIG    1        6.929  -0.508  -4.878  0.00  0.00    +0.046 A 
ENDROOT
BRANCH   1   7
ATOM      7  O   LIG    1        4.926  -0.498  -3.594  0.00  0.00    -0.489 OA
BRANCH   7   8
ATOM      8  C   LIG    1        4.285  -0.139  -2.368  0.00  0.00    +0.258 C 
BRANCH   8   9
ATOM      9  C   LIG    1        2.816  -0.564  -2.418  0.00  0.00    +0.135 C 
BRANCH   9  10
ATOM     10  O   LIG    1        2.734  -1.989  -2.485  0.00  0.00    -0.390 OA
ATOM     11  H   LIG    1        3.137  -2.442  -1.731  0.00  0.00    +0.210 HD
ENDBRANCH   9  10
BRANCH   9  12
ATOM     12  C   LIG    1        2.100  -0.070  -1.159  0.00  0.00    -0.047 C 
BRANCH  12  13
ATOM     13  N   LIG    1        0.690  -0.478  -1.207  0.00  0.00    +0.382 N 
ATOM     14  H   LIG    1        0.251  -0.077  -2.022  0.00  0.00    -0.085 HD
ATOM     15  H   LIG    1        0.632  -1.484  -1.254  0.00  0.00    -0.085 HD
BRANCH  13  17
ATOM     16  C   LIG    1       -0.019   1.526   0.010  0.00  0.00    -0.014 C 
ATOM     17  C   LIG    1        0.002  -0.004   0.002  0.00  0.00    -0.078 C 
ATOM     18  C   LIG    1       -1.433  -0.534   0.013  0.00  0.00    -0.014 C 
ENDBRANCH  13  17
ENDBRANCH  12  13
ENDBRANCH   9  12
ENDBRANCH   8   9
ENDBRANCH   7   8
ENDBRANCH   1   7
BRANCH   4  19
ATOM     19  C   LIG    1       10.389   0.782  -4.093  0.00  0.00    +0.063 C 
BRANCH  19  20
ATOM     20  C   LIG    1       11.235  -0.387  -3.586  0.00  0.00    +0.164 C 
BRANCH  20  21
ATOM     21  O   LIG    1       12.621  -0.062  -3.713  0.00  0.00    -0.379 OA
BRANCH  21  22
ATOM     22  C   LIG    1       13.503  -1.093  -3.264  0.00  0.00    +0.163 C 
BRANCH  22  23
ATOM     23  C   LIG    1       14.953  -0.639  -3.446  0.00  0.00    +0.015 C 
ATOM     24  C   LIG    1       15.825  -1.431  -4.421  0.00  0.00    +0.006 C 
ATOM     25  C   LIG    1       16.053  -1.559  -2.914  0.00  0.00    +0.006 C 
ENDBRANCH  22  23
ENDBRANCH  21  22
ENDBRANCH  20  21
ENDBRANCH  19  20
ENDBRANCH   4  19
TORSDOF 12
