REMARK  Name = ZINC01489321
REMARK                            x       y       z     vdW  Elec       q    Type
REMARK                         _______ _______ _______ _____ _____    ______ ____
ROOT
ATOM      1  C   LIG    1        3.486   0.597  -0.026  0.00  0.00    -0.041 C 
ATOM      2  C   LIG    1        2.448   1.144  -0.014  0.00  0.00    -0.058 C 
ENDROOT
BRANCH   1   6
ATOM      3  C   LIG    1        8.430   0.620  -0.071  0.00  0.00    +0.073 C 
ATOM      4  C   LIG    1        7.051   0.010  -0.062  0.00  0.00    +0.077 A 
ATOM      5  N   LIG    1        5.889   0.614  -0.048  0.00  0.00    -0.236 NA
ATOM      6  C   LIG    1        4.753  -0.071  -0.041  0.00  0.00    +0.121 A 
ATOM      7  C   LIG    1        4.834  -1.442  -0.043  0.00  0.00    +0.083 A 
ATOM      8  S   LIG    1        6.606  -1.667  -0.066  0.00  0.00    -0.080 S 
ENDBRANCH   1   6
BRANCH   2   9
ATOM      9  C   LIG    1        1.181   1.811   0.001  0.00  0.00    +0.043 A 
ATOM     10  C   LIG    1       -0.013   1.076   0.008  0.00  0.00    +0.020 A 
ATOM     11  C   LIG    1       -1.209   1.769   0.017  0.00  0.00    +0.021 A 
ATOM     12  C   LIG    1       -1.191   3.153   0.029  0.00  0.00    +0.111 A 
ATOM     13  N   LIG    1       -0.053   3.820   0.022  0.00  0.00    -0.262 NA
ATOM     14  C   LIG    1        1.113   3.207   0.008  0.00  0.00    +0.127 A 
ENDBRANCH   2   9
TORSDOF 2
