REMARK  Name = ZINC01616841
REMARK                            x       y       z     vdW  Elec       q    Type
REMARK                         _______ _______ _______ _____ _____    ______ ____
ROOT
ATOM      1  C   LIG    1       -4.429   5.259   0.068  0.00  0.00    +0.000 A 
ATOM      2  C   LIG    1       -3.784   6.486   0.069  0.00  0.00    +0.002 A 
ATOM      3  C   LIG    1       -2.407   6.554   0.056  0.00  0.00    +0.023 A 
ATOM      4  C   LIG    1       -1.652   5.386   0.043  0.00  0.00    +0.031 A 
ATOM      5  C   LIG    1       -2.306   4.144   0.043  0.00  0.00    -0.022 A 
ATOM      6  C   LIG    1       -1.251   3.120   0.028  0.00  0.00    +0.045 C 
ATOM      7  C   LIG    1       -1.229   1.731   0.017  0.00  0.00    +0.029 C 
ATOM      8  C   LIG    1       -0.013   1.076   0.008  0.00  0.00    +0.106 C 
ATOM      9  N   LIG    1        1.143   1.740   0.001  0.00  0.00    -0.317 N 
ATOM     10  C   LIG    1        1.166   3.073   0.007  0.00  0.00    +0.165 C 
ATOM     11  C   LIG    1        2.583   3.519  -0.003  0.00  0.00    +0.187 C 
ATOM     12  C   LIG    1        3.367   2.262  -0.016  0.00  0.00    +0.040 A 
ATOM     13  C   LIG    1        4.727   1.986  -0.029  0.00  0.00    +0.013 A 
ATOM     14  C   LIG    1        5.159   0.669  -0.039  0.00  0.00    +0.001 A 
ATOM     15  C   LIG    1        4.239  -0.362  -0.036  0.00  0.00    +0.002 A 
ATOM     16  C   LIG    1        2.880  -0.097  -0.024  0.00  0.00    +0.024 A 
ATOM     17  O   LIG    1        3.004   4.658  -0.002  0.00  0.00    -0.290 OA
ATOM     18  C   LIG    1        2.428   1.219  -0.013  0.00  0.00    +0.041 A 
ATOM     19  C   LIG    1       -0.020   3.814   0.021  0.00  0.00    +0.106 C 
ATOM     20  N   LIG    1       -0.284   5.162   0.030  0.00  0.00    -0.338 N 
ATOM     21  H   LIG    1        0.390   5.859   0.028  0.00  0.00    +0.146 HD
ATOM     22  C   LIG    1       -3.699   4.091   0.055  0.00  0.00    +0.006 A 
ENDROOT
TORSDOF 0
