REMARK  Name = ZINC01634177
REMARK                            x       y       z     vdW  Elec       q    Type
REMARK                         _______ _______ _______ _____ _____    ______ ____
ROOT
ATOM      1  N   LIG    1       -0.742   1.591  -1.167  0.00  0.00    +0.387 N 
ATOM      2  H   LIG    1       -0.831   2.611  -1.094  0.00  0.00    -0.080 HD
ATOM      3  C   LIG    1       -0.013   1.086   0.008  0.00  0.00    -0.007 C 
ATOM      4  C   LIG    1        1.402   1.602  -0.003  0.00  0.00    -0.054 A 
ATOM      5  C   LIG    1        2.126   1.569   1.180  0.00  0.00    +0.002 A 
ATOM      6  C   LIG    1        3.428   2.027   1.215  0.00  0.00    +0.000 A 
ATOM      7  C   LIG    1        4.014   2.524   0.065  0.00  0.00    +0.000 A 
ATOM      8  C   LIG    1        3.294   2.559  -1.112  0.00  0.00    +0.004 A 
ATOM      9  C   LIG    1        1.986   2.100  -1.148  0.00  0.00    -0.047 A 
ATOM     10  C   LIG    1        1.236   2.167  -2.453  0.00  0.00    +0.017 C 
ATOM     11  C   LIG    1        0.007   1.259  -2.396  0.00  0.00    -0.073 C 
ENDROOT
BRANCH   3  12
ATOM     12  C   LIG    1       -0.708   1.567   1.255  0.00  0.00    -0.057 A 
ATOM     13  C   LIG    1       -1.215   2.852   1.312  0.00  0.00    +0.002 A 
ATOM     14  C   LIG    1       -1.857   3.291   2.455  0.00  0.00    +0.000 A 
ATOM     15  C   LIG    1       -1.984   2.450   3.544  0.00  0.00    +0.000 A 
ATOM     16  C   LIG    1       -1.472   1.166   3.489  0.00  0.00    +0.000 A 
ATOM     17  C   LIG    1       -0.834   0.725   2.345  0.00  0.00    +0.002 A 
ENDBRANCH   3  12
BRANCH   1  19
ATOM     18  C   LIG    1       -2.908   1.697  -2.307  0.00  0.00    -0.017 C 
ATOM     19  C   LIG    1       -2.095   0.992  -1.220  0.00  0.00    -0.081 C 
ENDBRANCH   1  19
TORSDOF 2
