REMARK  Name = ZINC01648303
REMARK                            x       y       z     vdW  Elec       q    Type
REMARK                         _______ _______ _______ _____ _____    ______ ____
ROOT
ATOM      1  C   LIG    1        1.626  -2.546   2.397  0.00  0.00    +0.097 C 
ENDROOT
BRANCH   1   2
ATOM      2  C   LIG    1        0.800  -2.287   3.630  0.00  0.00    +0.308 C 
ATOM      3  O   LIG    1       -0.352  -2.682   3.686  0.00  0.00    -0.251 OA
BRANCH   2   4
ATOM      4  O   LIG    1        1.283  -1.681   4.571  0.00  0.00    -0.480 OA
ATOM      5  H   LIG    1        2.169  -1.377   4.528  0.00  0.00    +0.295 HD
ENDBRANCH   2   4
ENDBRANCH   1   2
BRANCH   1   6
ATOM      6  C   LIG    1        1.817  -4.054   2.219  0.00  0.00    +0.011 C 
ATOM      7  C   LIG    1        2.658  -4.601   3.374  0.00  0.00    +0.004 C 
ENDBRANCH   1   6
BRANCH   1   8
ATOM      8  C   LIG    1        0.908  -1.975   1.172  0.00  0.00    +0.014 C 
BRANCH   8   9
ATOM      9  C   LIG    1        0.828  -0.452   1.293  0.00  0.00    +0.001 C 
BRANCH   9  11
ATOM     10  C   LIG    1        0.148   1.653   0.132  0.00  0.00    +0.004 C 
ATOM     11  C   LIG    1        0.229   0.130   0.011  0.00  0.00    -0.003 C 
ENDBRANCH   9  11
ENDBRANCH   8   9
ENDBRANCH   1   8
TORSDOF 6
