REMARK  Name = ZINC01569432
REMARK                            x       y       z     vdW  Elec       q    Type
REMARK                         _______ _______ _______ _____ _____    ______ ____
ROOT
ATOM      1  C   LIG    1        1.071   7.426   0.029  0.00  0.00    +0.260 C 
ATOM      2  N   LIG    1        2.233   8.110   0.021  0.00  0.00    -0.230 N 
ATOM      3  H   LIG    1        3.077   7.632   0.010  0.00  0.00    +0.173 HD
ATOM      4  O   LIG    1        0.014   8.025   0.042  0.00  0.00    -0.269 OA
ENDROOT
BRANCH   1  10
ATOM      5  C   LIG    1       -0.013   1.076   0.008  0.00  0.00    +0.001 A 
ATOM      6  C   LIG    1       -1.235   1.745   0.017  0.00  0.00    +0.001 A 
ATOM      7  C   LIG    1       -1.288   3.105   0.030  0.00  0.00    +0.008 A 
ATOM      8  C   LIG    1       -0.094   3.849   0.023  0.00  0.00    -0.017 A 
ATOM      9  C   LIG    1       -0.113   5.251   0.029  0.00  0.00    +0.021 A 
ATOM     10  C   LIG    1        1.084   5.949   0.021  0.00  0.00    +0.039 A 
ATOM     11  C   LIG    1        2.311   5.261   0.006  0.00  0.00    +0.014 A 
ATOM     12  C   LIG    1        2.348   3.904  -0.000  0.00  0.00    +0.009 A 
ATOM     13  C   LIG    1        1.150   3.167   0.008  0.00  0.00    -0.018 A 
ATOM     14  C   LIG    1        1.163   1.762   0.000  0.00  0.00    +0.008 A 
ENDBRANCH   1  10
BRANCH   2  15
ATOM     15  N   LIG    1        2.221   9.511   0.028  0.00  0.00    -0.230 N 
ATOM     16  H   LIG    1        1.377   9.989   0.039  0.00  0.00    +0.173 HD
ATOM     17  C   LIG    1        3.383  10.194   0.020  0.00  0.00    +0.263 C 
ATOM     18  O   LIG    1        4.441   9.595   0.007  0.00  0.00    -0.269 OA
BRANCH  17  19
ATOM     19  C   LIG    1        3.371  11.671   0.028  0.00  0.00    +0.073 A 
ATOM     20  C   LIG    1        2.157  12.363   0.037  0.00  0.00    +0.016 A 
ATOM     21  C   LIG    1        2.153  13.741   0.049  0.00  0.00    +0.001 A 
ATOM     22  C   LIG    1        3.347  14.442   0.041  0.00  0.00    +0.003 A 
ATOM     23  C   LIG    1        4.553  13.767   0.026  0.00  0.00    +0.039 A 
ATOM     24  C   LIG    1        4.574  12.384   0.019  0.00  0.00    +0.136 A 
ATOM     25  F   LIG    1        5.752  11.724   0.005  0.00  0.00    -0.205 F 
ENDBRANCH  17  19
ENDBRANCH   2  15
TORSDOF 3
