REMARK  Name = ZINC01612418
REMARK                            x       y       z     vdW  Elec       q    Type
REMARK                         _______ _______ _______ _____ _____    ______ ____
ROOT
ATOM      1  C   LIG    1       -2.503   3.314   1.618  0.00  0.00    -0.095 C 
ATOM      2  N   LIG    1       -1.386   2.845   0.729  0.00  0.00    +0.385 N 
ATOM      3  H   LIG    1       -0.673   3.581   0.667  0.00  0.00    -0.081 HD
ATOM      4  C   LIG    1       -0.789   1.611   1.246  0.00  0.00    -0.035 C 
ATOM      5  C   LIG    1       -1.954   0.657   1.423  0.00  0.00    -0.033 A 
ATOM      6  C   LIG    1       -2.146  -0.424   2.356  0.00  0.00    +0.002 A 
ATOM      7  C   LIG    1       -1.361  -0.948   3.388  0.00  0.00    +0.010 A 
ATOM      8  C   LIG    1       -1.878  -2.012   4.085  0.00  0.00    +0.001 A 
ATOM      9  C   LIG    1       -3.119  -2.552   3.790  0.00  0.00    +0.002 A 
ATOM     10  C   LIG    1       -3.918  -2.054   2.776  0.00  0.00    +0.026 A 
ATOM     11  C   LIG    1       -3.420  -0.973   2.052  0.00  0.00    +0.047 A 
ATOM     12  N   LIG    1       -3.938  -0.254   1.011  0.00  0.00    -0.358 N 
ATOM     13  H   LIG    1       -4.801  -0.413   0.598  0.00  0.00    +0.166 HD
ATOM     14  C   LIG    1       -3.056   0.722   0.640  0.00  0.00    +0.017 A 
ATOM     15  C   LIG    1       -3.214   1.752  -0.461  0.00  0.00    +0.038 C 
ATOM     16  C   LIG    1       -0.013   1.086   0.008  0.00  0.00    -0.012 C 
ATOM     17  C   LIG    1       -0.807   1.621  -1.202  0.00  0.00    -0.016 C 
ATOM     18  C   LIG    1       -1.899   2.528  -0.606  0.00  0.00    -0.062 C 
ENDROOT
TORSDOF 0
