REMARK  Name = ZINC01667535
REMARK                            x       y       z     vdW  Elec       q    Type
REMARK                         _______ _______ _______ _____ _____    ______ ____
ROOT
ATOM      1  S   LIG    1        3.890   2.319  -0.024  0.00  0.00    +0.074 S 
ATOM      2  O   LIG    1        3.595   3.599  -0.566  0.00  0.00    -0.150 OA
ATOM      3  O   LIG    1        4.872   1.461  -0.589  0.00  0.00    -0.150 OA
ENDROOT
BRANCH   1   6
ATOM      4  C   LIG    1       -0.017   1.385   0.010  0.00  0.00    +0.024 A 
ATOM      5  C   LIG    1        1.171   2.090   0.002  0.00  0.00    +0.030 A 
ATOM      6  C   LIG    1        2.377   1.415  -0.013  0.00  0.00    +0.109 A 
ATOM      7  C   LIG    1        2.400   0.032  -0.021  0.00  0.00    +0.030 A 
ATOM      8  C   LIG    1        1.216  -0.679  -0.014  0.00  0.00    +0.024 A 
ATOM      9  C   LIG    1        0.002  -0.004   0.002  0.00  0.00    +0.025 A 
BRANCH   9  10
ATOM     10  N   LIG    1       -1.197  -0.720   0.010  0.00  0.00    -0.358 N 
ATOM     11  H   LIG    1       -1.183  -1.690   0.005  0.00  0.00    +0.142 HD
ATOM     12  H   LIG    1       -2.044  -0.248   0.021  0.00  0.00    +0.142 HD
ENDBRANCH   9  10
ENDBRANCH   1   6
BRANCH   1  13
ATOM     13  N   LIG    1        4.326   2.562   1.555  0.00  0.00    -0.192 N 
ATOM     14  H   LIG    1        3.759   2.215   2.281  0.00  0.00    +0.176 HD
BRANCH  13  15
ATOM     15  C   LIG    1        5.490   3.254   1.854  0.00  0.00    +0.200 A 
ATOM     16  N   LIG    1        6.387   3.805   1.046  0.00  0.00    -0.125 NA
ATOM     17  N   LIG    1        7.403   4.406   1.492  0.00  0.00    -0.148 NA
ATOM     18  C   LIG    1        7.638   4.524   2.783  0.00  0.00    +0.183 A 
ATOM     19  S   LIG    1        6.210   3.666   3.440  0.00  0.00    -0.038 S 
ENDBRANCH  13  15
ENDBRANCH   1  13
TORSDOF 4
