REMARK  Name = ZINC01606984
REMARK                            x       y       z     vdW  Elec       q    Type
REMARK                         _______ _______ _______ _____ _____    ______ ____
ROOT
ATOM      1  C   LIG    1        0.920   1.170   5.088  0.00  0.00    +0.009 A 
ATOM      2  C   LIG    1        2.132   1.674   5.525  0.00  0.00    +0.009 A 
ATOM      3  C   LIG    1        2.903   0.953   6.413  0.00  0.00    +0.009 A 
ATOM      4  C   LIG    1        2.459  -0.286   6.871  0.00  0.00    -0.018 A 
ATOM      5  C   LIG    1        1.237  -0.789   6.429  0.00  0.00    +0.009 A 
ATOM      6  C   LIG    1        0.472  -0.057   5.544  0.00  0.00    +0.009 A 
ENDROOT
BRANCH   1  13
ATOM      7  C   LIG    1       -0.212   3.752   1.927  0.00  0.00    -0.092 C 
ATOM      8  N   LIG    1       -0.402   2.307   1.743  0.00  0.00    +0.381 N 
ATOM      9  C   LIG    1       -0.045   1.937   0.367  0.00  0.00    -0.092 C 
ATOM     10  C   LIG    1       -1.808   1.962   1.994  0.00  0.00    -0.047 C 
ATOM     11  C   LIG    1       -2.178   2.348   3.429  0.00  0.00    +0.145 C 
ATOM     12  O   LIG    1       -1.302   1.677   4.338  0.00  0.00    -0.348 OA
ATOM     13  C   LIG    1        0.083   1.962   4.118  0.00  0.00    +0.179 C 
ATOM     14  C   LIG    1        0.456   1.575   2.685  0.00  0.00    -0.005 C 
BRANCH  13  15
ATOM     15  O   LIG    1        0.318   3.358   4.312  0.00  0.00    -0.362 OA
ATOM     16  H   LIG    1        0.100   3.675   5.200  0.00  0.00    +0.213 HD
ENDBRANCH  13  15
ENDBRANCH   1  13
BRANCH   4  17
ATOM     17  C   LIG    1        3.284  -1.066   7.827  0.00  0.00    -0.018 A 
ATOM     18  C   LIG    1        4.503  -0.560   8.273  0.00  0.00    +0.009 A 
ATOM     19  C   LIG    1        5.266  -1.290   9.162  0.00  0.00    +0.009 A 
ATOM     20  C   LIG    1        4.822  -2.522   9.609  0.00  0.00    +0.009 A 
ATOM     21  C   LIG    1        3.613  -3.029   9.169  0.00  0.00    +0.009 A 
ATOM     22  C   LIG    1        2.839  -2.305   8.285  0.00  0.00    +0.009 A 
BRANCH  20  23
ATOM     23  C   LIG    1        5.660  -3.314  10.579  0.00  0.00    +0.179 C 
ATOM     24  C   LIG    1        6.619  -4.221   9.803  0.00  0.00    -0.005 C 
ATOM     25  N   LIG    1        7.474  -4.950  10.751  0.00  0.00    +0.381 N 
ATOM     26  C   LIG    1        6.637  -5.766  11.639  0.00  0.00    -0.092 C 
ATOM     27  C   LIG    1        8.396  -5.821  10.008  0.00  0.00    -0.092 C 
ATOM     28  C   LIG    1        8.246  -3.989  11.551  0.00  0.00    -0.047 C 
ATOM     29  C   LIG    1        7.285  -3.083  12.323  0.00  0.00    +0.145 C 
ATOM     30  O   LIG    1        6.417  -2.420  11.399  0.00  0.00    -0.348 OA
BRANCH  23  31
ATOM     31  O   LIG    1        4.809  -4.113  11.403  0.00  0.00    -0.362 OA
ATOM     32  H   LIG    1        4.176  -3.602  11.926  0.00  0.00    +0.213 HD
ENDBRANCH  23  31
ENDBRANCH  20  23
ENDBRANCH   4  17
TORSDOF 5
