REMARK  Name = ZINC01544798
REMARK                            x       y       z     vdW  Elec       q    Type
REMARK                         _______ _______ _______ _____ _____    ______ ____
ROOT
ATOM      1  C   LIG    1        5.438  -0.888  -1.039  0.00  0.00    +0.102 A 
ATOM      2  C   LIG    1        5.786  -0.155   0.102  0.00  0.00    +0.040 A 
ATOM      3  C   LIG    1        7.003   0.460   0.175  0.00  0.00    +0.063 A 
ATOM      4 CL   LIG    1        7.428   1.367   1.593  0.00  0.00    -0.082 Cl
ATOM      5  C   LIG    1        7.906   0.362  -0.883  0.00  0.00    +0.047 A 
ATOM      6  C   LIG    1        7.575  -0.362  -2.021  0.00  0.00    +0.070 A 
ATOM      7  C   LIG    1        6.347  -0.993  -2.104  0.00  0.00    +0.136 A 
ENDROOT
BRANCH   5   8
ATOM      8  N   LIG    1        9.143   0.993  -0.798  0.00  0.00    -0.357 N 
ATOM      9  H   LIG    1        9.773   0.926  -1.533  0.00  0.00    +0.142 HD
ATOM     10  H   LIG    1        9.376   1.499  -0.004  0.00  0.00    +0.142 HD
ENDBRANCH   5   8
BRANCH   1  11
ATOM     11  C   LIG    1        4.127  -1.550  -1.119  0.00  0.00    +0.343 C 
ATOM     12  O   LIG    1        3.829  -2.191  -2.108  0.00  0.00    -0.245 OA
BRANCH  11  13
ATOM     13  O   LIG    1        3.257  -1.448  -0.095  0.00  0.00    -0.463 OA
BRANCH  13  14
ATOM     14  C   LIG    1        2.002  -2.116  -0.240  0.00  0.00    +0.214 C 
BRANCH  14  15
ATOM     15  C   LIG    1        1.154  -1.888   1.012  0.00  0.00    -0.037 C 
BRANCH  15  16
ATOM     16  N   LIG    1        0.823  -0.461   1.126  0.00  0.00    +0.382 N 
ATOM     17  H   LIG    1        1.672   0.084   1.110  0.00  0.00    -0.082 HD
BRANCH  16  19
ATOM     18  C   LIG    1       -0.264   1.446   0.039  0.00  0.00    -0.017 C 
ATOM     19  C   LIG    1       -0.033  -0.066  -0.001  0.00  0.00    -0.082 C 
ENDBRANCH  16  19
BRANCH  16  20
ATOM     20  C   LIG    1        0.111  -0.222   2.389  0.00  0.00    -0.082 C 
ATOM     21  C   LIG    1        1.053  -0.495   3.563  0.00  0.00    -0.017 C 
ENDBRANCH  16  20
ENDBRANCH  15  16
ENDBRANCH  14  15
ENDBRANCH  13  14
ENDBRANCH  11  13
ENDBRANCH   1  11
BRANCH   7  22
ATOM     22  O   LIG    1        6.020  -1.707  -3.211  0.00  0.00    -0.494 OA
ATOM     23  C   LIG    1        6.995  -1.769  -4.253  0.00  0.00    +0.277 C 
ENDBRANCH   7  22
TORSDOF 9
