REMARK  Name = ZINC01630141
REMARK                            x       y       z     vdW  Elec       q    Type
REMARK                         _______ _______ _______ _____ _____    ______ ____
ROOT
ATOM      1  C   LIG    1       -3.510   2.675   1.861  0.00  0.00    -0.091 C 
ATOM      2  N   LIG    1       -3.661   3.040   0.446  0.00  0.00    +0.386 N 
ATOM      3  C   LIG    1       -4.917   3.783   0.257  0.00  0.00    -0.069 C 
ATOM      4  C   LIG    1       -6.053   3.013   0.930  0.00  0.00    +0.017 C 
ATOM      5  C   LIG    1       -6.064   1.591   0.422  0.00  0.00    -0.044 A 
ATOM      6  C   LIG    1       -7.238   0.858   0.593  0.00  0.00    +0.053 A 
ATOM      7  C   LIG    1       -7.255  -0.447   0.129  0.00  0.00    +0.167 A 
ATOM      8  C   LIG    1       -6.127  -1.006  -0.491  0.00  0.00    +0.166 A 
ATOM      9  O   LIG    1       -6.411  -2.280  -0.846  0.00  0.00    -0.453 OA
ATOM     10  C   LIG    1       -7.589  -2.637  -0.093  0.00  0.00    +0.466 C 
ATOM     11  C   LIG    1       -4.966  -0.269  -0.656  0.00  0.00    +0.052 A 
ATOM     12  O   LIG    1       -8.240  -1.374   0.159  0.00  0.00    -0.453 OA
ATOM     13  C   LIG    1       -4.955   1.047  -0.186  0.00  0.00    -0.053 A 
ATOM     14  C   LIG    1       -2.545   3.894   0.029  0.00  0.00    -0.035 C 
ATOM     15  C   LIG    1       -1.251   3.126   0.027  0.00  0.00    -0.015 A 
ATOM     16  C   LIG    1       -0.056   3.837   0.021  0.00  0.00    +0.163 A 
ATOM     17  C   LIG    1        1.159   3.163   0.008  0.00  0.00    +0.162 A 
ATOM     18  C   LIG    1        1.177   1.778   0.000  0.00  0.00    +0.050 A 
ATOM     19  C   LIG    1       -0.013   1.076   0.008  0.00  0.00    +0.007 A 
ATOM     20  C   LIG    1       -1.225   1.748   0.017  0.00  0.00    -0.043 A 
ATOM     21  C   LIG    1       -2.498   0.941   0.027  0.00  0.00    +0.025 C 
ATOM     22  C   LIG    1       -3.680   1.828  -0.378  0.00  0.00    -0.030 C 
ENDROOT
BRANCH  16  23
ATOM     23  O   LIG    1       -0.076   5.197   0.029  0.00  0.00    -0.491 OA
ATOM     24  C   LIG    1       -0.096   5.852  -1.241  0.00  0.00    +0.277 C 
ENDBRANCH  16  23
BRANCH  17  25
ATOM     25  O   LIG    1        2.327   3.860   0.004  0.00  0.00    -0.491 OA
ATOM     26  C   LIG    1        3.537   3.100  -0.009  0.00  0.00    +0.277 C 
ENDBRANCH  17  25
TORSDOF 2
