REMARK  Name = ZINC01642928
REMARK                            x       y       z     vdW  Elec       q    Type
REMARK                         _______ _______ _______ _____ _____    ______ ____
ROOT
ATOM      1  C   LIG    1        9.827  -1.552   3.708  0.00  0.00    +0.020 A 
ATOM      2  C   LIG    1        8.878  -0.558   3.533  0.00  0.00    +0.015 A 
ATOM      3  C   LIG    1        8.259  -0.449   2.284  0.00  0.00    +0.047 A 
ATOM      4  C   LIG    1        8.630  -1.342   1.260  0.00  0.00    +0.123 A 
ATOM      5  C   LIG    1        7.999  -1.215  -0.080  0.00  0.00    +0.226 C 
ATOM      6  C   LIG    1        6.816  -0.308  -0.188  0.00  0.00    +0.092 C 
ATOM      7  C   LIG    1        6.875   0.969   0.632  0.00  0.00    +0.138 C 
ATOM      8  N   LIG    1        5.803  -0.594  -0.934  0.00  0.00    -0.284 NA
ATOM      9  O   LIG    1        8.425  -1.821  -1.043  0.00  0.00    -0.284 OA
ATOM     10  N   LIG    1        9.539  -2.278   1.484  0.00  0.00    -0.251 NA
ATOM     11  C   LIG    1        7.233   0.582   2.050  0.00  0.00    +0.171 C 
ATOM     12  O   LIG    1        6.680   1.116   2.988  0.00  0.00    -0.292 OA
ATOM     13  C   LIG    1       10.131  -2.400   2.655  0.00  0.00    +0.111 A 
ENDROOT
BRANCH   8  14
ATOM     14  C   LIG    1        5.723  -1.900  -1.592  0.00  0.00    +0.146 C 
BRANCH  14  15
ATOM     15  C   LIG    1        5.807  -1.712  -3.108  0.00  0.00    +0.058 C 
BRANCH  15  16
ATOM     16  C   LIG    1        5.725  -3.056  -3.786  0.00  0.00    -0.043 A 
ATOM     17  C   LIG    1        6.879  -3.774  -4.037  0.00  0.00    +0.022 A 
ATOM     18  C   LIG    1        6.807  -5.006  -4.659  0.00  0.00    +0.061 A 
ATOM     19 BR   LIG    1        8.387  -5.987  -5.004  0.00  0.00    -0.046 Br
ATOM     20  C   LIG    1        5.574  -5.523  -5.030  0.00  0.00    +0.145 A 
ATOM     21  C   LIG    1        4.416  -4.801  -4.776  0.00  0.00    +0.061 A 
ATOM     22 BR   LIG    1        2.734  -5.502  -5.280  0.00  0.00    -0.046 Br
ATOM     23  C   LIG    1        4.494  -3.571  -4.149  0.00  0.00    +0.022 A 
BRANCH  20  24
ATOM     24  O   LIG    1        5.500  -6.735  -5.642  0.00  0.00    -0.505 OA
ATOM     25  H   LIG    1        5.406  -7.479  -5.031  0.00  0.00    +0.292 HD
ENDBRANCH  20  24
ENDBRANCH  15  16
ENDBRANCH  14  15
ENDBRANCH   8  14
TORSDOF 4
