REMARK  Name = ZINC01652792
REMARK                            x       y       z     vdW  Elec       q    Type
REMARK                         _______ _______ _______ _____ _____    ______ ____
ROOT
ATOM      1  C   LIG    1        2.404  -0.027  -0.021  0.00  0.00    +0.121 A 
ATOM      2  C   LIG    1        1.177  -0.686  -0.012  0.00  0.00    +0.048 A 
ATOM      3  C   LIG    1        0.002  -0.004   0.002  0.00  0.00    +0.032 A 
ATOM      4  C   LIG    1       -0.017   1.411   0.010  0.00  0.00    +0.079 A 
ATOM      5  C   LIG    1        1.243   2.054   0.001  0.00  0.00    +0.043 A 
ATOM      6  S   LIG    1        0.793   3.772   0.014  0.00  0.00    -0.067 S 
ATOM      7  C   LIG    1       -0.979   3.539   0.030  0.00  0.00    +0.109 A 
ATOM      8  N   LIG    1       -1.089   2.229   0.019  0.00  0.00    -0.239 NA
ATOM      9  C   LIG    1        2.428   1.359  -0.014  0.00  0.00    +0.062 A 
ENDROOT
BRANCH   7  10
ATOM     10  C   LIG    1       -2.048   4.559   0.044  0.00  0.00    +0.007 A 
ATOM     11  C   LIG    1       -1.720   5.916   0.053  0.00  0.00    +0.012 A 
ATOM     12  C   LIG    1       -2.719   6.865   0.061  0.00  0.00    +0.023 A 
ATOM     13  C   LIG    1       -4.053   6.472   0.071  0.00  0.00    +0.025 A 
ATOM     14  C   LIG    1       -4.383   5.120   0.068  0.00  0.00    +0.023 A 
ATOM     15  C   LIG    1       -3.389   4.167   0.055  0.00  0.00    +0.012 A 
BRANCH  13  16
ATOM     16  N   LIG    1       -5.062   7.434   0.085  0.00  0.00    -0.358 N 
ATOM     17  H   LIG    1       -4.833   8.376   0.087  0.00  0.00    +0.142 HD
ATOM     18  H   LIG    1       -5.992   7.161   0.092  0.00  0.00    +0.142 HD
ENDBRANCH  13  16
ENDBRANCH   7  10
BRANCH   1  20
ATOM     19  C   LIG    1        3.456  -2.160  -0.040  0.00  0.00    +0.277 C 
ATOM     20  O   LIG    1        3.565  -0.735  -0.035  0.00  0.00    -0.495 OA
ENDBRANCH   1  20
TORSDOF 3
