REMARK  Name = ZINC01634585
REMARK                            x       y       z     vdW  Elec       q    Type
REMARK                         _______ _______ _______ _____ _____    ______ ____
ROOT
ATOM      1  C   LIG    1        4.776   1.519  -5.420  0.00  0.00    +0.007 A 
ATOM      2  C   LIG    1        5.379   1.813  -6.627  0.00  0.00    +0.046 A 
ATOM      3  C   LIG    1        6.591   2.487  -6.653  0.00  0.00    +0.131 A 
ATOM      4  C   LIG    1        7.197   2.873  -5.449  0.00  0.00    +0.100 A 
ATOM      5  C   LIG    1        6.573   2.574  -4.235  0.00  0.00    +0.022 A 
ATOM      6  C   LIG    1        5.369   1.903  -4.229  0.00  0.00    -0.046 A 
ENDROOT
BRANCH   3   7
ATOM      7  O   LIG    1        7.187   2.771  -7.838  0.00  0.00    -0.506 OA
ATOM      8  H   LIG    1        7.789   2.082  -8.150  0.00  0.00    +0.292 HD
ENDBRANCH   3   7
BRANCH   4   9
ATOM      9  C   LIG    1        8.484   3.590  -5.463  0.00  0.00    +0.340 C 
ATOM     10  O   LIG    1        9.024   3.848  -6.521  0.00  0.00    -0.245 OA
BRANCH   9  11
ATOM     11  O   LIG    1        9.063   3.959  -4.304  0.00  0.00    -0.477 OA
ATOM     12  H   LIG    1        8.647   3.760  -3.488  0.00  0.00    +0.295 HD
ENDBRANCH   9  11
ENDBRANCH   4   9
BRANCH   6  13
ATOM     13  C   LIG    1        4.697   1.581  -2.919  0.00  0.00    +0.040 C 
BRANCH  13  14
ATOM     14  C   LIG    1        3.768   2.731  -2.526  0.00  0.00    +0.043 C 
BRANCH  14  15
ATOM     15  C   LIG    1        3.096   2.409  -1.216  0.00  0.00    -0.002 A 
ATOM     16  C   LIG    1        1.842   1.830  -1.207  0.00  0.00    +0.052 A 
ATOM     17  C   LIG    1        1.224   1.533  -0.001  0.00  0.00    +0.117 A 
ATOM     18  C   LIG    1        1.862   1.822   1.196  0.00  0.00    +0.049 A 
ATOM     19  C   LIG    1        3.119   2.396   1.187  0.00  0.00    +0.049 A 
ATOM     20  C   LIG    1        3.737   2.693  -0.019  0.00  0.00    +0.120 A 
BRANCH  17  21
ATOM     21  O   LIG    1       -0.011   0.963   0.007  0.00  0.00    -0.507 OA
ATOM     22  H   LIG    1        0.002  -0.004   0.002  0.00  0.00    +0.292 HD
ENDBRANCH  17  21
BRANCH  20  23
ATOM     23  O   LIG    1        4.971   3.263  -0.028  0.00  0.00    -0.506 OA
ATOM     24  H   LIG    1        4.958   4.230  -0.022  0.00  0.00    +0.292 HD
ENDBRANCH  20  23
ENDBRANCH  14  15
ENDBRANCH  13  14
ENDBRANCH   6  13
TORSDOF 8
