REMARK  Name = ZINC01508815
REMARK                            x       y       z     vdW  Elec       q    Type
REMARK                         _______ _______ _______ _____ _____    ______ ____
ROOT
ATOM      1  C   LIG    1       -1.294  -0.776   0.017  0.00  0.00    +0.061 C 
ENDROOT
BRANCH   1   2
ATOM      2  C   LIG    1        0.002  -0.007  -0.004  0.00  0.00    +0.161 C 
ATOM      3  O   LIG    1        1.058  -0.601  -0.040  0.00  0.00    -0.292 OA
BRANCH   2   4
ATOM      4  C   LIG    1       -0.015   1.464   0.019  0.00  0.00    +0.017 A 
ATOM      5  C   LIG    1       -1.232   2.152   0.055  0.00  0.00    +0.011 A 
ATOM      6  C   LIG    1       -1.240   3.531   0.083  0.00  0.00    +0.001 A 
ATOM      7  C   LIG    1       -0.048   4.234   0.064  0.00  0.00    +0.000 A 
ATOM      8  C   LIG    1        1.161   3.560   0.022  0.00  0.00    +0.001 A 
ATOM      9  C   LIG    1        1.185   2.181   0.000  0.00  0.00    +0.011 A 
ENDBRANCH   2   4
ENDBRANCH   1   2
BRANCH   1  10
ATOM     10  C   LIG    1       -0.997  -2.277  -0.014  0.00  0.00    -0.071 C 
BRANCH  10  11
ATOM     11  N   LIG    1       -2.268  -3.014   0.149  0.00  0.00    +0.380 N 
ATOM     12  H   LIG    1       -2.831  -2.553   0.873  0.00  0.00    -0.082 HD
BRANCH  11  14
ATOM     13  C   LIG    1       -4.420  -3.577  -0.869  0.00  0.00    -0.017 C 
ATOM     14  C   LIG    1       -3.022  -3.008  -1.122  0.00  0.00    -0.082 C 
ENDBRANCH  11  14
BRANCH  11  15
ATOM     15  C   LIG    1       -1.994  -4.405   0.568  0.00  0.00    -0.082 C 
ATOM     16  C   LIG    1       -1.645  -4.410   2.057  0.00  0.00    -0.017 C 
ENDBRANCH  11  15
ENDBRANCH  10  11
ENDBRANCH   1  10
TORSDOF 6
