REMARK  Name = ZINC01662183
REMARK                            x       y       z     vdW  Elec       q    Type
REMARK                         _______ _______ _______ _____ _____    ______ ____
ROOT
ATOM      1  C   LIG    1        0.252   1.625   0.150  0.00  0.00    +0.016 C 
ATOM      2  C   LIG    1       -0.593   1.864  -1.105  0.00  0.00    -0.011 C 
ATOM      3  C   LIG    1        0.114   1.246  -2.314  0.00  0.00    -0.078 C 
ATOM      4  N   LIG    1        1.438   1.885  -2.474  0.00  0.00    +0.381 N 
ATOM      5  H   LIG    1        1.310   2.901  -2.553  0.00  0.00    -0.082 HD
ATOM      6  C   LIG    1        2.285   1.599  -1.297  0.00  0.00    -0.078 C 
ATOM      7  C   LIG    1        1.644   2.227  -0.058  0.00  0.00    -0.011 C 
ENDROOT
BRANCH   1  11
ATOM      8  C   LIG    1       -1.620   3.486   3.509  0.00  0.00    +0.000 A 
ATOM      9  C   LIG    1       -1.399   2.122   3.509  0.00  0.00    +0.000 A 
ATOM     10  C   LIG    1       -0.793   1.520   2.423  0.00  0.00    +0.004 A 
ATOM     11  C   LIG    1       -0.409   2.282   1.335  0.00  0.00    -0.044 A 
ATOM     12  C   LIG    1       -0.625   3.647   1.337  0.00  0.00    +0.004 A 
ATOM     13  C   LIG    1       -1.235   4.249   2.422  0.00  0.00    +0.000 A 
ENDBRANCH   1  11
BRANCH   4  14
ATOM     14  C   LIG    1        2.093   1.387  -3.701  0.00  0.00    -0.051 C 
BRANCH  14  15
ATOM     15  C   LIG    1        1.147   1.588  -4.887  0.00  0.00    +0.137 C 
BRANCH  15  16
ATOM     16  O   LIG    1        0.873   2.981  -5.047  0.00  0.00    -0.397 OA
ATOM     17  H   LIG    1        0.279   3.183  -5.783  0.00  0.00    +0.209 HD
ENDBRANCH  15  16
ENDBRANCH  14  15
ENDBRANCH   4  14
TORSDOF 4
