REMARK  Name = ZINC01468126
REMARK                            x       y       z     vdW  Elec       q    Type
REMARK                         _______ _______ _______ _____ _____    ______ ____
ROOT
ATOM      1  C   LIG    1       -1.257  -0.759   0.011  0.00  0.00    +0.021 C 
ATOM      2  C   LIG    1       -2.332  -0.285   0.701  0.00  0.00    +0.046 C 
ATOM      3  C   LIG    1       -2.446   1.008   1.414  0.00  0.00    +0.008 A 
ATOM      4  C   LIG    1       -1.572   2.074   1.600  0.00  0.00    +0.010 A 
ATOM      5  C   LIG    1       -1.977   3.171   2.333  0.00  0.00    +0.001 A 
ATOM      6  C   LIG    1       -3.248   3.209   2.881  0.00  0.00    +0.002 A 
ATOM      7  C   LIG    1       -4.126   2.160   2.696  0.00  0.00    +0.024 A 
ATOM      8  C   LIG    1       -3.734   1.044   1.964  0.00  0.00    +0.042 A 
ATOM      9  N   LIG    1       -4.402  -0.132   1.644  0.00  0.00    -0.281 N 
ATOM     10  H   LIG    1       -5.433  -0.292   1.993  0.00  0.00    +0.155 HD
ATOM     11  C   LIG    1       -3.632  -0.949   0.906  0.00  0.00    +0.249 C 
ATOM     12  O   LIG    1       -3.951  -2.045   0.481  0.00  0.00    -0.270 OA
ENDROOT
BRANCH   1  16
ATOM     13  C   LIG    1        2.010   1.802  -0.847  0.00  0.00    -0.045 A 
ATOM     14  C   LIG    1        0.714   2.258  -1.017  0.00  0.00    +0.004 A 
ATOM     15  C   LIG    1       -0.354   1.432  -0.741  0.00  0.00    +0.008 A 
ATOM     16  C   LIG    1       -0.125   0.128  -0.287  0.00  0.00    -0.024 A 
ATOM     17  C   LIG    1        1.188  -0.326  -0.117  0.00  0.00    +0.008 A 
ATOM     18  C   LIG    1        2.245   0.513  -0.398  0.00  0.00    +0.004 A 
BRANCH  13  20
ATOM     19  C   LIG    1        3.116   3.135  -2.621  0.00  0.00    +0.012 C 
ATOM     20  C   LIG    1        3.171   2.712  -1.152  0.00  0.00    +0.013 C 
ATOM     21  C   LIG    1        3.094   3.953  -0.260  0.00  0.00    +0.012 C 
ENDBRANCH  13  20
ENDBRANCH   1  16
TORSDOF 2
