REMARK  Name = ZINC01492251
REMARK                            x       y       z     vdW  Elec       q    Type
REMARK                         _______ _______ _______ _____ _____    ______ ____
ROOT
ATOM      1  C   UNK    1        1.796   1.513  -1.422  0.00  0.00    -0.048 C 
ATOM      2  N   UNK    1        1.353   1.610  -0.030  0.00  0.00    +0.386 N 
ATOM      3  H   UNK    1        1.965   1.051   0.576  0.00  0.00    -0.085 HD
ATOM      4  H   UNK    1        1.366   2.589   0.279  0.00  0.00    -0.085 HD
ATOM      5  C   UNK    1       -0.013   1.086   0.008  0.00  0.00    -0.014 C 
ATOM      6  C   UNK    1       -0.648   1.623  -1.293  0.00  0.00    +0.129 C 
ATOM      7  C   UNK    1        0.542   1.904  -2.233  0.00  0.00    +0.125 C 
ENDROOT
BRANCH   6   8
ATOM      8  O   UNK    1       -1.512   0.640  -1.865  0.00  0.00    -0.391 OA
ATOM      9  H   UNK    1       -1.940   0.922  -2.686  0.00  0.00    +0.210 HD
ENDBRANCH   6   8
BRANCH   7  10
ATOM     10  O   UNK    1        0.586   3.290  -2.578  0.00  0.00    -0.391 OA
ATOM     11  H   UNK    1        1.340   3.534  -3.132  0.00  0.00    +0.210 HD
ENDBRANCH   7  10
BRANCH   5  12
ATOM     12  C   UNK    1       -0.776   1.601   1.230  0.00  0.00    +0.143 C 
BRANCH  12  13
ATOM     13  O   UNK    1       -0.218   1.031   2.415  0.00  0.00    -0.397 OA
ATOM     14  H   UNK    1       -0.653   1.314   3.231  0.00  0.00    +0.209 HD
ENDBRANCH  12  13
ENDBRANCH   5  12
TORSDOF 4
