REMARK  Name = ZINC01543773
REMARK                            x       y       z     vdW  Elec       q    Type
REMARK                         _______ _______ _______ _____ _____    ______ ____
ROOT
ATOM      1  C   LIG    1       -2.523  -2.987  -0.034  0.00  0.00    +0.031 A 
ATOM      2  C   LIG    1       -1.370  -2.226   0.006  0.00  0.00    +0.059 A 
ATOM      3  C   LIG    1       -0.248  -3.184   0.036  0.00  0.00    +0.053 A 
ATOM      4  C   LIG    1       -0.832  -4.460   0.021  0.00  0.00    +0.054 A 
ATOM      5  C   LIG    1       -0.013  -5.585   0.046  0.00  0.00    +0.026 A 
ATOM      6  C   LIG    1        1.357  -5.441   0.091  0.00  0.00    +0.006 A 
ATOM      7  C   LIG    1        1.936  -4.182   0.113  0.00  0.00    +0.046 A 
ATOM      8  C   LIG    1        1.140  -3.050   0.089  0.00  0.00    +0.131 A 
ATOM      9  N   LIG    1       -2.202  -4.293  -0.025  0.00  0.00    -0.339 N 
ENDROOT
BRANCH   1  11
ATOM     10  C   LIG    1       -4.449  -2.254   1.345  0.00  0.00    +0.010 C 
ATOM     11  C   LIG    1       -3.926  -2.437  -0.081  0.00  0.00    +0.051 C 
ENDBRANCH   1  11
BRANCH   2  12
ATOM     12  C   LIG    1       -1.279  -0.767   0.010  0.00  0.00    +0.249 C 
ATOM     13  O   LIG    1       -1.192  -0.167   1.064  0.00  0.00    -0.282 OA
BRANCH  12  14
ATOM     14  C   LIG    1       -1.294  -0.015  -1.278  0.00  0.00    +0.282 C 
ATOM     15  N   LIG    1       -1.318   1.332  -1.271  0.00  0.00    -0.323 N 
ATOM     16  H   LIG    1       -1.330   1.813  -0.428  0.00  0.00    +0.145 HD
ATOM     17  H   LIG    1       -1.328   1.821  -2.108  0.00  0.00    +0.145 HD
ATOM     18  O   LIG    1       -1.285  -0.617  -2.332  0.00  0.00    -0.267 OA
ENDBRANCH  12  14
ENDBRANCH   2  12
BRANCH   8  19
ATOM     19  O   LIG    1        1.707  -1.815   0.110  0.00  0.00    -0.480 OA
BRANCH  19  20
ATOM     20  C   LIG    1        3.134  -1.758   0.158  0.00  0.00    +0.349 C 
BRANCH  20  21
ATOM     21  C   LIG    1        3.578  -0.318   0.175  0.00  0.00    +0.343 C 
ATOM     22  O   LIG    1        2.757   0.568   0.150  0.00  0.00    -0.247 OA
BRANCH  21  23
ATOM     23  O   LIG    1        4.886  -0.019   0.219  0.00  0.00    -0.478 OA
ATOM     24  H   LIG    1        5.523  -0.706   0.239  0.00  0.00    +0.295 HD
ENDBRANCH  21  23
ENDBRANCH  20  21
ENDBRANCH  19  20
ENDBRANCH   8  19
BRANCH   9  25
ATOM     25  C   LIG    1       -3.173  -5.390  -0.059  0.00  0.00    +0.157 C 
BRANCH  25  26
ATOM     26  C   LIG    1       -3.459  -5.764  -1.491  0.00  0.00    -0.028 A 
ATOM     27  C   LIG    1       -4.489  -5.146  -2.174  0.00  0.00    +0.005 A 
ATOM     28  C   LIG    1       -4.747  -5.486  -3.489  0.00  0.00    +0.000 A 
ATOM     29  C   LIG    1       -3.983  -6.451  -4.117  0.00  0.00    +0.000 A 
ATOM     30  C   LIG    1       -2.956  -7.073  -3.431  0.00  0.00    +0.000 A 
ATOM     31  C   LIG    1       -2.694  -6.730  -2.118  0.00  0.00    +0.005 A 
ENDBRANCH  25  26
ENDBRANCH   9  25
TORSDOF 9
