REMARK  Name = ZINC01446453
REMARK                            x       y       z     vdW  Elec       q    Type
REMARK                         _______ _______ _______ _____ _____    ______ ____
ROOT
ATOM      1  C   LIG    1       -1.571   3.310   0.667  0.00  0.00    +0.097 A 
ATOM      2  C   LIG    1       -1.308   2.117   0.020  0.00  0.00    +0.074 A 
ATOM      3  N   LIG    1       -2.440   1.739  -0.604  0.00  0.00    -0.341 N 
ATOM      4  H   LIG    1       -2.460   0.810  -1.193  0.00  0.00    +0.167 HD
ATOM      5  C   LIG    1       -3.377   2.616  -0.375  0.00  0.00    +0.111 A 
ATOM      6  N   LIG    1       -2.888   3.607   0.402  0.00  0.00    -0.232 NA
ENDROOT
BRANCH   1  10
ATOM      7  C   LIG    1        1.140   5.598   2.999  0.00  0.00    +0.000 A 
ATOM      8  C   LIG    1        0.327   6.228   2.074  0.00  0.00    +0.001 A 
ATOM      9  C   LIG    1       -0.556   5.491   1.313  0.00  0.00    +0.010 A 
ATOM     10  C   LIG    1       -0.628   4.106   1.478  0.00  0.00    +0.002 A 
ATOM     11  C   LIG    1        0.191   3.478   2.418  0.00  0.00    +0.010 A 
ATOM     12  C   LIG    1        1.074   4.226   3.168  0.00  0.00    +0.001 A 
ENDBRANCH   1  10
BRANCH   2  13
ATOM     13  C   LIG    1       -0.017   1.391   0.010  0.00  0.00    +0.000 A 
ATOM     14  C   LIG    1        1.185   2.099   0.002  0.00  0.00    +0.010 A 
ATOM     15  C   LIG    1        2.384   1.417  -0.013  0.00  0.00    +0.001 A 
ATOM     16  C   LIG    1        2.396   0.033  -0.021  0.00  0.00    +0.000 A 
ATOM     17  C   LIG    1        1.208  -0.675  -0.013  0.00  0.00    +0.001 A 
ATOM     18  C   LIG    1        0.002  -0.004   0.002  0.00  0.00    +0.010 A 
ENDBRANCH   2  13
BRANCH   5  19
ATOM     19  C   LIG    1       -4.787   2.539  -0.901  0.00  0.00    +0.055 C 
ATOM     20  C   LIG    1       -5.292   3.949  -1.214  0.00  0.00    +0.011 C 
ATOM     21  C   LIG    1       -6.724   3.871  -1.749  0.00  0.00    +0.001 C 
ATOM     22  C   LIG    1       -7.627   3.228  -0.694  0.00  0.00    +0.000 C 
ATOM     23  C   LIG    1       -7.122   1.818  -0.381  0.00  0.00    +0.001 C 
ATOM     24  C   LIG    1       -5.690   1.896   0.153  0.00  0.00    +0.011 C 
ENDBRANCH   5  19
TORSDOF 3
