REMARK  Name = ZINC01609260
REMARK                            x       y       z     vdW  Elec       q    Type
REMARK                         _______ _______ _______ _____ _____    ______ ____
ROOT
ATOM      1  C   LIG    1        1.685  -2.053  -0.025  0.00  0.00    +0.013 A 
ATOM      2  C   LIG    1        3.041  -2.031  -0.037  0.00  0.00    +0.102 A 
ATOM      3  N   LIG    1        3.480  -0.734  -0.035  0.00  0.00    -0.300 N 
ATOM      4  C   LIG    1        2.413   0.127  -0.020  0.00  0.00    +0.151 A 
ATOM      5  N   LIG    1        2.294   1.454  -0.012  0.00  0.00    -0.217 NA
ATOM      6  C   LIG    1        1.107   2.021   0.002  0.00  0.00    +0.225 A 
ATOM      7  N   LIG    1       -0.016   1.326   0.009  0.00  0.00    -0.220 NA
ATOM      8  C   LIG    1        0.002  -0.004   0.002  0.00  0.00    +0.129 A 
ATOM      9  C   LIG    1        1.244  -0.652  -0.013  0.00  0.00    +0.066 A 
ENDROOT
BRANCH   1  13
ATOM     10  C   LIG    1       -0.802  -5.501  -0.019  0.00  0.00    +0.000 A 
ATOM     11  C   LIG    1        0.218  -5.389  -0.947  0.00  0.00    +0.001 A 
ATOM     12  C   LIG    1        1.029  -4.272  -0.954  0.00  0.00    +0.008 A 
ATOM     13  C   LIG    1        0.818  -3.256  -0.023  0.00  0.00    -0.016 A 
ATOM     14  C   LIG    1       -0.208  -3.377   0.914  0.00  0.00    +0.008 A 
ATOM     15  C   LIG    1       -1.016  -4.496   0.907  0.00  0.00    +0.001 A 
ENDBRANCH   1  13
BRANCH   3  16
ATOM     16  C   LIG    1        4.825  -0.344  -0.044  0.00  0.00    +0.048 A 
ATOM     17  C   LIG    1        5.271   0.592  -0.968  0.00  0.00    +0.026 A 
ATOM     18  C   LIG    1        6.597   0.980  -0.970  0.00  0.00    +0.002 A 
ATOM     19  C   LIG    1        7.482   0.428  -0.063  0.00  0.00    +0.000 A 
ATOM     20  C   LIG    1        7.043  -0.510   0.854  0.00  0.00    +0.002 A 
ATOM     21  C   LIG    1        5.717  -0.897   0.866  0.00  0.00    +0.026 A 
ENDBRANCH   3  16
BRANCH   8  22
ATOM     22  N   LIG    1       -1.176  -0.729   0.009  0.00  0.00    -0.343 N 
ATOM     23  H   LIG    1       -1.149  -1.699   0.004  0.00  0.00    +0.144 HD
ATOM     24  H   LIG    1       -2.029  -0.268   0.019  0.00  0.00    +0.144 HD
ENDBRANCH   8  22
TORSDOF 3
