REMARK  Name = ZINC01608877
REMARK                            x       y       z     vdW  Elec       q    Type
REMARK                         _______ _______ _______ _____ _____    ______ ____
ROOT
ATOM      1  C   LIG    1       -1.274  -1.890  -2.003  0.00  0.00    +0.046 C 
ATOM      2  C   LIG    1        0.211  -1.671  -1.839  0.00  0.00    -0.028 A 
ATOM      3  C   LIG    1        1.048  -2.441  -2.640  0.00  0.00    +0.005 A 
ATOM      4  C   LIG    1        2.411  -2.245  -2.627  0.00  0.00    +0.005 A 
ATOM      5  C   LIG    1        2.946  -1.258  -1.818  0.00  0.00    -0.035 A 
ATOM      6  C   LIG    1        4.434  -1.015  -1.816  0.00  0.00    +0.045 C 
ATOM      7  C   LIG    1        2.121  -0.506  -1.003  0.00  0.00    +0.037 A 
ATOM      8  S   LIG    1        2.809   0.806  -0.048  0.00  0.00    -0.085 S 
ATOM      9  C   LIG    1        1.432   1.850   0.285  0.00  0.00    +0.042 A 
ATOM     10  C   LIG    1        1.616   3.205   0.607  0.00  0.00    -0.002 A 
ATOM     11  C   LIG    1        2.898   3.772   0.697  0.00  0.00    +0.009 A 
ATOM     12  C   LIG    1        3.034   5.087   1.021  0.00  0.00    +0.001 A 
ATOM     13  C   LIG    1        1.918   5.886   1.263  0.00  0.00    +0.001 A 
ATOM     14  C   LIG    1        0.659   5.375   1.176  0.00  0.00    +0.008 A 
ATOM     15  C   LIG    1        0.479   4.022   0.842  0.00  0.00    -0.017 A 
ATOM     16  C   LIG    1       -0.805   3.464   0.735  0.00  0.00    +0.010 A 
ATOM     17  C   LIG    1       -0.956   2.142   0.443  0.00  0.00    +0.025 A 
ATOM     18  C   LIG    1        0.152   1.317   0.241  0.00  0.00    +0.048 A 
ATOM     19  N   LIG    1       -0.008  -0.047  -0.019  0.00  0.00    -0.298 N 
ATOM     20  C   LIG    1        0.737  -0.760  -0.948  0.00  0.00    +0.051 A 
ENDROOT
BRANCH  19  21
ATOM     21  C   LIG    1       -0.952  -0.759   0.849  0.00  0.00    +0.109 C 
BRANCH  21  22
ATOM     22  C   LIG    1       -0.247  -1.163   2.145  0.00  0.00    +0.001 C 
BRANCH  22  23
ATOM     23  C   LIG    1       -1.215  -1.956   3.026  0.00  0.00    -0.078 C 
BRANCH  23  24
ATOM     24  N   LIG    1       -0.526  -2.321   4.282  0.00  0.00    +0.376 N 
ATOM     25  H   LIG    1       -0.114  -1.476   4.694  0.00  0.00    -0.083 HD
ATOM     26  C   LIG    1        0.551  -3.294   4.004  0.00  0.00    -0.097 C 
ATOM     27  C   LIG    1       -1.494  -2.898   5.239  0.00  0.00    -0.097 C 
ENDBRANCH  23  24
ENDBRANCH  22  23
ENDBRANCH  21  22
ENDBRANCH  19  21
TORSDOF 4
