REMARK  Name = ZINC01617170
REMARK                            x       y       z     vdW  Elec       q    Type
REMARK                         _______ _______ _______ _____ _____    ______ ____
ROOT
ATOM      1  C   LIG    1        1.910  -3.643  -0.106  0.00  0.00    +0.221 A 
ATOM      2  N   LIG    1        2.390  -4.134   1.028  0.00  0.00    -0.199 NA
ATOM      3  C   LIG    1        3.273  -5.127   1.016  0.00  0.00    +0.137 A 
ATOM      4  C   LIG    1        3.691  -5.647  -0.211  0.00  0.00    +0.094 A 
ATOM      5 BR   LIG    1        4.947  -7.060  -0.284  0.00  0.00    -0.044 Br
ATOM      6  C   LIG    1        3.166  -5.106  -1.370  0.00  0.00    +0.150 A 
ATOM      7 CL   LIG    1        3.652  -5.715  -2.922  0.00  0.00    -0.061 Cl
ATOM      8  N   LIG    1        2.284  -4.119  -1.283  0.00  0.00    -0.201 NA
ENDROOT
BRANCH   1  13
ATOM      9  C   LIG    1       -0.018   1.465   0.010  0.00  0.00    +0.105 C 
ATOM     10  N   LIG    1        0.002  -0.004   0.002  0.00  0.00    -0.302 NA
ATOM     11  C   LIG    1        0.592  -0.516  -1.242  0.00  0.00    +0.103 C 
ATOM     12  C   LIG    1        0.430  -2.039  -1.292  0.00  0.00    +0.123 C 
ATOM     13  N   LIG    1        0.991  -2.608  -0.057  0.00  0.00    -0.297 N 
ATOM     14  C   LIG    1        0.549  -2.051   1.230  0.00  0.00    +0.123 C 
ATOM     15  C   LIG    1        0.706  -0.527   1.180  0.00  0.00    +0.103 C 
ENDBRANCH   1  13
BRANCH   3  16
ATOM     16  N   LIG    1        3.772  -5.638   2.203  0.00  0.00    -0.342 N 
ATOM     17  H   LIG    1        4.417  -6.362   2.187  0.00  0.00    +0.144 HD
ATOM     18  H   LIG    1        3.477  -5.270   3.051  0.00  0.00    +0.144 HD
ENDBRANCH   3  16
TORSDOF 2
