REMARK  Name = ZINC01481833
REMARK                            x       y       z     vdW  Elec       q    Type
REMARK                         _______ _______ _______ _____ _____    ______ ____
ROOT
ATOM      1  C   LIG    1       -0.013   1.076   0.008  0.00  0.00    +0.131 A 
ATOM      2  C   LIG    1        1.192   1.783   0.000  0.00  0.00    +0.131 A 
ATOM      3  N   LIG    1        1.198   3.096   0.007  0.00  0.00    -0.252 NA
ATOM      4  C   LIG    1        0.040   3.765   0.022  0.00  0.00    +0.089 A 
ATOM      5  C   LIG    1        0.013   5.170   0.034  0.00  0.00    +0.034 A 
ATOM      6  C   LIG    1       -1.181   5.824   0.045  0.00  0.00    -0.041 A 
ATOM      7  C   LIG    1       -2.386   5.116   0.047  0.00  0.00    -0.041 A 
ATOM      8  C   LIG    1       -3.534   6.115   0.059  0.00  0.00    +0.003 C 
ATOM      9  C   LIG    1       -2.903   7.376  -0.598  0.00  0.00    +0.012 C 
ATOM     10  C   LIG    1       -3.794   6.487   1.531  0.00  0.00    -0.074 C 
ATOM     11  N   LIG    1       -2.501   6.694   2.220  0.00  0.00    +0.380 N 
ATOM     12  H   LIG    1       -1.981   5.809   2.231  0.00  0.00    -0.086 HD
ATOM     13  H   LIG    1       -2.679   6.999   3.184  0.00  0.00    -0.086 HD
ATOM     14  C   LIG    1       -1.690   7.722   1.530  0.00  0.00    -0.074 C 
ATOM     15  C   LIG    1       -2.396   3.756   0.039  0.00  0.00    +0.034 A 
ATOM     16  C   LIG    1       -1.494   7.314   0.058  0.00  0.00    +0.003 C 
ATOM     17  C   LIG    1       -1.182   3.047   0.028  0.00  0.00    +0.089 A 
ATOM     18  N   LIG    1       -1.163   1.710   0.017  0.00  0.00    -0.252 NA
ENDROOT
TORSDOF 0
