REMARK  Name = ZINC01534967
REMARK                            x       y       z     vdW  Elec       q    Type
REMARK                         _______ _______ _______ _____ _____    ______ ____
ROOT
ATOM      1  C   LIG    1        3.697  -0.687  -0.038  0.00  0.00    +0.117 C 
ATOM      2  N   LIG    1        4.696   0.041   0.374  0.00  0.00    -0.084 NA
ENDROOT
BRANCH   1   6
ATOM      3  C   LIG    1        0.284   1.168  -1.762  0.00  0.00    +0.000 A 
ATOM      4  C   LIG    1        1.440   1.901  -1.564  0.00  0.00    +0.001 A 
ATOM      5  C   LIG    1        2.552   1.305  -1.005  0.00  0.00    +0.010 A 
ATOM      6  C   LIG    1        2.507  -0.040  -0.639  0.00  0.00    +0.004 A 
ATOM      7  C   LIG    1        1.339  -0.774  -0.840  0.00  0.00    +0.010 A 
ATOM      8  C   LIG    1        0.234  -0.166  -1.400  0.00  0.00    +0.001 A 
ENDBRANCH   1   6
BRANCH   1   9
ATOM      9  C   LIG    1        3.752  -2.162   0.093  0.00  0.00    +0.004 A 
ATOM     10  C   LIG    1        3.228  -2.974  -0.912  0.00  0.00    +0.010 A 
ATOM     11  C   LIG    1        3.282  -4.347  -0.784  0.00  0.00    +0.001 A 
ATOM     12  C   LIG    1        3.854  -4.918   0.339  0.00  0.00    +0.000 A 
ATOM     13  C   LIG    1        4.375  -4.117   1.340  0.00  0.00    +0.001 A 
ATOM     14  C   LIG    1        4.332  -2.743   1.220  0.00  0.00    +0.010 A 
ENDBRANCH   1   9
BRANCH   2  15
ATOM     15  O   LIG    1        5.883  -0.581   0.830  0.00  0.00    -0.395 OA
BRANCH  15  16
ATOM     16  C   LIG    1        6.894   0.337   1.251  0.00  0.00    +0.244 C 
BRANCH  16  17
ATOM     17  C   LIG    1        8.126  -0.440   1.721  0.00  0.00    -0.034 C 
BRANCH  17  18
ATOM     18  N   LIG    1        8.709  -1.166   0.585  0.00  0.00    +0.385 N 
ATOM     19  H   LIG    1        8.005  -1.751   0.160  0.00  0.00    -0.081 HD
ATOM     20  C   LIG    1        9.827  -1.999   1.054  0.00  0.00    -0.074 C 
ATOM     21  C   LIG    1       10.247  -2.939  -0.079  0.00  0.00    +0.009 C 
ATOM     22  C   LIG    1       10.441  -2.147  -1.343  0.00  0.00    -0.020 C 
ATOM     23  C   LIG    1        9.972  -0.919  -1.486  0.00  0.00    +0.016 C 
ATOM     24  C   LIG    1        9.211  -0.206  -0.406  0.00  0.00    -0.036 C 
BRANCH  23  25
ATOM     25  C   LIG    1       10.204  -0.223  -2.757  0.00  0.00    +0.331 C 
ATOM     26  O   LIG    1       10.820  -0.779  -3.656  0.00  0.00    -0.246 OA
BRANCH  25  27
ATOM     27  O   LIG    1        9.781   0.914  -2.918  0.00  0.00    -0.477 OA
ATOM     28  H   LIG    1        9.309   1.340  -2.230  0.00  0.00    +0.295 HD
ENDBRANCH  25  27
ENDBRANCH  23  25
ENDBRANCH  17  18
ENDBRANCH  16  17
ENDBRANCH  15  16
ENDBRANCH   2  15
TORSDOF 8
