REMARK  Name = ZINC01502387
REMARK                            x       y       z     vdW  Elec       q    Type
REMARK                         _______ _______ _______ _____ _____    ______ ____
ROOT
ATOM      1  C   LIG    1        3.675  -0.733  -0.097  0.00  0.00    +0.100 A 
ATOM      2  C   LIG    1        4.007  -1.870   0.686  0.00  0.00    +0.028 A 
ATOM      3  C   LIG    1        5.320  -2.160   0.448  0.00  0.00    +0.114 A 
ATOM      4  N   LIG    1        5.788  -1.256  -0.435  0.00  0.00    -0.284 N 
ATOM      5  H   LIG    1        6.692  -1.222  -0.785  0.00  0.00    +0.188 HD
ATOM      6  N   LIG    1        4.749  -0.379  -0.767  0.00  0.00    -0.173 NA
ENDROOT
BRANCH   2   7
ATOM      7  C   LIG    1        3.098  -2.605   1.593  0.00  0.00    -0.004 A 
ATOM      8  C   LIG    1        3.304  -2.608   2.967  0.00  0.00    +0.029 A 
ATOM      9  C   LIG    1        2.432  -3.308   3.790  0.00  0.00    +0.112 A 
ATOM     10  N   LIG    1        1.409  -3.974   3.309  0.00  0.00    -0.255 NA
ATOM     11  C   LIG    1        1.148  -4.015   1.998  0.00  0.00    +0.072 A 
ATOM     12  C   LIG    1        0.047  -4.733   1.501  0.00  0.00    +0.028 A 
ATOM     13  C   LIG    1       -0.204  -4.745   0.163  0.00  0.00    +0.002 A 
ATOM     14  C   LIG    1        0.625  -4.068  -0.729  0.00  0.00    +0.001 A 
ATOM     15  C   LIG    1        1.704  -3.366  -0.283  0.00  0.00    +0.010 A 
ATOM     16  C   LIG    1        1.985  -3.324   1.089  0.00  0.00    +0.008 A 
ENDBRANCH   2   7
BRANCH   1  20
ATOM     17  C   LIG    1       -0.120   1.175  -0.260  0.00  0.00    +0.000 A 
ATOM     18  C   LIG    1        0.382   0.743   0.954  0.00  0.00    +0.001 A 
ATOM     19  C   LIG    1        1.613   0.123   1.013  0.00  0.00    +0.010 A 
ATOM     20  C   LIG    1        2.351  -0.068  -0.154  0.00  0.00    +0.003 A 
ATOM     21  C   LIG    1        1.840   0.370  -1.375  0.00  0.00    +0.010 A 
ATOM     22  C   LIG    1        0.607   0.989  -1.421  0.00  0.00    +0.001 A 
ENDBRANCH   1  20
TORSDOF 2
