REMARK  Name = ZINC01542392
REMARK                            x       y       z     vdW  Elec       q    Type
REMARK                         _______ _______ _______ _____ _____    ______ ____
ROOT
ATOM      1  C   LIG    1        0.000  -0.690  -1.200  0.00  0.00    +0.198 C 
ATOM      2  N   LIG    1       -0.015   0.003  -2.323  0.00  0.00    -0.286 NA
ATOM      3  H   LIG    1       -0.024   0.973  -2.291  0.00  0.00    +0.125 HD
ATOM      4  C   LIG    1       -0.018  -0.625  -3.509  0.00  0.00    +0.065 C 
ATOM      5  C   LIG    1       -0.033   0.081  -4.718  0.00  0.00    +0.053 C 
ATOM      6  C   LIG    1       -0.035  -0.611  -5.909  0.00  0.00    +0.148 C 
ATOM      7  C   LIG    1       -0.022  -2.012  -5.922  0.00  0.00    +0.147 C 
ATOM      8  C   LIG    1       -0.007  -2.721  -4.755  0.00  0.00    +0.042 C 
ATOM      9  C   LIG    1       -0.004  -2.042  -3.530  0.00  0.00    +0.040 C 
ATOM     10  C   LIG    1        0.012  -2.731  -2.294  0.00  0.00    +0.126 C 
ATOM     11  N   LIG    1        0.018  -2.019  -1.176  0.00  0.00    -0.273 NA
ATOM     12  H   LIG    1       -0.803  -2.309  -0.645  0.00  0.00    +0.126 HD
ENDROOT
BRANCH  10  13
ATOM     13  N   LIG    1        0.025  -4.110  -2.253  0.00  0.00    -0.315 NA
ATOM     14  H   LIG    1        0.036  -4.570  -1.400  0.00  0.00    +0.120 HD
ATOM     15  H   LIG    1        0.024  -4.619  -3.079  0.00  0.00    +0.120 HD
ENDBRANCH  10  13
BRANCH   1  17
ATOM     16  C   LIG    1       -0.018   1.461   0.010  0.00  0.00    +0.107 C 
ATOM     17  N   LIG    1        0.002  -0.004   0.002  0.00  0.00    -0.278 NA
BRANCH  17  18
ATOM     18  C   LIG    1        0.024  -0.743   1.267  0.00  0.00    +0.088 C 
BRANCH  18  19
ATOM     19  C   LIG    1       -1.411  -1.020   1.720  0.00  0.00    +0.034 C 
BRANCH  19  20
ATOM     20  C   LIG    1       -1.387  -1.792   3.041  0.00  0.00    +0.105 C 
BRANCH  20  21
ATOM     21  N   LIG    1       -2.761  -2.058   3.476  0.00  0.00    -0.313 N 
ATOM     22  H   LIG    1       -3.508  -1.750   2.939  0.00  0.00    +0.149 HD
ATOM     23  C   LIG    1       -2.987  -2.729   4.622  0.00  0.00    +0.242 C 
ATOM     24  O   LIG    1       -2.054  -3.115   5.294  0.00  0.00    -0.273 OA
BRANCH  23  25
ATOM     25  C   LIG    1       -4.401  -3.002   5.069  0.00  0.00    +0.204 C 
ATOM     26  C   LIG    1       -5.113  -1.672   5.396  0.00  0.00    +0.043 C 
ATOM     27  C   LIG    1       -5.943  -2.043   6.655  0.00  0.00    +0.031 C 
ATOM     28  C   LIG    1       -4.998  -3.061   7.341  0.00  0.00    +0.161 C 
ATOM     29  O   LIG    1       -4.388  -3.793   6.263  0.00  0.00    -0.367 OA
ENDBRANCH  23  25
ENDBRANCH  20  21
ENDBRANCH  19  20
ENDBRANCH  18  19
ENDBRANCH  17  18
ENDBRANCH   1  17
BRANCH   6  30
ATOM     30  O   LIG    1       -0.050   0.072  -7.083  0.00  0.00    -0.377 OA
ATOM     31  C   LIG    1       -0.063   1.499  -7.003  0.00  0.00    +0.194 C 
ENDBRANCH   6  30
BRANCH   7  32
ATOM     32  O   LIG    1       -0.025  -2.674  -7.111  0.00  0.00    -0.377 OA
ATOM     33  C   LIG    1       -0.012  -4.102  -7.059  0.00  0.00    +0.194 C 
ENDBRANCH   7  32
TORSDOF 9
