REMARK  Name = ZINC01628348
REMARK                            x       y       z     vdW  Elec       q    Type
REMARK                         _______ _______ _______ _____ _____    ______ ____
ROOT
ATOM      1  C   LIG    1        3.335   3.794  -1.857  0.00  0.00    +0.055 C 
ATOM      2  C   LIG    1        3.600   3.652  -0.357  0.00  0.00    +0.106 C 
ATOM      3  C   LIG    1        4.951   4.282  -0.009  0.00  0.00    +0.055 C 
ATOM      4  C   LIG    1        2.485   4.348   0.435  0.00  0.00    +0.052 C 
ATOM      5  C   LIG    1        1.148   3.744  -0.002  0.00  0.00    +0.047 C 
ATOM      6  C   LIG    1        1.240   2.237   0.002  0.00  0.00    +0.045 C 
ATOM      7  C   LIG    1        2.427   1.601  -0.007  0.00  0.00    +0.175 C 
ATOM      8  C   LIG    1        2.485   0.115  -0.021  0.00  0.00    +0.228 C 
ATOM      9  C   LIG    1        1.238  -0.675  -0.015  0.00  0.00    +0.036 A 
ATOM     10  C   LIG    1        1.270  -2.065  -0.024  0.00  0.00    +0.012 A 
ATOM     11  C   LIG    1        0.083  -2.780  -0.014  0.00  0.00    +0.001 A 
ATOM     12  C   LIG    1       -1.131  -2.121   0.003  0.00  0.00    +0.001 A 
ATOM     13  C   LIG    1       -1.179  -0.735   0.011  0.00  0.00    +0.012 A 
ATOM     14  C   LIG    1        0.002  -0.004   0.002  0.00  0.00    +0.033 A 
ATOM     15  O   LIG    1        3.559  -0.450  -0.038  0.00  0.00    -0.283 OA
ATOM     16  C   LIG    1       -0.018   1.474   0.010  0.00  0.00    +0.193 C 
ATOM     17  O   LIG    1       -1.082   2.063   0.018  0.00  0.00    -0.287 OA
ATOM     18  O   LIG    1        3.604   2.272   0.004  0.00  0.00    -0.482 OA
ENDROOT
TORSDOF 0
