REMARK  Name = ZINC01532511
REMARK                            x       y       z     vdW  Elec       q    Type
REMARK                         _______ _______ _______ _____ _____    ______ ____
ROOT
ATOM      1  C   ASP A  1       -0.434  -2.640  -2.403  0.00  0.00    +0.235 C 
ATOM      2  N   GLU A  2       -0.467  -3.967  -2.638  0.00  0.00    -0.301 N 
ATOM      3  H   GLU A  2       -0.169  -4.588  -1.955  0.00  0.00    +0.150 HD
ATOM      4  O   ASP A  1       -0.806  -1.863  -3.257  0.00  0.00    -0.274 OA
ENDROOT
BRANCH   1   5
ATOM      5  CA  ASP A  1        0.065  -2.121  -1.079  0.00  0.00    +0.169 C 
BRANCH   5   8
ATOM      6  C   UNK A  0       -1.167   1.468  -0.588  0.00  0.00    +0.109 C 
ATOM      7  C   UNK A  0       -1.135  -0.034  -0.703  0.00  0.00    +0.211 C 
ATOM      8  N   ASP A  1        0.001  -0.658  -1.072  0.00  0.00    -0.304 N 
ATOM      9  H   ASP A  1        0.777  -0.138  -1.333  0.00  0.00    +0.149 HD
ATOM     10  O   UNK A  0       -2.132  -0.682  -0.463  0.00  0.00    -0.276 OA
ENDBRANCH   5   8
BRANCH   5  11
ATOM     11  CB  ASP A  1        1.512  -2.570  -0.868  0.00  0.00    +0.152 C 
BRANCH  11  12
ATOM     12  CG  ASP A  1        1.967  -2.170   0.512  0.00  0.00    +0.307 C 
ATOM     13  OD1 ASP A  1        1.233  -1.510   1.228  0.00  0.00    -0.251 OA
BRANCH  12  14
ATOM     14  OD2 ASP A  1        3.068  -2.507   0.913  0.00  0.00    -0.481 OA
ATOM     15  HD2 ASP A  1        3.631  -3.015   0.363  0.00  0.00    +0.295 HD
ENDBRANCH  12  14
ENDBRANCH  11  12
ENDBRANCH   5  11
ENDBRANCH   1   5
BRANCH   2  16
ATOM     16  CA  GLU A  2       -0.952  -4.471  -3.925  0.00  0.00    +0.182 C 
BRANCH  16  17
ATOM     17  C   GLU A  2       -2.454  -4.587  -3.885  0.00  0.00    +0.325 C 
ATOM     18  O   GLU A  2       -3.104  -4.447  -4.907  0.00  0.00    -0.249 OA
BRANCH  17  19
ATOM     19  OXT GLU A  2       -3.020  -4.820  -2.830  0.00  0.00    -0.479 OA
ATOM     20  HXT GLU A  2       -2.520  -4.928  -2.045  0.00  0.00    +0.295 HD
ENDBRANCH  17  19
ENDBRANCH  16  17
BRANCH  16  21
ATOM     21  CB  GLU A  2       -0.341  -5.847  -4.197  0.00  0.00    +0.045 C 
BRANCH  21  22
ATOM     22  CG  GLU A  2        1.174  -5.709  -4.361  0.00  0.00    +0.123 C 
BRANCH  22  23
ATOM     23  CD  GLU A  2        1.776  -7.064  -4.629  0.00  0.00    +0.305 C 
ATOM     24  OE1 GLU A  2        1.059  -8.050  -4.683  0.00  0.00    -0.251 OA
BRANCH  23  25
ATOM     25  OE2 GLU A  2        2.979  -7.176  -4.791  0.00  0.00    -0.481 OA
ATOM     26  HE2 GLU A  2        3.529  -6.419  -4.749  0.00  0.00    +0.295 HD
ENDBRANCH  23  25
ENDBRANCH  22  23
ENDBRANCH  21  22
ENDBRANCH  16  21
ENDBRANCH   2  16
TORSDOF 12
