REMARK  Name = ZINC01645590
REMARK                            x       y       z     vdW  Elec       q    Type
REMARK                         _______ _______ _______ _____ _____    ______ ____
ROOT
ATOM      1  C   LIG    1       -5.971   1.231   3.933  0.00  0.00    +0.181 A 
ATOM      2  C   LIG    1       -6.669   0.475   3.039  0.00  0.00    +0.208 A 
ATOM      3  C   LIG    1       -6.022   0.008   1.866  0.00  0.00    +0.238 A 
ATOM      4  C   LIG    1       -4.610   0.376   1.679  0.00  0.00    +0.109 A 
ATOM      5  C   LIG    1       -3.893  -0.043   0.549  0.00  0.00    +0.135 A 
ATOM      6  C   LIG    1       -2.568   0.323   0.411  0.00  0.00    +0.092 A 
ATOM      7  C   LIG    1       -1.951   1.099   1.386  0.00  0.00    +0.127 A 
ATOM      8  C   LIG    1       -2.651   1.512   2.508  0.00  0.00    +0.092 A 
ATOM      9  C   LIG    1       -3.984   1.160   2.663  0.00  0.00    +0.147 A 
ATOM     10  O   LIG    1       -6.615  -0.672   1.043  0.00  0.00    -0.283 OA
ATOM     11  O   LIG    1       -4.681   1.558   3.748  0.00  0.00    -0.451 OA
ENDROOT
BRANCH   1  15
ATOM     12  C   LIG    1       -7.944   2.603   7.437  0.00  0.00    +0.161 A 
ATOM     13  C   LIG    1       -6.698   1.999   7.534  0.00  0.00    +0.050 A 
ATOM     14  C   LIG    1       -6.055   1.553   6.399  0.00  0.00    +0.015 A 
ATOM     15  C   LIG    1       -6.658   1.708   5.148  0.00  0.00    +0.025 A 
ATOM     16  C   LIG    1       -7.910   2.321   5.050  0.00  0.00    +0.060 A 
ATOM     17  C   LIG    1       -8.551   2.762   6.192  0.00  0.00    +0.159 A 
BRANCH  12  19
ATOM     18  C   LIG    1       -7.895   2.848   9.801  0.00  0.00    +0.277 C 
ATOM     19  O   LIG    1       -8.574   3.042   8.558  0.00  0.00    -0.491 OA
ENDBRANCH  12  19
BRANCH  17  20
ATOM     20  O   LIG    1       -9.772   3.354   6.101  0.00  0.00    -0.503 OA
ATOM     21  H   LIG    1       -9.736   4.313   5.986  0.00  0.00    +0.292 HD
ENDBRANCH  17  20
ENDBRANCH   1  15
BRANCH   2  22
ATOM     22  O   LIG    1       -7.975   0.170   3.271  0.00  0.00    -0.501 OA
ATOM     23  H   LIG    1       -8.105  -0.651   3.765  0.00  0.00    +0.292 HD
ENDBRANCH   2  22
BRANCH   5  24
ATOM     24  O   LIG    1       -4.497  -0.801  -0.401  0.00  0.00    -0.506 OA
ATOM     25  H   LIG    1       -4.425  -1.753  -0.248  0.00  0.00    +0.292 HD
ENDBRANCH   5  24
BRANCH   7  26
ATOM     26  O   LIG    1       -0.648   1.452   1.240  0.00  0.00    -0.495 OA
ATOM     27  C   LIG    1        0.021   0.991   0.064  0.00  0.00    +0.277 C 
ENDBRANCH   7  26
TORSDOF 6
