REMARK  Name = ZINC01548097
REMARK                            x       y       z     vdW  Elec       q    Type
REMARK                         _______ _______ _______ _____ _____    ______ ____
ROOT
ATOM      1  N   LIG    1        1.006   9.553   0.044  0.00  0.00    +0.380 N 
ATOM      2  H   LIG    1        0.012   9.812   0.054  0.00  0.00    -0.082 HD
ATOM      3  C   LIG    1        1.304   8.750   1.249  0.00  0.00    -0.078 C 
ATOM      4  C   LIG    1        0.365   7.543   1.288  0.00  0.00    -0.009 C 
ATOM      5  C   LIG    1        0.582   6.692   0.033  0.00  0.00    +0.038 C 
ATOM      6  C   LIG    1        0.342   7.556  -1.208  0.00  0.00    -0.009 C 
ATOM      7  C   LIG    1        1.283   8.763  -1.174  0.00  0.00    -0.078 C 
ENDROOT
BRANCH   5   8
ATOM      8  C   LIG    1       -0.383   5.535   0.035  0.00  0.00    +0.094 A 
ATOM      9  C   LIG    1       -0.031   4.113   0.024  0.00  0.00    +0.045 A 
ATOM     10  C   LIG    1        1.181   3.418   0.009  0.00  0.00    +0.016 A 
ATOM     11  C   LIG    1        1.182   2.053   0.002  0.00  0.00    +0.039 A 
ATOM     12  C   LIG    1       -0.016   1.347   0.009  0.00  0.00    +0.127 A 
ATOM     13  F   LIG    1        0.002  -0.004   0.002  0.00  0.00    -0.205 F 
ATOM     14  C   LIG    1       -1.224   2.015   0.019  0.00  0.00    +0.088 A 
ATOM     15  C   LIG    1       -1.244   3.404   0.032  0.00  0.00    +0.170 A 
ATOM     16  O   LIG    1       -2.237   4.316   0.047  0.00  0.00    -0.354 OA
ATOM     17  N   LIG    1       -1.678   5.615   0.048  0.00  0.00    -0.082 NA
ENDBRANCH   5   8
BRANCH   1  18
ATOM     18  C   LIG    1        1.823  10.784   0.044  0.00  0.00    -0.076 C 
BRANCH  18  19
ATOM     19  C   LIG    1        1.358  11.684   1.191  0.00  0.00    +0.022 C 
BRANCH  19  20
ATOM     20  C   LIG    1        2.179  12.975   1.190  0.00  0.00    +0.227 C 
BRANCH  20  21
ATOM     21  O   LIG    1        1.745  13.816   2.262  0.00  0.00    -0.488 OA
BRANCH  21  25
ATOM     22  C   LIG    1        3.665  17.449   2.690  0.00  0.00    +0.021 A 
ATOM     23  C   LIG    1        4.036  16.573   1.663  0.00  0.00    +0.015 A 
ATOM     24  C   LIG    1        3.393  15.363   1.525  0.00  0.00    +0.050 A 
ATOM     25  C   LIG    1        2.376  15.009   2.403  0.00  0.00    +0.162 A 
ATOM     26  C   LIG    1        1.996  15.880   3.425  0.00  0.00    +0.162 A 
ATOM     27  C   LIG    1        2.640  17.092   3.574  0.00  0.00    +0.060 A 
BRANCH  22  29
ATOM     28  C   LIG    1        5.453  19.122   1.887  0.00  0.00    +0.091 C 
ATOM     29  C   LIG    1        4.350  18.740   2.840  0.00  0.00    +0.160 C 
ATOM     30  O   LIG    1        4.027  19.498   3.730  0.00  0.00    -0.292 OA
ENDBRANCH  22  29
BRANCH  26  31
ATOM     31  O   LIG    1        0.996  15.531   4.278  0.00  0.00    -0.491 OA
ATOM     32  C   LIG    1        0.660  16.471   5.301  0.00  0.00    +0.277 C 
ENDBRANCH  26  31
ENDBRANCH  21  25
ENDBRANCH  20  21
ENDBRANCH  19  20
ENDBRANCH  18  19
ENDBRANCH   1  18
TORSDOF 8
