REMARK  Name = ZINC01581128
REMARK                            x       y       z     vdW  Elec       q    Type
REMARK                         _______ _______ _______ _____ _____    ______ ____
ROOT
ATOM      1  C   LIG    1        3.367  -1.666  -0.039  0.00  0.00    +0.026 A 
ATOM      2  C   LIG    1        1.988  -1.660  -0.026  0.00  0.00    +0.030 A 
ATOM      3  C   LIG    1        1.298  -0.446  -0.013  0.00  0.00    +0.070 A 
ATOM      4  C   LIG    1        2.070   0.707  -0.013  0.00  0.00    +0.040 A 
ATOM      5  C   LIG    1        3.463   0.739  -0.024  0.00  0.00    +0.054 A 
ATOM      6  C   LIG    1        4.119   2.048  -0.021  0.00  0.00    +0.200 A 
ATOM      7  C   LIG    1        3.282   3.263  -0.010  0.00  0.00    +0.076 A 
ATOM      8  C   LIG    1        3.901   4.524  -0.012  0.00  0.00    +0.129 A 
ATOM      9  C   LIG    1        3.133   5.673  -0.003  0.00  0.00    +0.050 A 
ATOM     10  C   LIG    1        1.750   5.596   0.006  0.00  0.00    +0.049 A 
ATOM     11  C   LIG    1        1.117   4.365   0.008  0.00  0.00    +0.127 A 
ATOM     12  C   LIG    1        1.872   3.191  -0.000  0.00  0.00    +0.058 A 
ATOM     13  O   LIG    1        5.335   2.132  -0.029  0.00  0.00    -0.286 OA
ATOM     14  C   LIG    1        1.209   1.873   0.001  0.00  0.00    +0.105 A 
ATOM     15  N   LIG    1       -0.017   1.406   0.010  0.00  0.00    -0.170 NA
ATOM     16  N   LIG    1        0.002  -0.004   0.002  0.00  0.00    -0.265 N 
ATOM     17  C   LIG    1        4.130  -0.493  -0.038  0.00  0.00    +0.039 A 
ENDROOT
BRANCH   8  18
ATOM     18  O   LIG    1        5.256   4.613  -0.021  0.00  0.00    -0.506 OA
ATOM     19  H   LIG    1        5.655   4.637   0.860  0.00  0.00    +0.292 HD
ENDBRANCH   8  18
BRANCH  11  20
ATOM     20  O   LIG    1       -0.241   4.300   0.018  0.00  0.00    -0.506 OA
ATOM     21  H   LIG    1       -0.627   4.279   0.904  0.00  0.00    +0.292 HD
ENDBRANCH  11  20
BRANCH  17  22
ATOM     22  N   LIG    1        5.516  -0.548  -0.051  0.00  0.00    -0.343 N 
ATOM     23  H   LIG    1        6.034   0.272  -0.050  0.00  0.00    +0.146 HD
BRANCH  22  24
ATOM     24  C   LIG    1        6.197  -1.845  -0.065  0.00  0.00    +0.099 C 
BRANCH  24  25
ATOM     25  C   LIG    1        7.711  -1.626  -0.076  0.00  0.00    -0.001 C 
BRANCH  25  26
ATOM     26  C   LIG    1        8.423  -2.980  -0.091  0.00  0.00    -0.085 C 
BRANCH  26  27
ATOM     27  N   LIG    1        9.879  -2.758  -0.081  0.00  0.00    +0.378 N 
ATOM     28  H   LIG    1       10.139  -2.264   0.781  0.00  0.00    -0.090 HD
ATOM     29  H   LIG    1       10.152  -2.192  -0.883  0.00  0.00    -0.090 HD
ATOM     30  H   LIG    1       10.369  -3.650  -0.113  0.00  0.00    -0.090 HD
ENDBRANCH  26  27
ENDBRANCH  25  26
ENDBRANCH  24  25
ENDBRANCH  22  24
ENDBRANCH  17  22
BRANCH  16  31
ATOM     31  C   LIG    1       -1.183  -0.865   0.008  0.00  0.00    +0.125 C 
BRANCH  31  32
ATOM     32  C   LIG    1       -1.610  -1.156  -1.432  0.00  0.00    -0.059 C 
BRANCH  32  33
ATOM     33  N   LIG    1       -2.803  -2.022  -1.417  0.00  0.00    +0.382 N 
ATOM     34  H   LIG    1       -2.578  -2.901  -0.936  0.00  0.00    -0.086 HD
ATOM     35  H   LIG    1       -3.563  -1.544  -0.919  0.00  0.00    -0.086 HD
BRANCH  33  36
ATOM     36  C   LIG    1       -3.237  -2.320  -2.795  0.00  0.00    -0.054 C 
BRANCH  36  37
ATOM     37  C   LIG    1       -4.475  -3.219  -2.748  0.00  0.00    +0.137 C 
BRANCH  37  38
ATOM     38  O   LIG    1       -5.559  -2.505  -2.152  0.00  0.00    -0.397 OA
ATOM     39  H   LIG    1       -6.379  -3.015  -2.090  0.00  0.00    +0.209 HD
ENDBRANCH  37  38
ENDBRANCH  36  37
ENDBRANCH  33  36
ENDBRANCH  32  33
ENDBRANCH  31  32
ENDBRANCH  16  31
TORSDOF 13
