REMARK  Name = ZINC01578606
REMARK                            x       y       z     vdW  Elec       q    Type
REMARK                         _______ _______ _______ _____ _____    ______ ____
ROOT
ATOM      1  C   LIG    1        0.002   1.440   0.343  0.00  0.00    +0.152 C 
ATOM      2  N   LIG    1        0.011  -0.014   0.164  0.00  0.00    -0.310 N 
ATOM      3  C   LIG    1       -1.177  -0.694   0.108  0.00  0.00    +0.055 A 
ATOM      4  C   LIG    1       -1.210  -2.047  -0.058  0.00  0.00    +0.076 A 
ATOM      5  C   LIG    1       -0.008  -2.763  -0.173  0.00  0.00    +0.175 A 
ATOM      6  C   LIG    1        1.205  -2.063  -0.115  0.00  0.00    +0.113 A 
ATOM      7  C   LIG    1        2.269  -3.061  -0.261  0.00  0.00    +0.126 A 
ATOM      8  N   LIG    1        1.689  -4.227  -0.391  0.00  0.00    -0.077 NA
ATOM      9  O   LIG    1        0.285  -4.063  -0.339  0.00  0.00    -0.354 OA
ATOM     10  C   LIG    1        1.189  -0.660   0.053  0.00  0.00    +0.265 A 
ATOM     11  O   LIG    1        2.236  -0.038   0.100  0.00  0.00    -0.267 OA
ENDROOT
BRANCH   3  12
ATOM     12  C   LIG    1       -2.446   0.052   0.229  0.00  0.00    -0.001 A 
ATOM     13  C   LIG    1       -2.700   1.144  -0.604  0.00  0.00    +0.010 A 
ATOM     14  C   LIG    1       -3.887   1.836  -0.485  0.00  0.00    +0.002 A 
ATOM     15  C   LIG    1       -4.825   1.452   0.456  0.00  0.00    -0.064 A 
ATOM     16  C   LIG    1       -4.580   0.371   1.285  0.00  0.00    +0.002 A 
ATOM     17  C   LIG    1       -3.399  -0.334   1.173  0.00  0.00    +0.010 A 
BRANCH  15  18
ATOM     18  C   LIG    1       -6.120   2.213   0.579  0.00  0.00    -0.044 C 
BRANCH  18  19
ATOM     19  N   LIG    1       -7.126   1.615  -0.309  0.00  0.00    +0.379 N 
ATOM     20  H   LIG    1       -7.216   0.632  -0.102  0.00  0.00    -0.082 HD
ATOM     21  C   LIG    1       -6.707   1.785  -1.707  0.00  0.00    -0.096 C 
ATOM     22  C   LIG    1       -8.419   2.280  -0.101  0.00  0.00    -0.096 C 
ENDBRANCH  18  19
ENDBRANCH  15  18
ENDBRANCH   3  12
BRANCH   7  23
ATOM     23  C   LIG    1        3.729  -2.798  -0.263  0.00  0.00    +0.004 A 
ATOM     24  C   LIG    1        4.227  -1.623  -0.822  0.00  0.00    +0.010 A 
ATOM     25  C   LIG    1        5.586  -1.383  -0.820  0.00  0.00    +0.001 A 
ATOM     26  C   LIG    1        6.453  -2.307  -0.264  0.00  0.00    +0.000 A 
ATOM     27  C   LIG    1        5.964  -3.474   0.292  0.00  0.00    +0.001 A 
ATOM     28  C   LIG    1        4.606  -3.722   0.301  0.00  0.00    +0.010 A 
ENDBRANCH   7  23
TORSDOF 4
