REMARK  Name = ZINC01566881
REMARK                            x       y       z     vdW  Elec       q    Type
REMARK                         _______ _______ _______ _____ _____    ______ ____
ROOT
ATOM      1  C   LIG    1       -2.481   0.960   0.079  0.00  0.00    +0.111 A 
ATOM      2  C   LIG    1       -3.583   1.448   0.820  0.00  0.00    +0.145 A 
ATOM      3  N   LIG    1       -4.749   0.828   0.770  0.00  0.00    -0.209 NA
ATOM      4  C   LIG    1       -4.882  -0.272   0.022  0.00  0.00    +0.187 A 
ATOM      5  C   LIG    1       -3.774  -0.760  -0.714  0.00  0.00    +0.148 A 
ATOM      6  C   LIG    1       -3.952  -1.930  -1.496  0.00  0.00    +0.149 A 
ATOM      7  N   LIG    1       -5.143  -2.510  -1.501  0.00  0.00    -0.198 NA
ATOM      8  C   LIG    1       -6.156  -2.017  -0.794  0.00  0.00    +0.216 A 
ATOM      9  N   LIG    1       -6.045  -0.932  -0.050  0.00  0.00    -0.193 NA
ATOM     10  N   LIG    1       -2.604  -0.126  -0.662  0.00  0.00    -0.237 NA
ENDROOT
BRANCH   1  16
ATOM     11  C   LIG    1        1.543   2.807  -2.227  0.00  0.00    +0.044 C 
ATOM     12  C   LIG    1        0.756   2.558  -0.966  0.00  0.00    -0.050 A 
ATOM     13  C   LIG    1        1.246   2.997   0.252  0.00  0.00    +0.003 A 
ATOM     14  C   LIG    1        0.529   2.773   1.413  0.00  0.00    +0.001 A 
ATOM     15  C   LIG    1       -0.680   2.108   1.364  0.00  0.00    +0.010 A 
ATOM     16  C   LIG    1       -1.181   1.669   0.140  0.00  0.00    +0.004 A 
ATOM     17  C   LIG    1       -0.451   1.893  -1.028  0.00  0.00    +0.013 A 
ENDBRANCH   1  16
BRANCH   2  18
ATOM     18  N   LIG    1       -3.442   2.583   1.597  0.00  0.00    -0.341 N 
ATOM     19  H   LIG    1       -4.152   2.849   2.201  0.00  0.00    +0.144 HD
ATOM     20  H   LIG    1       -2.632   3.113   1.537  0.00  0.00    +0.144 HD
ENDBRANCH   2  18
BRANCH   6  21
ATOM     21  N   LIG    1       -2.910  -2.451  -2.233  0.00  0.00    -0.341 N 
ATOM     22  H   LIG    1       -3.045  -3.252  -2.764  0.00  0.00    +0.144 HD
ATOM     23  H   LIG    1       -2.043  -2.017  -2.221  0.00  0.00    +0.144 HD
ENDBRANCH   6  21
BRANCH   8  24
ATOM     24  N   LIG    1       -7.374  -2.667  -0.841  0.00  0.00    -0.327 N 
ATOM     25  H   LIG    1       -7.478  -3.466  -1.381  0.00  0.00    +0.145 HD
ATOM     26  H   LIG    1       -8.127  -2.325  -0.333  0.00  0.00    +0.145 HD
ENDBRANCH   8  24
TORSDOF 4
