REMARK  Name = ZINC01625746
REMARK                            x       y       z     vdW  Elec       q    Type
REMARK                         _______ _______ _______ _____ _____    ______ ____
ROOT
ATOM      1  C   LIG    1        0.682  -0.483  -1.228  0.00  0.00    +0.188 C 
ATOM      2  C   LIG    1        0.725  -1.991  -1.239  0.00  0.00    +0.008 A 
ATOM      3  C   LIG    1       -0.462  -2.698  -1.471  0.00  0.00    +0.035 A 
ATOM      4  C   LIG    1       -0.457  -4.076  -1.478  0.00  0.00    +0.071 A 
ATOM      5  N   LIG    1        0.708  -4.753  -1.255  0.00  0.00    -0.302 N 
ATOM      6  C   LIG    1        0.434  -6.194  -1.314  0.00  0.00    +0.162 C 
ATOM      7  C   LIG    1       -1.039  -6.338  -1.600  0.00  0.00    +0.000 A 
ATOM      8  C   LIG    1       -1.846  -7.422  -1.761  0.00  0.00    +0.019 A 
ATOM      9  C   LIG    1       -3.211  -7.199  -2.023  0.00  0.00    +0.022 A 
ATOM     10  C   LIG    1       -4.107  -8.274  -2.199  0.00  0.00    +0.043 A 
ATOM     11  C   LIG    1       -5.437  -8.011  -2.452  0.00  0.00    +0.024 A 
ATOM     12  C   LIG    1       -5.897  -6.700  -2.536  0.00  0.00    +0.004 A 
ATOM     13  C   LIG    1       -5.054  -5.645  -2.371  0.00  0.00    +0.028 A 
ATOM     14  C   LIG    1       -3.689  -5.867  -2.110  0.00  0.00    +0.074 A 
ATOM     15  N   LIG    1       -2.849  -4.844  -1.945  0.00  0.00    -0.245 NA
ATOM     16  C   LIG    1        1.856  -4.084  -1.029  0.00  0.00    +0.259 A 
ATOM     17  O   LIG    1        2.885  -4.706  -0.823  0.00  0.00    -0.267 OA
ATOM     18  C   LIG    1       -1.563  -5.039  -1.697  0.00  0.00    +0.093 A 
ATOM     19  C   LIG    1        1.881  -2.674  -1.029  0.00  0.00    +0.061 A 
ATOM     20  C   LIG    1        3.199  -1.979  -0.812  0.00  0.00    +0.273 C 
ATOM     21  O   LIG    1        2.999  -0.606  -0.474  0.00  0.00    -0.457 OA
ATOM     22  C   LIG    1        2.099   0.045  -1.245  0.00  0.00    +0.344 C 
ATOM     23  O   LIG    1        2.411   1.002  -1.914  0.00  0.00    -0.247 OA
ENDROOT
BRANCH  10  24
ATOM     24  N   LIG    1       -3.652  -9.590  -2.116  0.00  0.00    -0.287 N 
ATOM     25  H   LIG    1       -2.854  -9.797  -1.605  0.00  0.00    +0.155 HD
ATOM     26  C   LIG    1       -4.322 -10.575  -2.747  0.00  0.00    +0.200 C 
ATOM     27  O   LIG    1       -5.260 -10.306  -3.467  0.00  0.00    -0.278 OA
BRANCH  26  28
ATOM     28  C   LIG    1       -3.905 -12.011  -2.558  0.00  0.00    +0.011 C 
BRANCH  28  29
ATOM     29  N   LIG    1       -4.786 -12.884  -3.345  0.00  0.00    +0.384 N 
ATOM     30  H   LIG    1       -4.507 -13.846  -3.218  0.00  0.00    -0.089 HD
ATOM     31  H   LIG    1       -4.717 -12.640  -4.321  0.00  0.00    -0.089 HD
ATOM     32  H   LIG    1       -5.739 -12.767  -3.036  0.00  0.00    -0.089 HD
ENDBRANCH  28  29
ENDBRANCH  26  28
ENDBRANCH  10  24
BRANCH   1  34
ATOM     33  C   LIG    1       -0.058   1.530   0.053  0.00  0.00    +0.007 C 
ATOM     34  C   LIG    1       -0.030   0.001   0.036  0.00  0.00    +0.048 C 
ENDBRANCH   1  34
BRANCH   1  35
ATOM     35  O   LIG    1       -0.018  -0.013  -2.382  0.00  0.00    -0.373 OA
ATOM     36  H   LIG    1       -0.078   0.951  -2.440  0.00  0.00    +0.211 HD
ENDBRANCH   1  35
TORSDOF 5
