REMARK  Name = ZINC01481956
REMARK                            x       y       z     vdW  Elec       q    Type
REMARK                         _______ _______ _______ _____ _____    ______ ____
ROOT
ATOM      1  N   LIG    1       -2.115   1.058   1.264  0.00  0.00    +0.380 N 
ATOM      2  H   LIG    1       -2.084   0.034   1.189  0.00  0.00    -0.082 HD
ATOM      3  C   LIG    1       -2.861   1.601   0.109  0.00  0.00    -0.078 C 
ATOM      4  C   LIG    1       -2.206   1.108  -1.183  0.00  0.00    -0.009 C 
ATOM      5  C   LIG    1       -0.755   1.594  -1.231  0.00  0.00    +0.038 C 
ATOM      6  C   LIG    1       -0.013   1.086   0.008  0.00  0.00    -0.009 C 
ATOM      7  C   LIG    1       -0.731   1.580   1.266  0.00  0.00    -0.078 C 
ENDROOT
BRANCH   5   8
ATOM      8  C   LIG    1       -0.086   1.062  -2.472  0.00  0.00    +0.094 A 
ATOM      9  C   LIG    1        0.509   1.861  -3.547  0.00  0.00    +0.045 A 
ATOM     10  C   LIG    1        0.646   3.234  -3.767  0.00  0.00    +0.016 A 
ATOM     11  C   LIG    1        1.266   3.683  -4.898  0.00  0.00    +0.039 A 
ATOM     12  C   LIG    1        1.764   2.783  -5.833  0.00  0.00    +0.127 A 
ATOM     13  F   LIG    1        2.376   3.243  -6.946  0.00  0.00    -0.205 F 
ATOM     14  C   LIG    1        1.640   1.423  -5.633  0.00  0.00    +0.088 A 
ATOM     15  C   LIG    1        1.011   0.948  -4.489  0.00  0.00    +0.170 A 
ATOM     16  O   LIG    1        0.743  -0.289  -4.024  0.00  0.00    -0.354 OA
ATOM     17  N   LIG    1        0.075  -0.188  -2.783  0.00  0.00    -0.082 NA
ENDBRANCH   5   8
BRANCH   1  18
ATOM     18  C   LIG    1       -2.794   1.427   2.523  0.00  0.00    -0.074 C 
BRANCH  18  19
ATOM     19  C   LIG    1       -1.876   1.101   3.703  0.00  0.00    +0.024 C 
BRANCH  19  22
ATOM     20  C   LIG    1       -3.338  -0.912   5.181  0.00  0.00    +0.066 C 
ATOM     21  C   LIG    1       -3.259   0.503   5.694  0.00  0.00    +0.049 A 
ATOM     22  C   LIG    1       -2.573   1.448   4.993  0.00  0.00    +0.036 A 
ATOM     23  C   LIG    1       -2.527   2.756   5.509  0.00  0.00    +0.257 A 
ATOM     24  N   LIG    1       -3.183   3.039   6.664  0.00  0.00    -0.294 N 
ATOM     25  C   LIG    1       -3.828   2.061   7.318  0.00  0.00    +0.141 A 
ATOM     26  C   LIG    1       -4.540   2.287   8.629  0.00  0.00    +0.180 C 
ATOM     27  C   LIG    1       -4.796   3.777   8.850  0.00  0.00    +0.041 C 
ATOM     28  C   LIG    1       -3.480   4.526   8.610  0.00  0.00    +0.025 C 
ATOM     29  C   LIG    1       -3.139   4.428   7.125  0.00  0.00    +0.127 C 
ATOM     30  O   LIG    1       -1.909   3.628   4.922  0.00  0.00    -0.267 OA
ATOM     31  N   LIG    1       -3.859   0.837   6.833  0.00  0.00    -0.236 NA
BRANCH  26  32
ATOM     32  O   LIG    1       -5.789   1.593   8.612  0.00  0.00    -0.384 OA
ATOM     33  H   LIG    1       -5.706   0.637   8.492  0.00  0.00    +0.210 HD
ENDBRANCH  26  32
ENDBRANCH  19  22
ENDBRANCH  18  19
ENDBRANCH   1  18
TORSDOF 5
