REMARK  Name = ZINC01536586
REMARK                            x       y       z     vdW  Elec       q    Type
REMARK                         _______ _______ _______ _____ _____    ______ ____
ROOT
ATOM      1  C   LIG    1        3.327  -6.504   7.092  0.00  0.00    +0.343 C 
ATOM      2  O   LIG    1        3.866  -5.788   7.913  0.00  0.00    -0.245 OA
ENDROOT
BRANCH   1   3
ATOM      3  C   LIG    1        3.451  -7.966   7.196  0.00  0.00    +0.106 A 
ATOM      4  C   LIG    1        2.835  -8.791   6.247  0.00  0.00    +0.040 A 
ATOM      5  C   LIG    1        2.953 -10.158   6.346  0.00  0.00    +0.066 A 
ATOM      6 CL   LIG    1        2.189 -11.180   5.169  0.00  0.00    -0.081 Cl
ATOM      7  C   LIG    1        3.682 -10.726   7.389  0.00  0.00    +0.089 A 
ATOM      8  C   LIG    1        4.299  -9.914   8.339  0.00  0.00    +0.185 A 
ATOM      9  O   LIG    1        5.005 -10.490   9.352  0.00  0.00    -0.483 OA
ATOM     10  C   LIG    1        5.928  -9.646  10.053  0.00  0.00    +0.270 C 
ATOM     11  C   LIG    1        5.210  -8.329  10.380  0.00  0.00    +0.270 C 
ATOM     12  O   LIG    1        4.799  -7.725   9.149  0.00  0.00    -0.484 OA
ATOM     13  C   LIG    1        4.194  -8.536   8.242  0.00  0.00    +0.178 A 
BRANCH   7  14
ATOM     14  N   LIG    1        3.795 -12.112   7.482  0.00  0.00    -0.354 N 
ATOM     15  H   LIG    1        4.303 -12.509   8.207  0.00  0.00    +0.142 HD
ATOM     16  H   LIG    1        3.366 -12.679   6.822  0.00  0.00    +0.142 HD
ENDBRANCH   7  14
ENDBRANCH   1   3
BRANCH   1  17
ATOM     17  O   LIG    1        2.614  -5.958   6.087  0.00  0.00    -0.461 OA
BRANCH  17  18
ATOM     18  C   LIG    1        2.535  -4.532   6.048  0.00  0.00    +0.235 C 
BRANCH  18  23
ATOM     19  N   LIG    1        1.473  -2.527   2.423  0.00  0.00    +0.380 N 
ATOM     20  H   LIG    1        2.393  -2.114   2.457  0.00  0.00    -0.082 HD
ATOM     21  C   LIG    1        0.725  -2.147   3.627  0.00  0.00    -0.078 C 
ATOM     22  C   LIG    1        1.501  -2.581   4.873  0.00  0.00    -0.012 C 
ATOM     23  C   LIG    1        1.691  -4.100   4.846  0.00  0.00    +0.023 C 
ATOM     24  C   LIG    1        2.407  -4.493   3.550  0.00  0.00    -0.012 C 
ATOM     25  C   LIG    1        1.597  -3.988   2.354  0.00  0.00    -0.078 C 
BRANCH  19  26
ATOM     26  C   LIG    1        0.763  -2.041   1.233  0.00  0.00    -0.079 C 
BRANCH  26  27
ATOM     27  C   LIG    1        0.742  -0.511   1.242  0.00  0.00    -0.019 C 
BRANCH  27  29
ATOM     28  C   LIG    1       -0.019   1.526   0.010  0.00  0.00    +0.004 C 
ATOM     29  C   LIG    1        0.002  -0.004   0.002  0.00  0.00    -0.005 C 
ENDBRANCH  27  29
ENDBRANCH  26  27
ENDBRANCH  19  26
ENDBRANCH  18  23
ENDBRANCH  17  18
ENDBRANCH   1  17
TORSDOF 8
