REMARK  Name = ZINC01552601
REMARK                            x       y       z     vdW  Elec       q    Type
REMARK                         _______ _______ _______ _____ _____    ______ ____
ROOT
ATOM      1  C   LIG    1       -0.112   3.526   1.235  0.00  0.00    +0.088 A 
ATOM      2  N   LIG    1       -0.668   4.387   2.051  0.00  0.00    -0.349 N 
ATOM      3  H   LIG    1       -0.490   5.398   2.055  0.00  0.00    +0.166 HD
ATOM      4  C   LIG    1       -1.500   3.749   2.876  0.00  0.00    +0.110 A 
ATOM      5  C   LIG    1       -1.454   2.405   2.561  0.00  0.00    +0.060 A 
ATOM      6  N   LIG    1       -0.562   2.288   1.512  0.00  0.00    -0.325 N 
ENDROOT
BRANCH   5   7
ATOM      7  C   LIG    1       -2.175   1.358   3.187  0.00  0.00    +0.038 C 
ATOM      8  C   LIG    1       -2.902   1.609   4.305  0.00  0.00    +0.043 C 
BRANCH   8   9
ATOM      9  C   LIG    1       -3.776   0.623   4.815  0.00  0.00    +0.333 C 
ATOM     10  O   LIG    1       -3.877  -0.452   4.252  0.00  0.00    -0.245 OA
BRANCH   9  11
ATOM     11  O   LIG    1       -4.500   0.873   5.927  0.00  0.00    -0.477 OA
ATOM     12  H   LIG    1       -4.423   1.700   6.360  0.00  0.00    +0.295 HD
ENDBRANCH   9  11
ENDBRANCH   8   9
BRANCH   8  13
ATOM     13  C   LIG    1       -2.778   2.939   5.002  0.00  0.00    +0.084 C 
BRANCH  13  14
ATOM     14  C   LIG    1       -3.788   3.901   4.432  0.00  0.00    -0.006 A 
ATOM     15  C   LIG    1       -4.762   4.594   5.071  0.00  0.00    +0.011 A 
ATOM     16  C   LIG    1       -5.581   5.432   4.337  0.00  0.00    +0.008 A 
ATOM     17  C   LIG    1       -5.392   5.528   2.998  0.00  0.00    +0.045 A 
ATOM     18  S   LIG    1       -4.018   4.418   2.739  0.00  0.00    -0.101 S 
ENDBRANCH  13  14
ENDBRANCH   8  13
ENDBRANCH   5   7
BRANCH   1  19
ATOM     19  C   LIG    1        0.883   3.870   0.156  0.00  0.00    +0.072 C 
BRANCH  19  21
ATOM     20  C   LIG    1        1.149   4.517  -2.242  0.00  0.00    +0.004 C 
ATOM     21  C   LIG    1        0.139   4.169  -1.147  0.00  0.00    +0.004 C 
ENDBRANCH  19  21
ENDBRANCH   1  19
BRANCH   6  22
ATOM     22  C   LIG    1       -0.179   1.050   0.829  0.00  0.00    +0.158 C 
BRANCH  22  23
ATOM     23  C   LIG    1        0.988   0.421   1.546  0.00  0.00    -0.028 A 
ATOM     24  C   LIG    1        2.280   0.717   1.148  0.00  0.00    +0.006 A 
ATOM     25  C   LIG    1        3.354   0.149   1.802  0.00  0.00    +0.015 A 
ATOM     26  C   LIG    1        3.134  -0.734   2.862  0.00  0.00    +0.059 A 
ATOM     27  C   LIG    1        1.828  -1.031   3.254  0.00  0.00    +0.015 A 
ATOM     28  C   LIG    1        0.763  -0.452   2.595  0.00  0.00    +0.006 A 
BRANCH  26  29
ATOM     29  C   LIG    1        4.279  -1.349   3.564  0.00  0.00    +0.337 C 
ATOM     30  O   LIG    1        4.085  -2.188   4.421  0.00  0.00    -0.245 OA
BRANCH  29  31
ATOM     31  O   LIG    1        5.537  -0.981   3.253  0.00  0.00    -0.477 OA
ATOM     32  H   LIG    1        5.686  -0.334   2.592  0.00  0.00    +0.295 HD
ENDBRANCH  29  31
ENDBRANCH  26  29
ENDBRANCH  22  23
ENDBRANCH   6  22
TORSDOF 11
