REMARK  Name = ZINC01533058
REMARK                            x       y       z     vdW  Elec       q    Type
REMARK                         _______ _______ _______ _____ _____    ______ ____
ROOT
ATOM      1  C   LIG    1        9.610   6.168   0.004  0.00  0.00    -0.032 C 
ATOM      2  C   LIG    1        9.053   5.048  -0.519  0.00  0.00    -0.007 C 
ENDROOT
BRANCH   2   3
ATOM      3  C   LIG    1        9.871   4.129  -1.341  0.00  0.00    -0.017 A 
ATOM      4  C   LIG    1        9.615   3.995  -2.707  0.00  0.00    +0.009 A 
ATOM      5  C   LIG    1       10.385   3.141  -3.469  0.00  0.00    +0.015 A 
ATOM      6  C   LIG    1       11.401   2.409  -2.880  0.00  0.00    +0.013 A 
ATOM      7  I   LIG    1       12.560   1.108  -4.044  0.00  0.00    -0.044 I 
ATOM      8  C   LIG    1       11.656   2.534  -1.525  0.00  0.00    +0.015 A 
ATOM      9  C   LIG    1       10.897   3.389  -0.753  0.00  0.00    +0.009 A 
ENDBRANCH   2   3
BRANCH   1  10
ATOM     10  C   LIG    1        8.833   7.019   0.917  0.00  0.00    -0.021 A 
ATOM     11  C   LIG    1        7.699   7.695   0.454  0.00  0.00    +0.008 A 
ATOM     12  C   LIG    1        6.972   8.487   1.318  0.00  0.00    +0.001 A 
ATOM     13  C   LIG    1        7.368   8.622   2.637  0.00  0.00    +0.000 A 
ATOM     14  C   LIG    1        8.492   7.962   3.101  0.00  0.00    +0.001 A 
ATOM     15  C   LIG    1        9.226   7.162   2.251  0.00  0.00    +0.008 A 
ENDBRANCH   1  10
BRANCH   2  16
ATOM     16  C   LIG    1        7.627   4.745  -0.268  0.00  0.00    -0.017 A 
ATOM     17  C   LIG    1        6.716   4.734  -1.326  0.00  0.00    +0.012 A 
ATOM     18  C   LIG    1        5.389   4.451  -1.087  0.00  0.00    +0.046 A 
ATOM     19  C   LIG    1        4.956   4.179   0.204  0.00  0.00    +0.120 A 
ATOM     20  C   LIG    1        5.857   4.195   1.260  0.00  0.00    +0.046 A 
ATOM     21  C   LIG    1        7.188   4.471   1.029  0.00  0.00    +0.012 A 
BRANCH  19  22
ATOM     22  O   LIG    1        3.646   3.901   0.435  0.00  0.00    -0.494 OA
BRANCH  22  23
ATOM     23  C   LIG    1        3.269   3.630   1.786  0.00  0.00    +0.210 C 
BRANCH  23  24
ATOM     24  C   LIG    1        1.768   3.342   1.849  0.00  0.00    -0.037 C 
BRANCH  24  25
ATOM     25  N   LIG    1        1.470   2.080   1.107  0.00  0.00    +0.382 N 
ATOM     26  H   LIG    1        1.621   2.237   0.103  0.00  0.00    -0.082 HD
ATOM     27  C   LIG    1        2.336   0.991   1.573  0.00  0.00    -0.079 C 
ATOM     28  C   LIG    1        1.565  -0.269   1.107  0.00  0.00    -0.020 C 
ATOM     29  C   LIG    1        0.087   0.128   1.330  0.00  0.00    -0.020 C 
ATOM     30  C   LIG    1        0.082   1.667   1.343  0.00  0.00    -0.079 C 
ENDBRANCH  24  25
ENDBRANCH  23  24
ENDBRANCH  22  23
ENDBRANCH  19  22
ENDBRANCH   2  16
BRANCH   1  32
ATOM     31  C   LIG    1       11.018   7.511  -1.535  0.00  0.00    +0.009 C 
ATOM     32  C   LIG    1       11.027   6.541  -0.351  0.00  0.00    +0.033 C 
ENDBRANCH   1  32
TORSDOF 8
