REMARK  Name = ZINC01667098
REMARK                            x       y       z     vdW  Elec       q    Type
REMARK                         _______ _______ _______ _____ _____    ______ ____
ROOT
ATOM      1  C   LIG    1       -0.018   1.503   0.010  0.00  0.00    +0.066 C 
ATOM      2  C   LIG    1        0.002  -0.004   0.002  0.00  0.00    +0.040 C 
ATOM      3  N   LIG    1        0.006  -0.646  -1.119  0.00  0.00    -0.288 NA
ATOM      4  C   LIG    1        0.009  -2.104  -1.180  0.00  0.00    +0.146 C 
ATOM      5  C   LIG    1        0.847  -2.703  -0.052  0.00  0.00    +0.059 C 
ATOM      6  C   LIG    1        0.435  -2.087   1.260  0.00  0.00    -0.033 A 
ATOM      7  C   LIG    1        0.464  -2.812   2.428  0.00  0.00    +0.053 A 
ATOM      8  C   LIG    1        0.094  -2.216   3.622  0.00  0.00    +0.162 A 
ATOM      9  C   LIG    1       -0.323  -0.886   3.643  0.00  0.00    +0.162 A 
ATOM     10  C   LIG    1       -0.358  -0.152   2.472  0.00  0.00    +0.059 A 
ATOM     11  C   LIG    1        0.024  -0.750   1.273  0.00  0.00    +0.002 A 
ENDROOT
BRANCH   8  12
ATOM     12  O   LIG    1        0.128  -2.933   4.775  0.00  0.00    -0.491 OA
ATOM     13  C   LIG    1        0.564  -4.290   4.683  0.00  0.00    +0.277 C 
ENDBRANCH   8  12
BRANCH   9  14
ATOM     14  O   LIG    1       -0.694  -0.310   4.818  0.00  0.00    -0.491 OA
ATOM     15  C   LIG    1       -1.109   1.057   4.767  0.00  0.00    +0.277 C 
ENDBRANCH   9  14
TORSDOF 2
