REMARK  Name = ZINC01531669
REMARK                            x       y       z     vdW  Elec       q    Type
REMARK                         _______ _______ _______ _____ _____    ______ ____
ROOT
ATOM      1  C   LIG    1       -4.960  -2.659  -0.117  0.00  0.00    +0.140 A 
ATOM      2  C   LIG    1       -6.088  -1.928  -0.324  0.00  0.00    +0.098 A 
ATOM      3  C   LIG    1       -7.346  -2.575  -0.344  0.00  0.00    +0.197 A 
ATOM      4  C   LIG    1       -7.362  -4.033  -0.135  0.00  0.00    +0.113 A 
ATOM      5  C   LIG    1       -6.138  -4.694   0.071  0.00  0.00    +0.188 A 
ATOM      6  C   LIG    1       -6.129  -6.069   0.270  0.00  0.00    +0.209 A 
ATOM      7  C   LIG    1       -7.322  -6.779   0.265  0.00  0.00    +0.211 A 
ATOM      8  C   LIG    1       -8.535  -6.125   0.061  0.00  0.00    +0.208 A 
ATOM      9  C   LIG    1       -8.561  -4.754  -0.140  0.00  0.00    +0.180 A 
ATOM     10  O   LIG    1       -8.378  -1.950  -0.528  0.00  0.00    -0.287 OA
ATOM     11  O   LIG    1       -4.986  -3.989   0.068  0.00  0.00    -0.451 OA
ENDROOT
BRANCH   1  15
ATOM     12  C   LIG    1       -1.213  -0.656  -0.067  0.00  0.00    +0.162 A 
ATOM     13  C   LIG    1       -2.382   0.064  -0.271  0.00  0.00    +0.050 A 
ATOM     14  C   LIG    1       -3.599  -0.583  -0.288  0.00  0.00    +0.015 A 
ATOM     15  C   LIG    1       -3.658  -1.966  -0.099  0.00  0.00    +0.021 A 
ATOM     16  C   LIG    1       -2.481  -2.691   0.107  0.00  0.00    +0.061 A 
ATOM     17  C   LIG    1       -1.264  -2.037   0.117  0.00  0.00    +0.162 A 
BRANCH  12  19
ATOM     18  C   LIG    1       -0.036   1.401  -0.246  0.00  0.00    +0.277 C 
ATOM     19  O   LIG    1       -0.016  -0.014  -0.051  0.00  0.00    -0.491 OA
ENDBRANCH  12  19
BRANCH  17  20
ATOM     20  O   LIG    1       -0.116  -2.740   0.311  0.00  0.00    -0.491 OA
ATOM     21  C   LIG    1       -0.243  -4.152   0.493  0.00  0.00    +0.277 C 
ENDBRANCH  17  20
ENDBRANCH   1  15
BRANCH   6  22
ATOM     22  O   LIG    1       -4.950  -6.720   0.470  0.00  0.00    -0.488 OA
ATOM     23  C   LIG    1       -4.498  -6.844   1.820  0.00  0.00    +0.277 C 
ENDBRANCH   6  22
BRANCH   7  24
ATOM     24  O   LIG    1       -7.306  -8.125   0.460  0.00  0.00    -0.488 OA
ATOM     25  C   LIG    1       -7.184  -8.947  -0.702  0.00  0.00    +0.277 C 
ENDBRANCH   7  24
BRANCH   8  26
ATOM     26  O   LIG    1       -9.697  -6.835   0.059  0.00  0.00    -0.488 OA
ATOM     27  C   LIG    1      -10.362  -6.995   1.313  0.00  0.00    +0.277 C 
ENDBRANCH   8  26
BRANCH   9  28
ATOM     28  O   LIG    1       -9.743  -4.114  -0.339  0.00  0.00    -0.491 OA
ATOM     29  C   LIG    1      -10.194  -3.990  -1.689  0.00  0.00    +0.277 C 
ENDBRANCH   9  28
TORSDOF 7
