REMARK  Name = ZINC01542199
REMARK                            x       y       z     vdW  Elec       q    Type
REMARK                         _______ _______ _______ _____ _____    ______ ____
ROOT
ATOM      1  C   LIG    1        3.386  -3.769  -5.918  0.00  0.00    -0.041 C 
ATOM      2  C   LIG    1        3.934  -4.163  -6.878  0.00  0.00    -0.060 C 
ENDROOT
BRANCH   2   3
ATOM      3  C   LIG    1        4.602  -4.645  -8.050  0.00  0.00    +0.026 A 
ATOM      4  C   LIG    1        4.728  -6.021  -8.271  0.00  0.00    +0.018 A 
ATOM      5  C   LIG    1        5.379  -6.465  -9.396  0.00  0.00    +0.016 A 
ATOM      6  C   LIG    1        5.909  -5.559 -10.321  0.00  0.00    +0.012 A 
ATOM      7  C   LIG    1        5.776  -4.195 -10.118  0.00  0.00    -0.027 A 
ATOM      8  C   LIG    1        6.267  -3.141 -11.067  0.00  0.00    -0.008 C 
ATOM      9  C   LIG    1        6.742  -1.935 -10.254  0.00  0.00    +0.016 C 
ATOM     10  C   LIG    1        5.101  -2.700 -11.954  0.00  0.00    +0.016 C 
ATOM     11  C   LIG    1        7.406  -3.604 -11.958  0.00  0.00    +0.022 C 
ATOM     12  C   LIG    1        6.921  -4.777 -12.823  0.00  0.00    +0.075 C 
ATOM     13  S   LIG    1        6.748  -6.216 -11.728  0.00  0.00    -0.125 S 
ATOM     14  C   LIG    1        5.123  -3.745  -8.978  0.00  0.00    +0.022 A 
ENDBRANCH   2   3
BRANCH   1  18
ATOM     15  C   LIG    1        1.453  -2.347  -2.524  0.00  0.00    +0.077 A 
ATOM     16  C   LIG    1        1.563  -3.735  -2.704  0.00  0.00    +0.019 A 
ATOM     17  C   LIG    1        2.199  -4.201  -3.821  0.00  0.00    +0.038 A 
ATOM     18  C   LIG    1        2.719  -3.287  -4.746  0.00  0.00    +0.114 A 
ATOM     19  N   LIG    1        2.600  -1.975  -4.549  0.00  0.00    -0.246 NA
ATOM     20  C   LIG    1        1.990  -1.490  -3.490  0.00  0.00    +0.127 A 
BRANCH  15  21
ATOM     21  C   LIG    1        0.776  -1.799  -1.335  0.00  0.00    +0.341 C 
ATOM     22  O   LIG    1        0.312  -2.550  -0.500  0.00  0.00    -0.245 OA
BRANCH  21  23
ATOM     23  O   LIG    1        0.671  -0.465  -1.174  0.00  0.00    -0.461 OA
BRANCH  23  25
ATOM     24  C   LIG    1       -0.019   1.526   0.010  0.00  0.00    +0.048 C 
ATOM     25  C   LIG    1        0.002  -0.004   0.002  0.00  0.00    +0.229 C 
ENDBRANCH  23  25
ENDBRANCH  21  23
ENDBRANCH  15  21
ENDBRANCH   1  18
TORSDOF 5
