REMARK  Name = ZINC01566855
REMARK                            x       y       z     vdW  Elec       q    Type
REMARK                         _______ _______ _______ _____ _____    ______ ____
ROOT
ATOM      1  C   LIG    1       -0.020   1.488   0.018  0.00  0.00    +0.233 C 
ATOM      2  O   LIG    1       -0.190   2.082   1.063  0.00  0.00    -0.283 OA
ENDROOT
BRANCH   1   6
ATOM      3  C   LIG    1        0.493   3.647  -3.587  0.00  0.00    +0.120 A 
ATOM      4  C   LIG    1        0.409   4.328  -2.377  0.00  0.00    +0.046 A 
ATOM      5  C   LIG    1        0.243   3.636  -1.211  0.00  0.00    +0.015 A 
ATOM      6  C   LIG    1        0.158   2.238  -1.235  0.00  0.00    +0.026 A 
ATOM      7  C   LIG    1        0.249   1.557  -2.456  0.00  0.00    +0.015 A 
ATOM      8  C   LIG    1        0.409   2.258  -3.616  0.00  0.00    +0.046 A 
BRANCH   3  10
ATOM      9  C   LIG    1        0.737   3.578  -5.949  0.00  0.00    +0.277 C 
ATOM     10  O   LIG    1        0.658   4.339  -4.742  0.00  0.00    -0.495 OA
ENDBRANCH   3  10
ENDBRANCH   1   6
BRANCH   1  11
ATOM     11  C   LIG    1        0.003  -0.003   0.004  0.00  0.00    +0.233 C 
ATOM     12  O   LIG    1        1.059  -0.593  -0.109  0.00  0.00    -0.283 OA
BRANCH  11  13
ATOM     13  C   LIG    1       -1.253  -0.759   0.126  0.00  0.00    +0.026 A 
ATOM     14  C   LIG    1       -1.226  -2.157   0.220  0.00  0.00    +0.015 A 
ATOM     15  C   LIG    1       -2.394  -2.854   0.337  0.00  0.00    +0.046 A 
ATOM     16  C   LIG    1       -3.611  -2.179   0.354  0.00  0.00    +0.120 A 
ATOM     17  C   LIG    1       -3.644  -0.791   0.257  0.00  0.00    +0.046 A 
ATOM     18  C   LIG    1       -2.481  -0.085   0.144  0.00  0.00    +0.015 A 
BRANCH  16  19
ATOM     19  O   LIG    1       -4.769  -2.877   0.467  0.00  0.00    -0.495 OA
ATOM     20  C   LIG    1       -4.663  -4.298   0.563  0.00  0.00    +0.277 C 
ENDBRANCH  16  19
ENDBRANCH  11  13
ENDBRANCH   1  11
TORSDOF 5
