REMARK  Name = ZINC01587881
REMARK                            x       y       z     vdW  Elec       q    Type
REMARK                         _______ _______ _______ _____ _____    ______ ____
ROOT
ATOM      1  C   LIG    1       -2.683   1.569   2.470  0.00  0.00    -0.007 A 
ATOM      2  C   LIG    1       -3.999   1.183   2.632  0.00  0.00    +0.007 A 
ATOM      3  C   LIG    1       -4.607   0.382   1.683  0.00  0.00    +0.000 A 
ATOM      4  C   LIG    1       -3.902  -0.029   0.567  0.00  0.00    +0.004 A 
ATOM      5  C   LIG    1       -2.588   0.359   0.398  0.00  0.00    +0.046 A 
ATOM      6  C   LIG    1       -1.975   1.163   1.348  0.00  0.00    +0.123 A 
ENDROOT
BRANCH   6   7
ATOM      7  O   LIG    1       -0.682   1.547   1.184  0.00  0.00    -0.495 OA
ATOM      8  C   LIG    1       -0.013   1.086   0.008  0.00  0.00    +0.277 C 
ENDBRANCH   6   7
BRANCH   1   9
ATOM      9  C   LIG    1       -2.018   2.437   3.507  0.00  0.00    +0.022 C 
BRANCH   9  11
ATOM     10  C   LIG    1       -1.344   4.775   4.076  0.00  0.00    -0.014 C 
ATOM     11  C   LIG    1       -2.125   3.905   3.089  0.00  0.00    -0.074 C 
BRANCH  11  12
ATOM     12  N   LIG    1       -3.534   4.337   3.081  0.00  0.00    +0.380 N 
ATOM     13  H   LIG    1       -3.581   5.331   2.831  0.00  0.00    -0.090 HD
ATOM     14  H   LIG    1       -3.944   4.207   4.005  0.00  0.00    -0.090 HD
ATOM     15  H   LIG    1       -4.061   3.796   2.397  0.00  0.00    -0.090 HD
ENDBRANCH  11  12
ENDBRANCH   9  11
ENDBRANCH   1   9
TORSDOF 4
