REMARK  Name = ZINC01611849
REMARK                            x       y       z     vdW  Elec       q    Type
REMARK                         _______ _______ _______ _____ _____    ______ ____
ROOT
ATOM      1  C   LIG    1       -2.868   1.673   4.913  0.00  0.00    +0.120 A 
ATOM      2  C   LIG    1       -3.693   2.788   4.864  0.00  0.00    +0.046 A 
ATOM      3  C   LIG    1       -3.996   3.362   3.648  0.00  0.00    +0.007 A 
ATOM      4  C   LIG    1       -3.482   2.836   2.469  0.00  0.00    -0.042 A 
ATOM      5  C   LIG    1       -2.658   1.734   2.516  0.00  0.00    -0.014 A 
ATOM      6  C   LIG    1       -2.050   1.124   1.278  0.00  0.00    +0.135 C 
ATOM      7  C   LIG    1       -2.820   1.572   0.039  0.00  0.00    -0.038 C 
ATOM      8  N   LIG    1       -2.152   1.111  -1.189  0.00  0.00    +0.384 N 
ATOM      9  H   LIG    1       -2.154   0.084  -1.210  0.00  0.00    -0.085 HD
ATOM     10  H   LIG    1       -2.659   1.471  -2.006  0.00  0.00    -0.085 HD
ATOM     11  C   LIG    1       -0.757   1.595  -1.230  0.00  0.00    -0.054 C 
ATOM     12  C   LIG    1       -0.013   1.086   0.008  0.00  0.00    +0.141 C 
ATOM     13  C   LIG    1       -2.919   3.100   0.051  0.00  0.00    -0.008 C 
ATOM     14  O   LIG    1       -0.685   1.548   1.181  0.00  0.00    -0.375 OA
ATOM     15  C   LIG    1       -3.864   3.512   1.178  0.00  0.00    +0.034 C 
ATOM     16  C   LIG    1       -2.354   1.151   3.738  0.00  0.00    +0.052 A 
ENDROOT
BRANCH   1  18
ATOM     17  C   LIG    1       -3.132   1.694   7.275  0.00  0.00    +0.277 C 
ATOM     18  O   LIG    1       -2.566   1.098   6.106  0.00  0.00    -0.495 OA
ENDBRANCH   1  18
TORSDOF 1
