REMARK  Name = ZINC01530752
REMARK                            x       y       z     vdW  Elec       q    Type
REMARK                         _______ _______ _______ _____ _____    ______ ____
ROOT
ATOM      1  C   LIG    1       -0.597   5.852  -6.081  0.00  0.00    +0.190 C 
ENDROOT
BRANCH   1   2
ATOM      2  C   LIG    1       -0.926   7.345  -6.014  0.00  0.00    +0.036 C 
ATOM      3  C   LIG    1       -1.579   7.782  -7.327  0.00  0.00    +0.007 C 
ATOM      4  C   LIG    1       -1.908   9.275  -7.260  0.00  0.00    +0.000 C 
ATOM      5  C   LIG    1       -2.872   9.534  -6.100  0.00  0.00    +0.000 C 
ATOM      6  C   LIG    1       -2.219   9.096  -4.788  0.00  0.00    +0.000 C 
ATOM      7  C   LIG    1       -1.890   7.603  -4.854  0.00  0.00    +0.007 C 
ENDBRANCH   1   2
BRANCH   1   8
ATOM      8  C   LIG    1        0.352   5.597  -7.223  0.00  0.00    -0.005 A 
ATOM      9  C   LIG    1        1.250   6.575  -7.607  0.00  0.00    +0.007 A 
ATOM     10  C   LIG    1        2.121   6.341  -8.655  0.00  0.00    +0.000 A 
ATOM     11  C   LIG    1        2.094   5.130  -9.319  0.00  0.00    +0.000 A 
ATOM     12  C   LIG    1        1.196   4.151  -8.935  0.00  0.00    +0.000 A 
ATOM     13  C   LIG    1        0.328   4.383  -7.884  0.00  0.00    +0.007 A 
ENDBRANCH   1   8
BRANCH   1  14
ATOM     14  C   LIG    1        0.046   5.421  -4.788  0.00  0.00    +0.345 C 
ATOM     15  O   LIG    1        0.629   6.229  -4.105  0.00  0.00    -0.247 OA
BRANCH  14  16
ATOM     16  O   LIG    1       -0.029   4.140  -4.395  0.00  0.00    -0.449 OA
BRANCH  16  17
ATOM     17  C   LIG    1        0.604   3.802  -3.159  0.00  0.00    +0.320 C 
BRANCH  17  19
ATOM     18  C   LIG    1        0.275   1.221  -2.677  0.00  0.00    -0.083 C 
ATOM     19  C   LIG    1        0.421   2.366  -2.891  0.00  0.00    -0.060 C 
BRANCH  18  20
ATOM     20  C   LIG    1        0.092  -0.215  -2.408  0.00  0.00    +0.174 C 
BRANCH  20  21
ATOM     21  N   LIG    1        0.742  -0.562  -1.138  0.00  0.00    -0.292 NA
BRANCH  21  23
ATOM     22  C   LIG    1       -1.339  -0.947   0.094  0.00  0.00    +0.020 C 
ATOM     23  C   LIG    1       -0.061  -0.110   0.006  0.00  0.00    +0.082 C 
ENDBRANCH  21  23
BRANCH  21  24
ATOM     24  C   LIG    1        1.006  -2.005  -1.058  0.00  0.00    +0.082 C 
ATOM     25  C   LIG    1        1.897  -2.295   0.151  0.00  0.00    +0.020 C 
ENDBRANCH  21  24
ENDBRANCH  20  21
ENDBRANCH  18  20
ENDBRANCH  17  19
ENDBRANCH  16  17
ENDBRANCH  14  16
ENDBRANCH   1  14
BRANCH   1  26
ATOM     26  O   LIG    1       -1.800   5.108  -6.286  0.00  0.00    -0.373 OA
ATOM     27  H   LIG    1       -2.458   5.224  -5.587  0.00  0.00    +0.211 HD
ENDBRANCH   1  26
TORSDOF 11
