REMARK  Name = ZINC01584949
REMARK                            x       y       z     vdW  Elec       q    Type
REMARK                         _______ _______ _______ _____ _____    ______ ____
ROOT
ATOM      1  C   LIG    1        3.030   3.102   1.953  0.00  0.00    +0.104 C 
ATOM      2  C   LIG    1        2.931   4.506   1.391  0.00  0.00    +0.032 C 
ATOM      3  C   LIG    1        2.279   4.500   0.011  0.00  0.00    +0.038 C 
ATOM      4  C   LIG    1        1.075   3.593   0.022  0.00  0.00    -0.032 A 
ATOM      5  C   LIG    1       -0.196   4.129   0.055  0.00  0.00    +0.053 A 
ATOM      6  C   LIG    1       -1.304   3.292   0.049  0.00  0.00    +0.162 A 
ATOM      7  C   LIG    1       -1.141   1.911   0.005  0.00  0.00    +0.204 A 
ATOM      8  C   LIG    1        0.135   1.365  -0.016  0.00  0.00    +0.173 A 
ATOM      9  C   LIG    1        1.247   2.213  -0.009  0.00  0.00    +0.031 A 
ATOM     10  C   LIG    1        2.622   1.630  -0.026  0.00  0.00    -0.009 A 
ATOM     11  C   LIG    1        2.869   0.658  -0.963  0.00  0.00    +0.010 A 
ATOM     12  C   LIG    1        3.970  -0.047  -1.278  0.00  0.00    +0.019 A 
ATOM     13  C   LIG    1        5.220   0.037  -0.739  0.00  0.00    +0.054 A 
ATOM     14  C   LIG    1        5.601   0.901   0.285  0.00  0.00    +0.193 A 
ATOM     15  O   LIG    1        6.786   0.875   0.590  0.00  0.00    -0.287 OA
ATOM     16  C   LIG    1        4.826   1.773   0.994  0.00  0.00    +0.058 A 
ATOM     17  C   LIG    1        3.528   2.117   0.914  0.00  0.00    -0.016 A 
ENDROOT
BRANCH   1  20
ATOM     18  C   LIG    1        4.772   2.198   5.240  0.00  0.00    +0.109 C 
ATOM     19  C   LIG    1        3.820   2.193   4.071  0.00  0.00    +0.210 C 
ATOM     20  N   LIG    1        3.955   3.106   3.089  0.00  0.00    -0.309 N 
ATOM     21  H   LIG    1        4.664   3.767   3.134  0.00  0.00    +0.149 HD
ATOM     22  O   LIG    1        2.933   1.368   4.014  0.00  0.00    -0.276 OA
ENDBRANCH   1  20
BRANCH   6  23
ATOM     23  O   LIG    1       -2.554   3.825   0.080  0.00  0.00    -0.503 OA
ATOM     24  H   LIG    1       -2.928   4.001  -0.794  0.00  0.00    +0.292 HD
ENDBRANCH   6  23
BRANCH   7  25
ATOM     25  O   LIG    1       -2.231   1.097  -0.011  0.00  0.00    -0.488 OA
ATOM     26  C   LIG    1       -2.822   0.778   1.250  0.00  0.00    +0.277 C 
ENDBRANCH   7  25
BRANCH   8  27
ATOM     27  O   LIG    1        0.303   0.016  -0.049  0.00  0.00    -0.491 OA
ATOM     28  C   LIG    1        0.521  -0.641   1.201  0.00  0.00    +0.277 C 
ENDBRANCH   8  27
BRANCH  13  29
ATOM     29  S   LIG    1        6.455  -1.036  -1.393  0.00  0.00    -0.125 S 
ATOM     30  C   LIG    1        5.482  -1.911  -2.643  0.00  0.00    +0.090 C 
ENDBRANCH  13  29
TORSDOF 5
