REMARK  Name = ZINC01494443
REMARK                            x       y       z     vdW  Elec       q    Type
REMARK                         _______ _______ _______ _____ _____    ______ ____
ROOT
ATOM      1  C   LIG    1        1.816  -4.835   1.195  0.00  0.00    +0.216 A 
ATOM      2  N   LIG    1        2.798  -4.219   1.850  0.00  0.00    -0.221 NA
ATOM      3  C   LIG    1        3.825  -4.883   2.337  0.00  0.00    +0.144 A 
ATOM      4  C   LIG    1        3.870  -6.277   2.151  0.00  0.00    +0.112 A 
ATOM      5  C   LIG    1        2.807  -6.894   1.449  0.00  0.00    +0.134 A 
ATOM      6  C   LIG    1        2.856  -8.298   1.265  0.00  0.00    +0.152 A 
ATOM      7  N   LIG    1        3.894  -8.957   1.759  0.00  0.00    -0.218 NA
ATOM      8  C   LIG    1        4.865  -8.334   2.409  0.00  0.00    +0.224 A 
ATOM      9  N   LIG    1        4.871  -7.036   2.610  0.00  0.00    -0.232 NA
ATOM     10  N   LIG    1        1.805  -6.140   0.997  0.00  0.00    -0.209 NA
ENDROOT
BRANCH   1  11
ATOM     11  N   LIG    1        0.764  -4.079   0.707  0.00  0.00    -0.311 N 
ATOM     12  H   LIG    1        0.037  -4.510   0.231  0.00  0.00    +0.149 HD
BRANCH  11  18
ATOM     13  C   LIG    1       -0.935   1.223   1.611  0.00  0.00    -0.096 C 
ATOM     14  N   LIG    1       -0.791  -0.223   1.395  0.00  0.00    +0.378 N 
ATOM     15  H   LIG    1       -1.701  -0.657   1.421  0.00  0.00    -0.082 HD
ATOM     16  C   LIG    1       -0.175  -0.462   0.084  0.00  0.00    -0.077 C 
ATOM     17  C   LIG    1       -0.098  -1.967  -0.180  0.00  0.00    +0.003 C 
ATOM     18  C   LIG    1        0.748  -2.628   0.911  0.00  0.00    +0.070 C 
ATOM     19  C   LIG    1        0.138  -2.310   2.280  0.00  0.00    +0.003 C 
ATOM     20  C   LIG    1        0.052  -0.792   2.453  0.00  0.00    -0.077 C 
ENDBRANCH  11  18
ENDBRANCH   1  11
BRANCH   6  21
ATOM     21  N   LIG    1        1.851  -8.961   0.590  0.00  0.00    -0.298 N 
ATOM     22  H   LIG    1        1.141  -8.458   0.161  0.00  0.00    +0.154 HD
BRANCH  21  23
ATOM     23  C   LIG    1        1.857 -10.358   0.523  0.00  0.00    +0.034 A 
ATOM     24  C   LIG    1        2.330 -11.104   1.595  0.00  0.00    +0.026 A 
ATOM     25  C   LIG    1        2.335 -12.483   1.528  0.00  0.00    +0.041 A 
ATOM     26  C   LIG    1        1.869 -13.124   0.393  0.00  0.00    +0.142 A 
ATOM     27  F   LIG    1        1.876 -14.473   0.329  0.00  0.00    -0.204 F 
ATOM     28  C   LIG    1        1.396 -12.383  -0.678  0.00  0.00    +0.078 A 
ATOM     29 CL   LIG    1        0.812 -13.189  -2.101  0.00  0.00    -0.081 Cl
ATOM     30  C   LIG    1        1.383 -11.002  -0.613  0.00  0.00    +0.046 A 
ENDBRANCH  21  23
ENDBRANCH   6  21
TORSDOF 4
