REMARK  Name = ZINC01495982
REMARK                            x       y       z     vdW  Elec       q    Type
REMARK                         _______ _______ _______ _____ _____    ______ ____
ROOT
ATOM      1  C   LIG    1       -1.299   1.927   0.019  0.00  0.00    +0.017 A 
ATOM      2  C   LIG    1       -1.322   3.325   0.032  0.00  0.00    +0.013 A 
ATOM      3  C   LIG    1       -2.529   3.991   0.035  0.00  0.00    +0.027 A 
ATOM      4  C   LIG    1       -3.716   3.279   0.037  0.00  0.00    +0.088 A 
ATOM      5  C   LIG    1       -3.702   1.895   0.030  0.00  0.00    +0.027 A 
ATOM      6  C   LIG    1       -2.502   1.215   0.021  0.00  0.00    +0.013 A 
ENDROOT
BRANCH   4   7
ATOM      7  S   LIG    1       -5.254   4.139   0.048  0.00  0.00    -0.006 S 
ATOM      8  C   LIG    1       -5.654   4.358   1.804  0.00  0.00    +0.200 C 
ATOM      9  O   LIG    1       -6.176   3.242  -0.556  0.00  0.00    -0.170 OA
ATOM     10  O   LIG    1       -4.970   5.397  -0.550  0.00  0.00    -0.170 OA
ENDBRANCH   4   7
BRANCH   1  11
ATOM     11  C   LIG    1       -0.014   1.208   0.009  0.00  0.00    +0.161 C 
ATOM     12  O   LIG    1        0.002  -0.004   0.002  0.00  0.00    -0.292 OA
BRANCH  11  13
ATOM     13  C   LIG    1        1.280   1.980   0.001  0.00  0.00    +0.061 C 
BRANCH  13  14
ATOM     14  C   LIG    1        2.457   1.001  -0.016  0.00  0.00    -0.072 C 
BRANCH  14  16
ATOM     15  C   LIG    1        3.898   2.494   1.232  0.00  0.00    -0.097 C 
ATOM     16  N   LIG    1        3.717   1.772  -0.045  0.00  0.00    +0.376 N 
ATOM     17  H   LIG    1        3.673   2.455  -0.811  0.00  0.00    -0.083 HD
ATOM     18  C   LIG    1        4.860   0.863  -0.278  0.00  0.00    -0.097 C 
ENDBRANCH  14  16
ENDBRANCH  13  14
ENDBRANCH  11  13
ENDBRANCH   1  11
TORSDOF 5
