REMARK  Name = ZINC01553345
REMARK                            x       y       z     vdW  Elec       q    Type
REMARK                         _______ _______ _______ _____ _____    ______ ____
ROOT
ATOM      1  C   LIG    1       -1.488   7.512   2.185  0.00  0.00    +0.011 C 
ATOM      2  C   LIG    1       -2.002   7.476   0.744  0.00  0.00    -0.024 C 
ATOM      3  C   LIG    1       -3.532   7.480   0.755  0.00  0.00    +0.011 C 
ATOM      4  C   LIG    1       -1.503   6.200   0.060  0.00  0.00    +0.044 C 
ATOM      5  C   LIG    1        0.021   6.252   0.027  0.00  0.00    -0.019 A 
ATOM      6  C   LIG    1        0.729   7.531   0.025  0.00  0.00    +0.042 A 
ATOM      7  C   LIG    1        0.008   8.766   0.029  0.00  0.00    +0.166 C 
ATOM      8  O   LIG    1        0.593   9.831   0.059  0.00  0.00    -0.292 OA
ATOM      9  C   LIG    1        2.128   7.462   0.016  0.00  0.00    +0.056 A 
ATOM     10  S   LIG    1        2.460   5.766   0.008  0.00  0.00    -0.079 S 
ATOM     11  C   LIG    1        0.798   5.133   0.020  0.00  0.00    +0.049 A 
ATOM     12  C   LIG    1       -1.499   8.710  -0.003  0.00  0.00    +0.086 C 
ENDROOT
BRANCH  11  13
ATOM     13  C   LIG    1        0.364   3.728   0.018  0.00  0.00    +0.115 A 
ATOM     14  N   LIG    1       -0.866   3.226   0.026  0.00  0.00    -0.247 NA
ATOM     15  C   LIG    1       -1.070   1.928   0.017  0.00  0.00    +0.119 A 
ATOM     16  C   LIG    1       -0.013   1.076   0.008  0.00  0.00    +0.067 A 
ATOM     17  S   LIG    1        1.349   2.236   0.001  0.00  0.00    -0.075 S 
ENDBRANCH  11  13
BRANCH   9  18
ATOM     18  S   LIG    1        3.281   8.795   0.014  0.00  0.00    -0.115 S 
BRANCH  18  19
ATOM     19  C   LIG    1        4.835   7.866   0.002  0.00  0.00    +0.102 C 
BRANCH  19  20
ATOM     20  C   LIG    1        6.013   8.843  -0.002  0.00  0.00    +0.167 C 
BRANCH  20  21
ATOM     21  O   LIG    1        7.239   8.110  -0.012  0.00  0.00    -0.394 OA
ATOM     22  H   LIG    1        8.030   8.666  -0.015  0.00  0.00    +0.209 HD
ENDBRANCH  20  21
ENDBRANCH  19  20
ENDBRANCH  18  19
ENDBRANCH   9  18
TORSDOF 5
