REMARK  Name = ZINC01587152
REMARK                            x       y       z     vdW  Elec       q    Type
REMARK                         _______ _______ _______ _____ _____    ______ ____
ROOT
ATOM      1  C   LIG    1        0.002  -0.004   0.002  0.00  0.00    +0.237 C 
ATOM      2  N   LIG    1        1.178  -0.662  -0.013  0.00  0.00    -0.312 N 
ATOM      3  H   LIG    1        2.012  -0.166  -0.018  0.00  0.00    +0.149 HD
ATOM      4  O   LIG    1       -1.044  -0.627   0.009  0.00  0.00    -0.271 OA
ENDROOT
BRANCH   1   6
ATOM      5  C   LIG    1       -1.196   2.117   0.019  0.00  0.00    +0.013 C 
ATOM      6  C   LIG    1       -0.018   1.458   0.010  0.00  0.00    +0.068 C 
BRANCH   5  12
ATOM      7  C   LIG    1       -0.015   4.306   0.031  0.00  0.00    +0.011 A 
ATOM      8  C   LIG    1       -0.039   5.682   0.033  0.00  0.00    +0.046 A 
ATOM      9  C   LIG    1       -1.253   6.358   0.042  0.00  0.00    +0.117 A 
ATOM     10  C   LIG    1       -2.449   5.649   0.044  0.00  0.00    +0.046 A 
ATOM     11  C   LIG    1       -2.436   4.273   0.037  0.00  0.00    +0.011 A 
ATOM     12  C   LIG    1       -1.216   3.587   0.027  0.00  0.00    -0.025 A 
BRANCH   9  13
ATOM     13  O   LIG    1       -1.272   7.716   0.049  0.00  0.00    -0.507 OA
ATOM     14  H   LIG    1       -1.272   8.104   0.935  0.00  0.00    +0.292 HD
ENDBRANCH   9  13
ENDBRANCH   5  12
ENDBRANCH   1   6
BRANCH   2  15
ATOM     15  C   LIG    1        1.198  -2.127  -0.021  0.00  0.00    +0.109 C 
BRANCH  15  16
ATOM     16  C   LIG    1        2.647  -2.617  -0.037  0.00  0.00    +0.056 C 
BRANCH  16  17
ATOM     17  C   LIG    1        2.668  -4.124  -0.046  0.00  0.00    -0.021 A 
ATOM     18  C   LIG    1        2.783  -4.927   1.024  0.00  0.00    +0.087 A 
ATOM     19  N   LIG    1        2.763  -6.236   0.629  0.00  0.00    -0.360 N 
ATOM     20  C   LIG    1        2.631  -6.310  -0.741  0.00  0.00    +0.047 A 
ATOM     21  C   LIG    1        2.560  -7.371  -1.638  0.00  0.00    +0.030 A 
ATOM     22  C   LIG    1        2.426  -7.125  -2.986  0.00  0.00    +0.047 A 
ATOM     23  C   LIG    1        2.362  -5.819  -3.466  0.00  0.00    +0.118 A 
ATOM     24  C   LIG    1        2.432  -4.752  -2.592  0.00  0.00    +0.055 A 
ATOM     25  H   LIG    1        2.831  -6.999   1.225  0.00  0.00    +0.165 HD
ATOM     26  C   LIG    1        2.560  -4.990  -1.222  0.00  0.00    +0.006 A 
BRANCH  23  27
ATOM     27  O   LIG    1        2.230  -5.593  -4.801  0.00  0.00    -0.507 OA
ATOM     28  H   LIG    1        1.313  -5.540  -5.102  0.00  0.00    +0.292 HD
ENDBRANCH  23  27
ENDBRANCH  16  17
ENDBRANCH  15  16
ENDBRANCH   2  15
TORSDOF 7
