REMARK  Name = ZINC01532186
REMARK                            x       y       z     vdW  Elec       q    Type
REMARK                         _______ _______ _______ _____ _____    ______ ____
ROOT
ATOM      1  C   LIG    1        0.909   0.023  -3.831  0.00  0.00    -0.006 C 
ENDROOT
BRANCH   1   2
ATOM      2  C   LIG    1        0.283   0.616  -2.567  0.00  0.00    -0.081 C 
BRANCH   2   3
ATOM      3  N   LIG    1        1.325   0.816  -1.552  0.00  0.00    +0.381 N 
ATOM      4  H   LIG    1        1.754  -0.070  -1.331  0.00  0.00    -0.086 HD
ATOM      5  H   LIG    1        2.026   1.449  -1.909  0.00  0.00    -0.086 HD
BRANCH   3   7
ATOM      6  C   LIG    1        0.184   2.784  -0.645  0.00  0.00    -0.013 C 
ATOM      7  C   LIG    1        0.724   1.386  -0.339  0.00  0.00    -0.071 C 
BRANCH   7   8
ATOM      8  C   LIG    1        1.784   1.478   0.761  0.00  0.00    +0.019 C 
BRANCH   8   9
ATOM      9  C   LIG    1        2.227   0.091   1.149  0.00  0.00    -0.049 A 
ATOM     10  C   LIG    1        1.568  -0.589   2.155  0.00  0.00    +0.003 A 
ATOM     11  C   LIG    1        1.974  -1.861   2.512  0.00  0.00    +0.000 A 
ATOM     12  C   LIG    1        3.041  -2.453   1.861  0.00  0.00    +0.000 A 
ATOM     13  C   LIG    1        3.700  -1.773   0.854  0.00  0.00    +0.000 A 
ATOM     14  C   LIG    1        3.290  -0.503   0.495  0.00  0.00    +0.003 A 
ENDBRANCH   8   9
ENDBRANCH   7   8
ENDBRANCH   3   7
ENDBRANCH   2   3
ENDBRANCH   1   2
BRANCH   1  15
ATOM     15  C   LIG    1       -0.177  -0.186  -4.889  0.00  0.00    +0.047 C 
BRANCH  15  16
ATOM     16  C   LIG    1       -1.157  -1.223  -4.405  0.00  0.00    -0.040 A 
ATOM     17  C   LIG    1       -0.701  -2.449  -3.957  0.00  0.00    +0.004 A 
ATOM     18  C   LIG    1       -1.600  -3.400  -3.513  0.00  0.00    +0.000 A 
ATOM     19  C   LIG    1       -2.955  -3.126  -3.516  0.00  0.00    +0.000 A 
ATOM     20  C   LIG    1       -3.411  -1.900  -3.963  0.00  0.00    +0.000 A 
ATOM     21  C   LIG    1       -2.512  -0.947  -4.404  0.00  0.00    +0.004 A 
ENDBRANCH  15  16
BRANCH  15  22
ATOM     22  C   LIG    1        0.457  -0.654  -6.173  0.00  0.00    -0.040 A 
ATOM     23  C   LIG    1        0.189   0.007  -7.357  0.00  0.00    +0.004 A 
ATOM     24  C   LIG    1        0.770  -0.422  -8.536  0.00  0.00    +0.000 A 
ATOM     25  C   LIG    1        1.619  -1.513  -8.530  0.00  0.00    +0.000 A 
ATOM     26  C   LIG    1        1.887  -2.174  -7.346  0.00  0.00    +0.000 A 
ATOM     27  C   LIG    1        1.310  -1.742  -6.167  0.00  0.00    +0.004 A 
ENDBRANCH  15  22
ENDBRANCH   1  15
TORSDOF 8
