REMARK  Name = ZINC01578570
REMARK                            x       y       z     vdW  Elec       q    Type
REMARK                         _______ _______ _______ _____ _____    ______ ____
ROOT
ATOM      1  C   LIG    1       -4.618   0.926  -1.084  0.00  0.00    +0.047 C 
ATOM      2  C   LIG    1       -3.546   1.792  -0.476  0.00  0.00    -0.010 A 
ATOM      3  C   LIG    1       -2.951   1.432   0.726  0.00  0.00    +0.073 A 
ATOM      4  C   LIG    1       -1.913   2.318   1.254  0.00  0.00    +0.017 A 
ATOM      5  C   LIG    1       -1.253   2.036   2.454  0.00  0.00    +0.049 A 
ATOM      6  C   LIG    1       -0.290   2.890   2.911  0.00  0.00    +0.124 A 
ATOM      7  F   LIG    1        0.348   2.618   4.070  0.00  0.00    -0.205 F 
ATOM      8  C   LIG    1        0.043   4.040   2.193  0.00  0.00    +0.040 A 
ATOM      9  C   LIG    1       -0.581   4.343   1.023  0.00  0.00    +0.031 A 
ATOM     10  C   LIG    1       -1.579   3.485   0.521  0.00  0.00    +0.073 A 
ATOM     11  N   LIG    1       -2.207   3.757  -0.623  0.00  0.00    -0.246 NA
ATOM     12  C   LIG    1       -3.143   2.974  -1.115  0.00  0.00    +0.075 A 
ENDROOT
BRANCH  12  13
ATOM     13  C   LIG    1       -3.791   3.351  -2.395  0.00  0.00    +0.001 A 
ATOM     14  C   LIG    1       -3.020   3.811  -3.461  0.00  0.00    +0.010 A 
ATOM     15  C   LIG    1       -3.628   4.157  -4.650  0.00  0.00    +0.004 A 
ATOM     16  C   LIG    1       -5.001   4.056  -4.783  0.00  0.00    -0.044 A 
ATOM     17  C   LIG    1       -5.772   3.605  -3.727  0.00  0.00    +0.004 A 
ATOM     18  C   LIG    1       -5.175   3.252  -2.534  0.00  0.00    +0.010 A 
BRANCH  16  19
ATOM     19  C   LIG    1       -5.659   4.440  -6.083  0.00  0.00    +0.019 C 
ATOM     20  C   LIG    1       -5.112   3.563  -7.211  0.00  0.00    +0.008 C 
ATOM     21  C   LIG    1       -5.780   3.952  -8.531  0.00  0.00    +0.001 C 
ATOM     22  C   LIG    1       -5.484   5.421  -8.838  0.00  0.00    +0.000 C 
ATOM     23  C   LIG    1       -6.032   6.299  -7.711  0.00  0.00    +0.001 C 
ATOM     24  C   LIG    1       -5.363   5.909  -6.391  0.00  0.00    +0.008 C 
ENDBRANCH  16  19
ENDBRANCH  12  13
BRANCH   3  25
ATOM     25  C   LIG    1       -3.346   0.200   1.440  0.00  0.00    +0.338 C 
ATOM     26  O   LIG    1       -4.239   0.235   2.263  0.00  0.00    -0.245 OA
BRANCH  25  27
ATOM     27  O   LIG    1       -2.719  -0.963   1.175  0.00  0.00    -0.477 OA
ATOM     28  H   LIG    1       -2.030  -0.990   0.541  0.00  0.00    +0.295 HD
ENDBRANCH  25  27
ENDBRANCH   3  25
TORSDOF 4
