REMARK  Name = ZINC01542930
REMARK                            x       y       z     vdW  Elec       q    Type
REMARK                         _______ _______ _______ _____ _____    ______ ____
ROOT
ATOM      1  C   LIG    1       -2.106   2.471  -3.454  0.00  0.00    -0.035 A 
ATOM      2  C   LIG    1       -2.808   2.047  -2.341  0.00  0.00    +0.050 A 
ATOM      3  C   LIG    1       -2.123   1.601  -1.222  0.00  0.00    +0.124 A 
ATOM      4  C   LIG    1       -0.735   1.580  -1.214  0.00  0.00    +0.040 A 
ATOM      5  C   LIG    1       -0.023   1.987  -2.336  0.00  0.00    +0.128 A 
ATOM      6  O   LIG    1        1.335   1.995  -2.368  0.00  0.00    -0.486 OA
ATOM      7  C   LIG    1        2.048   1.275  -1.359  0.00  0.00    +0.108 C 
ATOM      8  C   LIG    1        1.935  -0.228  -1.620  0.00  0.00    +0.055 C 
ATOM      9  C   LIG    1        3.520   1.692  -1.369  0.00  0.00    +0.055 C 
ATOM     10  C   LIG    1        1.425   1.611  -0.003  0.00  0.00    +0.041 C 
ATOM     11  C   LIG    1        2.209   0.964   1.137  0.00  0.00    +0.015 C 
ATOM     12  C   LIG    1        1.601   1.415   2.472  0.00  0.00    +0.075 C 
ATOM     13  C   LIG    1        0.118   1.120   2.465  0.00  0.00    +0.134 C 
ATOM     14  O   LIG    1       -0.397   0.534   3.386  0.00  0.00    -0.297 OA
ATOM     15  C   LIG    1       -0.709   1.575   1.280  0.00  0.00    +0.083 C 
ATOM     16  C   LIG    1       -0.013   1.086   0.008  0.00  0.00    +0.040 C 
ATOM     17  C   LIG    1       -0.714   2.419  -3.465  0.00  0.00    +0.050 A 
ENDROOT
BRANCH   1  18
ATOM     18  C   LIG    1       -2.848   2.953  -4.673  0.00  0.00    -0.010 C 
ATOM     19  C   LIG    1       -2.485   2.074  -5.872  0.00  0.00    +0.016 C 
ATOM     20  C   LIG    1       -2.459   4.403  -4.968  0.00  0.00    +0.016 C 
BRANCH  18  21
ATOM     21  C   LIG    1       -4.355   2.871  -4.419  0.00  0.00    +0.011 C 
BRANCH  21  22
ATOM     22  C   LIG    1       -5.108   3.361  -5.658  0.00  0.00    +0.001 C 
BRANCH  22  23
ATOM     23  C   LIG    1       -6.615   3.279  -5.403  0.00  0.00    +0.000 C 
BRANCH  23  24
ATOM     24  C   LIG    1       -7.368   3.768  -6.642  0.00  0.00    -0.000 C 
BRANCH  24  26
ATOM     25  C   LIG    1       -9.628   4.176  -7.626  0.00  0.00    +0.004 C 
ATOM     26  C   LIG    1       -8.875   3.686  -6.387  0.00  0.00    -0.003 C 
ENDBRANCH  24  26
ENDBRANCH  23  24
ENDBRANCH  22  23
ENDBRANCH  21  22
ENDBRANCH  18  21
ENDBRANCH   1  18
BRANCH   3  27
ATOM     27  O   LIG    1       -2.813   1.183  -0.128  0.00  0.00    -0.506 OA
ATOM     28  H   LIG    1       -3.002   1.885   0.510  0.00  0.00    +0.292 HD
ENDBRANCH   3  27
TORSDOF 7
