REMARK  Name = ZINC01615742
REMARK                            x       y       z     vdW  Elec       q    Type
REMARK                         _______ _______ _______ _____ _____    ______ ____
ROOT
ATOM      1  C   LIG    1        0.102   1.444   0.386  0.00  0.00    +0.001 A 
ATOM      2  C   LIG    1        1.304   2.126   0.370  0.00  0.00    +0.001 A 
ATOM      3  C   LIG    1        2.500   1.437   0.240  0.00  0.00    +0.012 A 
ATOM      4  C   LIG    1        2.490   0.053   0.124  0.00  0.00    +0.034 A 
ATOM      5  C   LIG    1        1.268  -0.640   0.140  0.00  0.00    +0.034 A 
ATOM      6  C   LIG    1        1.265  -2.116   0.016  0.00  0.00    +0.201 C 
ATOM      7  C   LIG    1        2.538  -2.841  -0.122  0.00  0.00    +0.072 C 
ATOM      8  C   LIG    1        3.722  -2.168  -0.137  0.00  0.00    +0.072 C 
ATOM      9  O   LIG    1        0.214  -2.727   0.028  0.00  0.00    -0.286 OA
ATOM     10  C   LIG    1        3.756  -0.703  -0.016  0.00  0.00    +0.201 C 
ATOM     11  O   LIG    1        4.819  -0.114  -0.031  0.00  0.00    -0.286 OA
ATOM     12  C   LIG    1        0.077   0.063   0.271  0.00  0.00    +0.012 A 
ENDROOT
BRANCH   7  13
ATOM     13  S   LIG    1        2.529  -4.596  -0.268  0.00  0.00    -0.118 S 
BRANCH  13  14
ATOM     14  C   LIG    1        1.864  -5.166   1.320  0.00  0.00    +0.102 C 
BRANCH  14  15
ATOM     15  C   LIG    1        1.923  -6.694   1.380  0.00  0.00    +0.167 C 
BRANCH  15  16
ATOM     16  O   LIG    1        1.300  -7.148   2.583  0.00  0.00    -0.394 OA
ATOM     17  H   LIG    1        1.368  -8.102   2.725  0.00  0.00    +0.209 HD
ENDBRANCH  15  16
ENDBRANCH  14  15
ENDBRANCH  13  14
ENDBRANCH   7  13
BRANCH   8  18
ATOM     18  S   LIG    1        5.231  -3.064  -0.303  0.00  0.00    -0.118 S 
BRANCH  18  19
ATOM     19  C   LIG    1        5.882  -2.531  -1.910  0.00  0.00    +0.102 C 
BRANCH  19  20
ATOM     20  C   LIG    1        7.145  -3.331  -2.239  0.00  0.00    +0.167 C 
BRANCH  20  21
ATOM     21  O   LIG    1        7.596  -2.990  -3.551  0.00  0.00    -0.394 OA
ATOM     22  H   LIG    1        8.349  -3.514  -3.857  0.00  0.00    +0.209 HD
ENDBRANCH  20  21
ENDBRANCH  19  20
ENDBRANCH  18  19
ENDBRANCH   8  18
TORSDOF 8
