REMARK  Name = ZINC01548661
REMARK                            x       y       z     vdW  Elec       q    Type
REMARK                         _______ _______ _______ _____ _____    ______ ____
ROOT
ATOM      1  C   LIG    1        2.407   1.395  -0.014  0.00  0.00    +0.008 A 
ATOM      2  C   LIG    1        2.426   0.029  -0.021  0.00  0.00    +0.009 A 
ATOM      3  C   LIG    1        1.225  -0.687  -0.013  0.00  0.00    -0.011 A 
ATOM      4  C   LIG    1        0.002  -0.004   0.002  0.00  0.00    +0.026 A 
ATOM      5 BR   LIG    1       -1.622  -0.972   0.013  0.00  0.00    -0.050 Br
ATOM      6  C   LIG    1       -0.016   1.362   0.009  0.00  0.00    +0.023 A 
ATOM      7  C   LIG    1        1.186   2.078   0.002  0.00  0.00    -0.024 A 
ENDROOT
BRANCH   3   8
ATOM      8  C   LIG    1        1.245  -2.159  -0.022  0.00  0.00    +0.009 C 
ATOM      9  C   LIG    1        2.419  -2.814  -0.037  0.00  0.00    +0.008 C 
BRANCH   9  10
ATOM     10  C   LIG    1        2.439  -4.287  -0.045  0.00  0.00    -0.024 A 
ATOM     11  C   LIG    1        1.236  -5.005  -0.038  0.00  0.00    +0.011 A 
ATOM     12  C   LIG    1        1.250  -6.382  -0.046  0.00  0.00    +0.047 A 
ATOM     13  C   LIG    1        2.457  -7.070  -0.062  0.00  0.00    +0.131 A 
ATOM     14  C   LIG    1        3.668  -6.362  -0.069  0.00  0.00    +0.101 A 
ATOM     15  C   LIG    1        3.655  -4.968  -0.066  0.00  0.00    +0.026 A 
BRANCH  13  16
ATOM     16  O   LIG    1        2.464  -8.426  -0.070  0.00  0.00    -0.506 OA
ATOM     17  H   LIG    1        2.458  -8.813  -0.956  0.00  0.00    +0.292 HD
ENDBRANCH  13  16
BRANCH  14  18
ATOM     18  C   LIG    1        4.950  -7.090  -0.085  0.00  0.00    +0.340 C 
ATOM     19  O   LIG    1        4.959  -8.305  -0.092  0.00  0.00    -0.245 OA
BRANCH  18  20
ATOM     20  O   LIG    1        6.112  -6.408  -0.091  0.00  0.00    -0.477 OA
ATOM     21  H   LIG    1        6.106  -5.471  -0.085  0.00  0.00    +0.295 HD
ENDBRANCH  18  20
ENDBRANCH  14  18
ENDBRANCH   9  10
ENDBRANCH   3   8
BRANCH   7  22
ATOM     22  C   LIG    1        1.166   3.549   0.010  0.00  0.00    +0.008 C 
ATOM     23  C   LIG    1        2.321   4.237   0.003  0.00  0.00    +0.008 C 
BRANCH  23  24
ATOM     24  C   LIG    1        2.301   5.710   0.011  0.00  0.00    -0.024 A 
ATOM     25  C   LIG    1        1.079   6.394   0.026  0.00  0.00    +0.011 A 
ATOM     26  C   LIG    1        1.055   7.771   0.034  0.00  0.00    +0.047 A 
ATOM     27  C   LIG    1        2.242   8.492   0.028  0.00  0.00    +0.131 A 
ATOM     28  C   LIG    1        3.473   7.818   0.013  0.00  0.00    +0.101 A 
ATOM     29  C   LIG    1        3.498   6.423   0.009  0.00  0.00    +0.026 A 
BRANCH  27  30
ATOM     30  O   LIG    1        2.212   9.847   0.036  0.00  0.00    -0.506 OA
ATOM     31  H   LIG    1        2.211  10.235   0.922  0.00  0.00    +0.292 HD
ENDBRANCH  27  30
BRANCH  28  32
ATOM     32  C   LIG    1        4.734   8.581   0.006  0.00  0.00    +0.340 C 
ATOM     33  O   LIG    1        4.710   9.796   0.014  0.00  0.00    -0.245 OA
BRANCH  32  34
ATOM     34  O   LIG    1        5.915   7.931  -0.008  0.00  0.00    -0.477 OA
ATOM     35  H   LIG    1        5.934   6.995  -0.014  0.00  0.00    +0.295 HD
ENDBRANCH  32  34
ENDBRANCH  28  32
ENDBRANCH  23  24
ENDBRANCH   7  22
TORSDOF 10
