REMARK  Name = ZINC01530575
REMARK                            x       y       z     vdW  Elec       q    Type
REMARK                         _______ _______ _______ _____ _____    ______ ____
ROOT
ATOM      1  C   LIG    1       -7.506  -2.047  -3.535  0.00  0.00    +0.213 C 
ATOM      2  N   LIG    1       -8.319  -1.812  -4.584  0.00  0.00    -0.311 N 
ATOM      3  H   LIG    1       -7.994  -1.307  -5.345  0.00  0.00    +0.149 HD
ATOM      4  O   LIG    1       -7.912  -2.679  -2.582  0.00  0.00    -0.276 OA
ENDROOT
BRANCH   1   5
ATOM      5  C   LIG    1       -6.092  -1.526  -3.545  0.00  0.00    +0.096 C 
BRANCH   5   6
ATOM      6  C   LIG    1       -5.390  -1.928  -2.247  0.00  0.00    +0.009 C 
BRANCH   6   7
ATOM      7  C   LIG    1       -3.955  -1.399  -2.258  0.00  0.00    +0.004 C 
BRANCH   7   8
ATOM      8  C   LIG    1       -3.253  -1.801  -0.959  0.00  0.00    +0.027 C 
BRANCH   8  10
ATOM      9  C   LIG    1       -1.412  -0.526   0.013  0.00  0.00    -0.028 C 
ATOM     10  C   LIG    1       -1.839  -1.279  -0.970  0.00  0.00    -0.031 C 
BRANCH   9  12
ATOM     11  C   LIG    1       -0.019   1.526   0.010  0.00  0.00    +0.011 C 
ATOM     12  C   LIG    1        0.002  -0.004   0.002  0.00  0.00    +0.005 C 
ATOM     13  C   LIG    1        0.742  -0.511   1.242  0.00  0.00    +0.011 C 
ENDBRANCH   9  12
ENDBRANCH   8  10
ENDBRANCH   7   8
ENDBRANCH   6   7
ENDBRANCH   5   6
ENDBRANCH   1   5
BRANCH   2  14
ATOM     14  C   LIG    1       -9.694  -2.319  -4.573  0.00  0.00    +0.139 C 
BRANCH  14  15
ATOM     15  C   LIG    1      -10.385  -1.923  -5.852  0.00  0.00    -0.027 A 
ATOM     16  C   LIG    1      -11.068  -0.723  -5.924  0.00  0.00    +0.009 A 
ATOM     17  C   LIG    1      -11.703  -0.354  -7.095  0.00  0.00    +0.049 A 
ATOM     18  C   LIG    1      -11.657  -1.189  -8.200  0.00  0.00    +0.158 A 
ATOM     19  C   LIG    1      -10.970  -2.397  -8.128  0.00  0.00    +0.162 A 
ATOM     20  C   LIG    1      -10.330  -2.757  -6.953  0.00  0.00    +0.054 A 
BRANCH  18  21
ATOM     21  O   LIG    1      -12.282  -0.828  -9.353  0.00  0.00    -0.503 OA
ATOM     22  H   LIG    1      -11.726  -0.321  -9.960  0.00  0.00    +0.292 HD
ENDBRANCH  18  21
BRANCH  19  23
ATOM     23  O   LIG    1      -10.921  -3.219  -9.210  0.00  0.00    -0.491 OA
ATOM     24  C   LIG    1      -10.198  -4.442  -9.064  0.00  0.00    +0.277 C 
ENDBRANCH  19  23
ENDBRANCH  14  15
ENDBRANCH   2  14
TORSDOF 10
