REMARK  Name = ZINC01530861
REMARK                            x       y       z     vdW  Elec       q    Type
REMARK                         _______ _______ _______ _____ _____    ______ ____
ROOT
ATOM      1  N   LIG    1       -0.922  -3.249   4.551  0.00  0.00    -0.310 NA
ATOM      2  H   LIG    1       -1.867  -3.078   4.418  0.00  0.00    +0.122 HD
ENDROOT
BRANCH   1   3
ATOM      3  C   LIG    1       -0.310  -2.873   5.738  0.00  0.00    +0.060 C 
ATOM      4  C   LIG    1        1.041  -3.102   5.949  0.00  0.00    +0.034 C 
ATOM      5  C   LIG    1        1.625  -2.714   7.147  0.00  0.00    +0.082 C 
ATOM      6  N   LIG    1        0.932  -2.132   8.098  0.00  0.00    -0.313 NA
ATOM      7  H   LIG    1        1.380  -1.877   8.920  0.00  0.00    +0.122 HD
ATOM      8  C   LIG    1       -0.375  -1.881   7.963  0.00  0.00    +0.060 C 
ATOM      9  C   LIG    1       -1.102  -1.258   8.992  0.00  0.00    +0.038 C 
ATOM     10  C   LIG    1       -2.428  -0.998   8.821  0.00  0.00    +0.082 C 
ATOM     11 CL   LIG    1       -3.318  -0.220  10.092  0.00  0.00    -0.122 Cl
ATOM     12  C   LIG    1       -3.085  -1.359   7.645  0.00  0.00    +0.020 C 
ATOM     13  C   LIG    1       -2.412  -1.970   6.630  0.00  0.00    +0.008 C 
ATOM     14  C   LIG    1       -1.044  -2.240   6.769  0.00  0.00    +0.023 C 
ENDBRANCH   1   3
BRANCH   1  15
ATOM     15  C   LIG    1       -0.140  -3.903   3.499  0.00  0.00    +0.051 C 
ATOM     16  C   LIG    1       -0.077  -5.407   3.771  0.00  0.00    +0.024 C 
BRANCH  15  17
ATOM     17  C   LIG    1       -0.805  -3.658   2.143  0.00  0.00    +0.016 C 
BRANCH  17  18
ATOM     18  C   LIG    1       -0.756  -2.164   1.814  0.00  0.00    -0.017 C 
BRANCH  18  19
ATOM     19  C   LIG    1       -1.421  -1.919   0.458  0.00  0.00    -0.079 C 
BRANCH  19  20
ATOM     20  N   LIG    1       -1.374  -0.485   0.142  0.00  0.00    +0.379 N 
ATOM     21  H   LIG    1       -1.792   0.039   0.895  0.00  0.00    -0.082 HD
BRANCH  20  23
ATOM     22  C   LIG    1        0.082   1.451  -0.216  0.00  0.00    -0.017 C 
ATOM     23  C   LIG    1        0.024  -0.066  -0.029  0.00  0.00    -0.082 C 
ENDBRANCH  20  23
BRANCH  20  24
ATOM     24  C   LIG    1       -2.116  -0.233  -1.101  0.00  0.00    -0.082 C 
ATOM     25  C   LIG    1       -3.600  -0.533  -0.879  0.00  0.00    -0.017 C 
ENDBRANCH  20  24
ENDBRANCH  19  20
ENDBRANCH  18  19
ENDBRANCH  17  18
ENDBRANCH  15  17
ENDBRANCH   1  15
TORSDOF 8
