REMARK  Name = ZINC01546302
REMARK                            x       y       z     vdW  Elec       q    Type
REMARK                         _______ _______ _______ _____ _____    ______ ____
ROOT
ATOM      1  N   LIG    1       -1.141   2.205   0.019  0.00  0.00    -0.317 N 
ATOM      2  C   LIG    1       -0.017   1.428   0.010  0.00  0.00    +0.187 A 
ATOM      3  N   LIG    1        1.044   2.205   0.004  0.00  0.00    -0.219 NA
ATOM      4  C   LIG    1        0.660   3.490   0.014  0.00  0.00    +0.098 A 
ATOM      5  C   LIG    1       -0.726   3.517   0.026  0.00  0.00    +0.077 A 
ENDROOT
BRANCH   4   6
ATOM      6  C   LIG    1        1.557   4.670   0.012  0.00  0.00    +0.003 A 
ATOM      7  C   LIG    1        1.189   5.826  -0.676  0.00  0.00    +0.013 A 
ATOM      8  C   LIG    1        2.025   6.924  -0.670  0.00  0.00    +0.039 A 
ATOM      9  C   LIG    1        3.233   6.875   0.007  0.00  0.00    +0.123 A 
ATOM     10  F   LIG    1        4.051   7.950   0.005  0.00  0.00    -0.205 F 
ATOM     11  C   LIG    1        3.604   5.726   0.688  0.00  0.00    +0.039 A 
ATOM     12  C   LIG    1        2.773   4.625   0.692  0.00  0.00    +0.013 A 
ENDBRANCH   4   6
BRANCH   5  13
ATOM     13  C   LIG    1       -1.586   4.715   0.041  0.00  0.00    +0.004 A 
ATOM     14  C   LIG    1       -2.701   4.812  -0.803  0.00  0.00    +0.030 A 
ATOM     15  C   LIG    1       -3.479   5.948  -0.753  0.00  0.00    +0.111 A 
ATOM     16  N   LIG    1       -3.181   6.940   0.066  0.00  0.00    -0.263 NA
ATOM     17  C   LIG    1       -2.138   6.892   0.873  0.00  0.00    +0.111 A 
ATOM     18  C   LIG    1       -1.307   5.793   0.894  0.00  0.00    +0.030 A 
ENDBRANCH   5  13
BRANCH   2  19
ATOM     19  C   LIG    1        0.002  -0.004   0.002  0.00  0.00    -0.028 C 
ATOM     20  C   LIG    1        0.018  -1.178  -0.004  0.00  0.00    -0.092 C 
BRANCH  20  21
ATOM     21  C   LIG    1        0.038  -2.650  -0.013  0.00  0.00    +0.117 C 
BRANCH  21  22
ATOM     22  C   LIG    1       -1.397  -3.179  -0.002  0.00  0.00    +0.168 C 
BRANCH  22  23
ATOM     23  O   LIG    1       -1.378  -4.608  -0.009  0.00  0.00    -0.394 OA
ATOM     24  H   LIG    1       -2.256  -5.013  -0.003  0.00  0.00    +0.209 HD
ENDBRANCH  22  23
ENDBRANCH  21  22
ENDBRANCH  20  21
ENDBRANCH   2  19
BRANCH   1  25
ATOM     25  C   LIG    1       -2.527   1.730   0.022  0.00  0.00    +0.125 C 
BRANCH  25  26
ATOM     26  C   LIG    1       -3.003   1.558   1.466  0.00  0.00    +0.026 C 
BRANCH  26  27
ATOM     27  C   LIG    1       -4.451   1.062   1.469  0.00  0.00    +0.037 C 
BRANCH  27  31
ATOM     28  C   LIG    1       -5.782   0.581   5.499  0.00  0.00    +0.000 A 
ATOM     29  C   LIG    1       -5.954   1.791   4.854  0.00  0.00    +0.000 A 
ATOM     30  C   LIG    1       -5.523   1.947   3.550  0.00  0.00    +0.003 A 
ATOM     31  C   LIG    1       -4.920   0.892   2.891  0.00  0.00    -0.047 A 
ATOM     32  C   LIG    1       -4.753  -0.320   3.534  0.00  0.00    +0.003 A 
ATOM     33  C   LIG    1       -5.179  -0.474   4.840  0.00  0.00    +0.000 A 
ENDBRANCH  27  31
ENDBRANCH  26  27
ENDBRANCH  25  26
ENDBRANCH   1  25
TORSDOF 10
