REMARK  Name = ZINC01491591
REMARK                            x       y       z     vdW  Elec       q    Type
REMARK                         _______ _______ _______ _____ _____    ______ ____
ROOT
ATOM      1  N   LIG    1        2.520  -0.898  -5.833  0.00  0.00    -0.364 N 
ATOM      2  H   LIG    1        2.003  -0.092  -5.678  0.00  0.00    +0.162 HD
ATOM      3  C   LIG    1        3.074  -1.128  -7.061  0.00  0.00    +0.125 C 
ENDROOT
BRANCH   3   4
ATOM      4  S   LIG    1        2.862  -0.028  -8.286  0.00  0.00    -0.110 S 
ATOM      5  H   LIG    1        2.110   1.012  -7.837  0.00  0.00    +0.110 HD
ENDBRANCH   3   4
BRANCH   3   6
ATOM      6  N   LIG    1        3.802  -2.263  -7.280  0.00  0.00    -0.322 N 
ATOM      7  H   LIG    1        3.926  -2.905  -6.564  0.00  0.00    +0.148 HD
BRANCH   6   8
ATOM      8  C   LIG    1        4.396  -2.509  -8.596  0.00  0.00    +0.138 C 
BRANCH   8   9
ATOM      9  C   LIG    1        5.142  -3.819  -8.574  0.00  0.00    -0.028 A 
ATOM     10  C   LIG    1        6.477  -3.846  -8.216  0.00  0.00    +0.007 A 
ATOM     11  C   LIG    1        7.164  -5.044  -8.194  0.00  0.00    +0.028 A 
ATOM     12  C   LIG    1        6.513  -6.223  -8.532  0.00  0.00    +0.083 A 
ATOM     13  C   LIG    1        5.170  -6.193  -8.891  0.00  0.00    +0.146 A 
ATOM     14  F   LIG    1        4.532  -7.338  -9.221  0.00  0.00    -0.203 F 
ATOM     15  C   LIG    1        4.487  -4.991  -8.905  0.00  0.00    +0.045 A 
BRANCH  12  16
ATOM     16  N   LIG    1        7.207  -7.438  -8.511  0.00  0.00    -0.218 N 
ATOM     17  H   LIG    1        8.157  -7.457  -8.257  0.00  0.00    +0.173 HD
BRANCH  16  18
ATOM     18  S   LIG    1        6.428  -8.842  -8.915  0.00  0.00    +0.040 S 
ATOM     19  C   LIG    1        7.688 -10.137  -8.752  0.00  0.00    +0.218 C 
ATOM     20  O   LIG    1        6.068  -8.679 -10.279  0.00  0.00    -0.155 OA
ATOM     21  O   LIG    1        5.430  -9.003  -7.916  0.00  0.00    -0.155 OA
ENDBRANCH  16  18
ENDBRANCH  12  16
ENDBRANCH   8   9
ENDBRANCH   6   8
ENDBRANCH   3   6
BRANCH   1  22
ATOM     22  C   LIG    1        2.707  -1.868  -4.752  0.00  0.00    +0.150 C 
BRANCH  22  26
ATOM     23  C   LIG    1        0.707  -0.490  -1.238  0.00  0.00    -0.042 A 
ATOM     24  C   LIG    1        0.036  -1.284  -2.148  0.00  0.00    +0.004 A 
ATOM     25  C   LIG    1        0.683  -1.730  -3.286  0.00  0.00    +0.005 A 
ATOM     26  C   LIG    1        2.001  -1.381  -3.513  0.00  0.00    -0.028 A 
ATOM     27  C   LIG    1        2.672  -0.586  -2.603  0.00  0.00    +0.005 A 
ATOM     28  C   LIG    1        2.024  -0.137  -1.467  0.00  0.00    +0.004 A 
BRANCH  23  30
ATOM     29  C   LIG    1       -0.019   1.526   0.010  0.00  0.00    +0.015 C 
ATOM     30  C   LIG    1        0.002  -0.004   0.002  0.00  0.00    -0.013 C 
ATOM     31  C   LIG    1       -1.433  -0.534   0.013  0.00  0.00    +0.015 C 
ATOM     32  C   LIG    1        0.742  -0.511   1.242  0.00  0.00    +0.015 C 
ENDBRANCH  23  30
ENDBRANCH  22  26
ENDBRANCH   1  22
TORSDOF 9
