REMARK  Name = ZINC01529614
REMARK                            x       y       z     vdW  Elec       q    Type
REMARK                         _______ _______ _______ _____ _____    ______ ____
ROOT
ATOM      1  C   LIG    1       -0.017   1.379   0.010  0.00  0.00    +0.001 A 
ATOM      2  C   LIG    1        1.164   2.101   0.002  0.00  0.00    +0.001 A 
ATOM      3  C   LIG    1        2.382   1.448  -0.013  0.00  0.00    +0.012 A 
ATOM      4  C   LIG    1        2.417   0.055  -0.020  0.00  0.00    +0.033 A 
ATOM      5  C   LIG    1        1.217  -0.682  -0.013  0.00  0.00    -0.006 A 
ATOM      6  C   LIG    1        1.246  -2.161  -0.024  0.00  0.00    -0.006 A 
ATOM      7  C   LIG    1        0.086  -2.884  -0.282  0.00  0.00    +0.009 A 
ATOM      8  C   LIG    1        0.120  -4.267  -0.289  0.00  0.00    +0.001 A 
ATOM      9  C   LIG    1        1.302  -4.945  -0.040  0.00  0.00    +0.001 A 
ATOM     10  C   LIG    1        2.466  -4.246   0.219  0.00  0.00    +0.012 A 
ATOM     11  C   LIG    1        2.446  -2.853   0.228  0.00  0.00    +0.033 A 
ATOM     12  C   LIG    1        3.678  -2.081   0.499  0.00  0.00    +0.234 C 
ATOM     13  O   LIG    1        4.612  -2.554   1.113  0.00  0.00    -0.283 OA
ATOM     14  C   LIG    1        3.706  -0.670  -0.034  0.00  0.00    +0.234 C 
ATOM     15  O   LIG    1        4.726  -0.160  -0.450  0.00  0.00    -0.283 OA
ATOM     16  C   LIG    1        0.002  -0.004   0.002  0.00  0.00    +0.009 A 
ENDROOT
TORSDOF 0
