REMARK  Name = ZINC01567332
REMARK                            x       y       z     vdW  Elec       q    Type
REMARK                         _______ _______ _______ _____ _____    ______ ____
ROOT
ATOM      1  C   LIG    1        0.068  -5.218  -0.757  0.00  0.00    +0.084 C 
ENDROOT
BRANCH   1  10
ATOM      2  C   LIG    1       -0.018   1.503   0.010  0.00  0.00    +0.044 C 
ATOM      3  C   LIG    1        0.002  -0.004   0.002  0.00  0.00    -0.046 A 
ATOM      4  C   LIG    1        0.006  -0.703  -1.218  0.00  0.00    +0.021 A 
ATOM      5  C   LIG    1        0.024  -2.052  -1.230  0.00  0.00    +0.095 A 
ATOM      6  N   LIG    1        0.039  -2.756  -0.062  0.00  0.00    -0.286 N 
ATOM      7  C   LIG    1        0.036  -2.101   1.145  0.00  0.00    +0.161 A 
ATOM      8  N   LIG    1        0.053  -3.031   2.086  0.00  0.00    -0.129 NA
ATOM      9  N   LIG    1        0.066  -4.195   1.538  0.00  0.00    -0.134 NA
ATOM     10  C   LIG    1        0.058  -4.083   0.234  0.00  0.00    +0.138 A 
ATOM     11  C   LIG    1        0.023  -0.693   1.175  0.00  0.00    +0.052 A 
ENDBRANCH   1  10
BRANCH   1  12
ATOM     12  C   LIG    1        1.513  -5.583  -1.101  0.00  0.00    +0.084 C 
BRANCH  12  13
ATOM     13  C   LIG    1        1.523  -6.718  -2.092  0.00  0.00    +0.138 A 
ATOM     14  N   LIG    1        1.535  -7.994  -1.807  0.00  0.00    -0.134 NA
ATOM     15  N   LIG    1        1.540  -8.693  -2.888  0.00  0.00    -0.129 NA
ATOM     16  C   LIG    1        1.531  -7.885  -3.936  0.00  0.00    +0.161 A 
ATOM     17  C   LIG    1        1.530  -8.103  -5.327  0.00  0.00    +0.052 A 
ATOM     18  C   LIG    1        1.505  -7.034  -6.167  0.00  0.00    -0.046 A 
ATOM     19  C   LIG    1        1.499  -7.244  -7.659  0.00  0.00    +0.044 C 
ATOM     20  C   LIG    1        1.492  -5.732  -5.637  0.00  0.00    +0.021 A 
ATOM     21  C   LIG    1        1.496  -5.538  -4.302  0.00  0.00    +0.095 A 
ATOM     22  N   LIG    1        1.514  -6.601  -3.448  0.00  0.00    -0.286 N 
ENDBRANCH  12  13
ENDBRANCH   1  12
TORSDOF 3
