REMARK  Name = ZINC01543482
REMARK                            x       y       z     vdW  Elec       q    Type
REMARK                         _______ _______ _______ _____ _____    ______ ____
ROOT
ATOM      1  C   LIG    1        3.780  -7.551  -0.072  0.00  0.00    -0.014 C 
ATOM      2  C   LIG    1        3.779  -8.832  -0.461  0.00  0.00    -0.017 C 
ATOM      3  C   LIG    1        2.504  -9.506  -0.887  0.00  0.00    +0.038 C 
ATOM      4  C   LIG    1        1.325  -9.009  -0.053  0.00  0.00    -0.006 C 
ATOM      5  C   LIG    1        1.467  -9.521   1.382  0.00  0.00    +0.016 C 
ATOM      6  C   LIG    1        0.021  -9.538  -0.652  0.00  0.00    +0.016 C 
ATOM      7  C   LIG    1        1.298  -7.503  -0.047  0.00  0.00    -0.034 A 
ATOM      8  C   LIG    1        0.097  -6.823  -0.033  0.00  0.00    +0.006 A 
ATOM      9  C   LIG    1        0.080  -5.443  -0.020  0.00  0.00    +0.017 A 
ATOM     10  C   LIG    1        1.280  -4.725  -0.034  0.00  0.00    +0.026 A 
ATOM     11  C   LIG    1        2.498  -5.408  -0.049  0.00  0.00    +0.025 A 
ATOM     12  C   LIG    1        2.503  -6.796  -0.056  0.00  0.00    -0.013 A 
ENDROOT
BRANCH   1  17
ATOM     13  C   LIG    1        8.691  -4.997   1.518  0.00  0.00    +0.044 C 
ATOM     14  C   LIG    1        7.406  -5.665   1.102  0.00  0.00    -0.050 A 
ATOM     15  C   LIG    1        7.242  -6.090  -0.204  0.00  0.00    +0.004 A 
ATOM     16  C   LIG    1        6.067  -6.702  -0.591  0.00  0.00    +0.009 A 
ATOM     17  C   LIG    1        5.045  -6.893   0.337  0.00  0.00    -0.018 A 
ATOM     18  C   LIG    1        5.214  -6.458   1.651  0.00  0.00    +0.009 A 
ATOM     19  C   LIG    1        6.395  -5.851   2.028  0.00  0.00    +0.004 A 
ENDBRANCH   1  17
BRANCH  10  20
ATOM     20  C   LIG    1        1.260  -3.293  -0.027  0.00  0.00    -0.061 C 
ATOM     21  C   LIG    1        1.243  -2.119  -0.021  0.00  0.00    -0.061 C 
BRANCH  21  22
ATOM     22  C   LIG    1        1.224  -0.687  -0.013  0.00  0.00    +0.025 A 
ATOM     23  C   LIG    1        0.002  -0.004   0.002  0.00  0.00    +0.017 A 
ATOM     24  C   LIG    1       -0.016   1.361   0.009  0.00  0.00    +0.016 A 
ATOM     25  C   LIG    1        1.185   2.077   0.002  0.00  0.00    +0.059 A 
ATOM     26  C   LIG    1        2.406   1.395  -0.013  0.00  0.00    +0.016 A 
ATOM     27  C   LIG    1        2.425   0.030  -0.021  0.00  0.00    +0.017 A 
BRANCH  25  28
ATOM     28  C   LIG    1        1.165   3.552   0.010  0.00  0.00    +0.337 C 
ATOM     29  O   LIG    1        0.104   4.145   0.023  0.00  0.00    -0.245 OA
BRANCH  28  30
ATOM     30  O   LIG    1        2.322   4.242   0.003  0.00  0.00    -0.477 OA
ATOM     31  H   LIG    1        3.140   3.785  -0.008  0.00  0.00    +0.295 HD
ENDBRANCH  28  30
ENDBRANCH  25  28
ENDBRANCH  21  22
ENDBRANCH  10  20
TORSDOF 5
