REMARK  Name = ZINC01542568
REMARK                            x       y       z     vdW  Elec       q    Type
REMARK                         _______ _______ _______ _____ _____    ______ ____
ROOT
ATOM      1  N   LIG    1        7.249  -2.683   2.801  0.00  0.00    +0.380 N 
ATOM      2  H   LIG    1        7.917  -2.163   2.252  0.00  0.00    -0.082 HD
ATOM      3  C   LIG    1        7.058  -4.010   2.203  0.00  0.00    -0.078 C 
ATOM      4  C   LIG    1        8.405  -4.730   2.108  0.00  0.00    -0.007 C 
ATOM      5  C   LIG    1        8.996  -4.882   3.513  0.00  0.00    +0.057 C 
ATOM      6  C   LIG    1        9.121  -3.497   4.155  0.00  0.00    -0.007 C 
ATOM      7  C   LIG    1        7.748  -2.823   4.174  0.00  0.00    -0.078 C 
ENDROOT
BRANCH   5   8
ATOM      8  C   LIG    1       10.358  -5.520   3.420  0.00  0.00    +0.166 C 
ATOM      9  O   LIG    1       11.045  -5.343   2.437  0.00  0.00    -0.292 OA
BRANCH   8  10
ATOM     10  C   LIG    1       10.854  -6.357   4.522  0.00  0.00    +0.018 A 
ATOM     11  C   LIG    1       10.061  -6.569   5.656  0.00  0.00    +0.014 A 
ATOM     12  C   LIG    1       10.532  -7.354   6.685  0.00  0.00    +0.039 A 
ATOM     13  C   LIG    1       11.788  -7.935   6.599  0.00  0.00    +0.123 A 
ATOM     14  F   LIG    1       12.245  -8.704   7.612  0.00  0.00    -0.205 F 
ATOM     15  C   LIG    1       12.579  -7.730   5.478  0.00  0.00    +0.039 A 
ATOM     16  C   LIG    1       12.118  -6.951   4.439  0.00  0.00    +0.014 A 
ENDBRANCH   8  10
ENDBRANCH   5   8
BRANCH   1  17
ATOM     17  C   LIG    1        5.967  -1.966   2.818  0.00  0.00    -0.079 C 
BRANCH  17  18
ATOM     18  C   LIG    1        5.507  -1.710   1.381  0.00  0.00    -0.018 C 
BRANCH  18  19
ATOM     19  C   LIG    1        4.171  -0.963   1.399  0.00  0.00    +0.003 C 
BRANCH  19  20
ATOM     20  C   LIG    1        3.711  -0.707  -0.038  0.00  0.00    +0.035 C 
BRANCH  20  24
ATOM     21  C   LIG    1       -0.017   1.378   0.010  0.00  0.00    +0.000 A 
ATOM     22  C   LIG    1        1.171   2.086   0.002  0.00  0.00    +0.000 A 
ATOM     23  C   LIG    1        2.377   1.411  -0.013  0.00  0.00    +0.003 A 
ATOM     24  C   LIG    1        2.396   0.029  -0.020  0.00  0.00    -0.047 A 
ATOM     25  C   LIG    1        1.208  -0.679  -0.012  0.00  0.00    +0.003 A 
ATOM     26  C   LIG    1        0.002  -0.004   0.002  0.00  0.00    +0.000 A 
ENDBRANCH  20  24
ENDBRANCH  19  20
ENDBRANCH  18  19
ENDBRANCH  17  18
ENDBRANCH   1  17
TORSDOF 7
