REMARK  Name = ZINC01587664
REMARK                            x       y       z     vdW  Elec       q    Type
REMARK                         _______ _______ _______ _____ _____    ______ ____
ROOT
ATOM      1  C   LIG    1       -0.496   1.321   1.526  0.00  0.00    +0.045 C 
ENDROOT
BRANCH   1   2
ATOM      2  C   LIG    1        0.429   0.835   2.611  0.00  0.00    -0.034 A 
ATOM      3  C   LIG    1        1.204   1.738   3.315  0.00  0.00    +0.004 A 
ATOM      4  C   LIG    1        2.049   1.293   4.314  0.00  0.00    +0.000 A 
ATOM      5  C   LIG    1        2.128  -0.057   4.602  0.00  0.00    +0.000 A 
ATOM      6  C   LIG    1        1.358  -0.961   3.894  0.00  0.00    +0.000 A 
ATOM      7  C   LIG    1        0.509  -0.515   2.899  0.00  0.00    +0.004 A 
ENDBRANCH   1   2
BRANCH   1   8
ATOM      8  C   LIG    1       -1.889   0.807   1.786  0.00  0.00    -0.034 A 
ATOM      9  C   LIG    1       -2.168   0.130   2.959  0.00  0.00    +0.004 A 
ATOM     10  C   LIG    1       -3.446  -0.337   3.200  0.00  0.00    +0.000 A 
ATOM     11  C   LIG    1       -4.444  -0.136   2.264  0.00  0.00    +0.000 A 
ATOM     12  C   LIG    1       -4.163   0.537   1.089  0.00  0.00    +0.000 A 
ATOM     13  C   LIG    1       -2.886   1.008   0.850  0.00  0.00    +0.004 A 
ENDBRANCH   1   8
BRANCH   1  14
ATOM     14  C   LIG    1       -0.008   0.805   0.170  0.00  0.00    +0.129 C 
BRANCH  14  16
ATOM     15  C   LIG    1        1.964   0.631  -1.354  0.00  0.00    +0.006 C 
ATOM     16  C   LIG    1        1.454   1.207  -0.031  0.00  0.00    +0.029 C 
ENDBRANCH  14  16
BRANCH  14  17
ATOM     17  O   LIG    1       -0.806   1.372  -0.871  0.00  0.00    -0.391 OA
ATOM     18  H   LIG    1       -0.715   2.331  -0.958  0.00  0.00    +0.210 HD
ENDBRANCH  14  17
ENDBRANCH   1  14
BRANCH   1  19
ATOM     19  C   LIG    1       -0.511   2.850   1.514  0.00  0.00    +0.003 C 
BRANCH  19  20
ATOM     20  C   LIG    1       -1.147   3.364   2.808  0.00  0.00    -0.071 C 
ATOM     21  C   LIG    1       -1.009   4.886   2.875  0.00  0.00    -0.013 C 
BRANCH  20  22
ATOM     22  N   LIG    1       -2.572   2.972   2.825  0.00  0.00    +0.378 N 
ATOM     23  H   LIG    1       -2.643   1.964   2.644  0.00  0.00    -0.082 HD
ATOM     24  C   LIG    1       -3.310   3.703   1.774  0.00  0.00    -0.096 C 
ATOM     25  C   LIG    1       -3.160   3.264   4.150  0.00  0.00    -0.096 C 
ENDBRANCH  20  22
ENDBRANCH  19  20
ENDBRANCH   1  19
TORSDOF 8
