REMARK  Name = ZINC01661610
REMARK                            x       y       z     vdW  Elec       q    Type
REMARK                         _______ _______ _______ _____ _____    ______ ____
ROOT
ATOM      1  N   LIG    1       -1.244   1.118  -1.627  0.00  0.00    -0.224 N 
ATOM      2  C   LIG    1       -2.147   0.627  -2.500  0.00  0.00    +0.244 C 
ATOM      3  C   LIG    1       -2.369   1.721  -3.524  0.00  0.00    +0.169 C 
ATOM      4  C   LIG    1       -1.931   1.223  -4.907  0.00  0.00    +0.069 C 
ATOM      5  C   LIG    1       -1.549   2.403  -5.765  0.00  0.00    -0.015 A 
ATOM      6  C   LIG    1       -1.452   2.446  -7.212  0.00  0.00    +0.003 A 
ATOM      7  C   LIG    1       -1.675   1.486  -8.204  0.00  0.00    +0.010 A 
ATOM      8  C   LIG    1       -1.485   1.882  -9.504  0.00  0.00    +0.001 A 
ATOM      9  C   LIG    1       -1.089   3.169  -9.831  0.00  0.00    +0.002 A 
ATOM     10  C   LIG    1       -0.860   4.138  -8.870  0.00  0.00    +0.026 A 
ATOM     11  C   LIG    1       -1.047   3.765  -7.541  0.00  0.00    +0.047 A 
ATOM     12  N   LIG    1       -0.913   4.452  -6.369  0.00  0.00    -0.356 N 
ATOM     13  H   LIG    1       -0.643   5.381  -6.294  0.00  0.00    +0.166 HD
ATOM     14  C   LIG    1       -1.218   3.632  -5.316  0.00  0.00    +0.046 A 
ATOM     15  C   LIG    1       -1.201   4.014  -3.849  0.00  0.00    +0.156 C 
ATOM     16  N   LIG    1       -1.418   2.772  -3.097  0.00  0.00    -0.261 N 
ATOM     17  O   LIG    1       -2.673  -0.465  -2.470  0.00  0.00    -0.273 OA
ATOM     18  C   LIG    1       -0.845   2.352  -1.968  0.00  0.00    +0.313 C 
ATOM     19  O   LIG    1       -0.053   3.011  -1.323  0.00  0.00    -0.252 OA
ENDROOT
BRANCH  15  20
ATOM     20  C   LIG    1       -2.305   4.997  -3.554  0.00  0.00    -0.018 A 
ATOM     21  C   LIG    1       -3.627   4.606  -3.669  0.00  0.00    +0.006 A 
ATOM     22  C   LIG    1       -4.642   5.503  -3.394  0.00  0.00    +0.004 A 
ATOM     23  C   LIG    1       -4.338   6.797  -3.015  0.00  0.00    +0.045 A 
ATOM     24  C   LIG    1       -3.013   7.193  -2.906  0.00  0.00    +0.117 A 
ATOM     25  C   LIG    1       -1.996   6.289  -3.176  0.00  0.00    +0.051 A 
BRANCH  24  26
ATOM     26  O   LIG    1       -2.712   8.465  -2.534  0.00  0.00    -0.507 OA
ATOM     27  H   LIG    1       -2.629   9.082  -3.274  0.00  0.00    +0.292 HD
ENDBRANCH  24  26
ENDBRANCH  15  20
BRANCH   1  28
ATOM     28  C   LIG    1       -0.755   0.390  -0.453  0.00  0.00    +0.118 C 
BRANCH  28  29
ATOM     29  C   LIG    1       -1.649   0.700   0.749  0.00  0.00    +0.019 C 
BRANCH  29  31
ATOM     30  C   LIG    1       -2.033   0.250   3.176  0.00  0.00    +0.004 C 
ATOM     31  C   LIG    1       -1.139  -0.060   1.974  0.00  0.00    -0.002 C 
ENDBRANCH  29  31
ENDBRANCH  28  29
ENDBRANCH   1  28
TORSDOF 5
