REMARK  Name = ZINC01625751
REMARK                            x       y       z     vdW  Elec       q    Type
REMARK                         _______ _______ _______ _____ _____    ______ ____
ROOT
ATOM      1  C   UNK A  0        7.143   4.875  -0.690  0.00  0.00    +0.069 A 
ATOM      2  C   UNK A  0        6.776   4.652  -2.001  0.00  0.00    +0.032 A 
ATOM      3  C   UNK A  0        5.501   4.232  -2.266  0.00  0.00    +0.022 A 
ATOM      4  C   UNK A  0        4.650   4.058  -1.183  0.00  0.00    +0.076 A 
ATOM      5  S   UNK A  0        5.696   4.506   0.191  0.00  0.00    -0.069 S 
ENDROOT
BRANCH   4   6
ATOM      6  C   UNK A  0        3.297   3.638  -1.173  0.00  0.00    +0.251 C 
ATOM      7  N   GLU A  1        2.634   3.529  -0.004  0.00  0.00    -0.298 N 
ATOM      8  H   GLU A  1        3.083   3.738   0.830  0.00  0.00    +0.150 HD
ATOM      9  O   UNK A  0        2.732   3.375  -2.220  0.00  0.00    -0.270 OA
BRANCH   7  10
ATOM     10  CA  GLU A  1        1.235   3.094   0.007  0.00  0.00    +0.182 C 
BRANCH  10  11
ATOM     11  C   GLU A  1        1.177   1.588  -0.001  0.00  0.00    +0.325 C 
ATOM     12  O   GLU A  1        2.199   0.944  -0.014  0.00  0.00    -0.249 OA
BRANCH  11  13
ATOM     13  OXT GLU A  1       -0.011   0.963   0.007  0.00  0.00    -0.479 OA
ATOM     14  HXT GLU A  1       -0.804   1.462   0.018  0.00  0.00    +0.295 HD
ENDBRANCH  11  13
ENDBRANCH  10  11
BRANCH  10  15
ATOM     15  CB  GLU A  1        0.546   3.625   1.266  0.00  0.00    +0.045 C 
BRANCH  15  16
ATOM     16  CG  GLU A  1        0.495   5.153   1.213  0.00  0.00    +0.123 C 
BRANCH  16  17
ATOM     17  CD  GLU A  1       -0.184   5.676   2.453  0.00  0.00    +0.305 C 
ATOM     18  OE1 GLU A  1       -0.585   4.906   3.292  0.00  0.00    -0.251 OA
BRANCH  17  19
ATOM     19  OE2 GLU A  1       -0.342   6.998   2.624  0.00  0.00    -0.481 OA
ATOM     20  HE2 GLU A  1       -0.031   7.596   1.973  0.00  0.00    +0.295 HD
ENDBRANCH  17  19
ENDBRANCH  16  17
ENDBRANCH  15  16
ENDBRANCH  10  15
ENDBRANCH   7  10
ENDBRANCH   4   6
BRANCH   1  21
ATOM     21  N   UNK A  0        8.367   5.296  -0.197  0.00  0.00    -0.323 N 
ATOM     22  C   UNK A  0        9.474   5.563  -1.119  0.00  0.00    +0.130 C 
BRANCH  21  23
ATOM     23  C   UNK A  0        8.554   5.474   1.245  0.00  0.00    +0.140 C 
BRANCH  23  30
ATOM     24  C   UNK A  0       12.048  -0.929   4.229  0.00  0.00    +0.086 C 
ATOM     25  C   UNK A  0       11.625   0.379   3.612  0.00  0.00    +0.107 A 
ATOM     26  N   UNK A  0       12.592   1.230   3.180  0.00  0.00    -0.311 N 
ATOM     27  C   UNK A  0       12.264   2.418   2.619  0.00  0.00    +0.259 A 
ATOM     28  C   UNK A  0       10.834   2.739   2.501  0.00  0.00    +0.065 A 
ATOM     29  C   UNK A  0       10.391   3.934   1.938  0.00  0.00    +0.020 A 
ATOM     30  C   UNK A  0        9.039   4.183   1.852  0.00  0.00    -0.029 A 
ATOM     31  C   UNK A  0        8.118   3.257   2.325  0.00  0.00    +0.007 A 
ATOM     32  C   UNK A  0        8.535   2.068   2.880  0.00  0.00    +0.029 A 
ATOM     33  C   UNK A  0        9.900   1.792   2.978  0.00  0.00    +0.078 A 
ATOM     34  O   UNK A  0       13.120   3.190   2.228  0.00  0.00    -0.267 OA
ATOM     35  H   UNK A  0       13.525   0.985   3.275  0.00  0.00    +0.170 HD
ATOM     36  N   UNK A  0       10.355   0.635   3.521  0.00  0.00    -0.234 NA
ENDBRANCH  23  30
ENDBRANCH  21  23
ENDBRANCH   1  21
TORSDOF 11
