REMARK  Name = ZINC01530579
REMARK                            x       y       z     vdW  Elec       q    Type
REMARK                         _______ _______ _______ _____ _____    ______ ____
ROOT
ATOM      1  C   LIG    1       -4.043  -4.893   2.042  0.00  0.00    +0.135 C 
ENDROOT
BRANCH   1   2
ATOM      2  O   LIG    1       -4.238  -3.480   2.124  0.00  0.00    -0.390 OA
ATOM      3  H   LIG    1       -3.870  -3.077   2.922  0.00  0.00    +0.210 HD
ENDBRANCH   1   2
BRANCH   1   4
ATOM      4  C   LIG    1       -2.544  -5.202   2.054  0.00  0.00    -0.047 C 
BRANCH   4   5
ATOM      5  N   LIG    1       -1.902  -4.552   0.904  0.00  0.00    +0.383 N 
ATOM      6  H   LIG    1       -2.310  -4.899   0.049  0.00  0.00    -0.086 HD
ATOM      7  H   LIG    1       -2.040  -3.554   0.961  0.00  0.00    -0.086 HD
BRANCH   5   8
ATOM      8  C   LIG    1       -0.463  -4.849   0.915  0.00  0.00    -0.041 C 
BRANCH   8   9
ATOM      9  C   LIG    1        0.206  -4.171  -0.283  0.00  0.00    +0.210 C 
BRANCH   9  10
ATOM     10  O   LIG    1        0.112  -2.753  -0.142  0.00  0.00    -0.490 OA
BRANCH  10  16
ATOM     11  C   LIG    1        0.606  -0.608  -1.056  0.00  0.00    +0.161 A 
ATOM     12  C   LIG    1        1.173   0.159  -2.062  0.00  0.00    +0.049 A 
ATOM     13  C   LIG    1        1.787  -0.456  -3.137  0.00  0.00    +0.004 A 
ATOM     14  C   LIG    1        1.837  -1.836  -3.212  0.00  0.00    +0.004 A 
ATOM     15  C   LIG    1        1.273  -2.606  -2.212  0.00  0.00    +0.049 A 
ATOM     16  C   LIG    1        0.662  -1.996  -1.129  0.00  0.00    +0.162 A 
BRANCH  11  18
ATOM     17  C   LIG    1       -0.017   1.425   0.010  0.00  0.00    +0.277 C 
ATOM     18  O   LIG    1        0.002  -0.004   0.002  0.00  0.00    -0.491 OA
ENDBRANCH  11  18
ENDBRANCH  10  16
ENDBRANCH   9  10
ENDBRANCH   8   9
ENDBRANCH   5   8
ENDBRANCH   4   5
ENDBRANCH   1   4
BRANCH   1  19
ATOM     19  C   LIG    1       -4.712  -5.571   3.240  0.00  0.00    +0.258 C 
BRANCH  19  20
ATOM     20  O   LIG    1       -6.127  -5.380   3.166  0.00  0.00    -0.489 OA
BRANCH  20  21
ATOM     21  C   LIG    1       -6.875  -5.923   4.161  0.00  0.00    +0.130 A 
ATOM     22  C   LIG    1       -6.264  -6.619   5.190  0.00  0.00    +0.046 A 
ATOM     23  C   LIG    1       -7.027  -7.173   6.205  0.00  0.00    +0.006 A 
ATOM     24  C   LIG    1       -8.400  -7.040   6.204  0.00  0.00    +0.026 A 
ATOM     25  C   LIG    1       -9.034  -6.344   5.179  0.00  0.00    +0.051 A 
ATOM     26  N   LIG    1      -10.366  -6.063   4.932  0.00  0.00    -0.354 N 
ATOM     27  H   LIG    1      -11.105  -6.340   5.495  0.00  0.00    +0.166 HD
ATOM     28  C   LIG    1      -10.490  -5.313   3.775  0.00  0.00    +0.048 A 
ATOM     29  C   LIG    1      -11.596  -4.788   3.114  0.00  0.00    +0.026 A 
ATOM     30  C   LIG    1      -11.428  -4.078   1.945  0.00  0.00    +0.002 A 
ATOM     31  C   LIG    1      -10.162  -3.879   1.417  0.00  0.00    +0.001 A 
ATOM     32  C   LIG    1       -9.054  -4.391   2.057  0.00  0.00    +0.011 A 
ATOM     33  C   LIG    1       -9.210  -5.111   3.240  0.00  0.00    +0.011 A 
ATOM     34  C   LIG    1       -8.264  -5.776   4.154  0.00  0.00    +0.049 A 
ENDBRANCH  20  21
ENDBRANCH  19  20
ENDBRANCH   1  19
TORSDOF 11
