REMARK  Name = ZINC01530832
REMARK                            x       y       z     vdW  Elec       q    Type
REMARK                         _______ _______ _______ _____ _____    ______ ____
ROOT
ATOM      1  C   LIG    1       -3.352   3.179  -0.409  0.00  0.00    -0.040 A 
ATOM      2  C   LIG    1       -2.142   3.067   0.248  0.00  0.00    +0.049 A 
ATOM      3  C   LIG    1       -2.109   2.983   1.633  0.00  0.00    +0.124 A 
ATOM      4  C   LIG    1       -3.292   3.000   2.356  0.00  0.00    +0.043 A 
ATOM      5  C   LIG    1       -4.505   3.107   1.693  0.00  0.00    +0.124 A 
ATOM      6  C   LIG    1       -4.532   3.197   0.309  0.00  0.00    +0.049 A 
ENDROOT
BRANCH   4   7
ATOM      7  C   LIG    1       -3.259   2.902   3.859  0.00  0.00    +0.056 C 
ATOM      8  C   LIG    1       -4.395   2.039   4.326  0.00  0.00    -0.019 C 
ATOM      9  C   LIG    1       -5.486   2.498   4.850  0.00  0.00    -0.076 C 
ATOM     10  C   LIG    1       -6.543   1.506   5.261  0.00  0.00    +0.039 C 
ATOM     11  C   LIG    1       -5.764   3.956   5.073  0.00  0.00    +0.031 C 
ATOM     12  C   LIG    1       -4.810   4.809   4.234  0.00  0.00    +0.013 C 
ATOM     13  C   LIG    1       -3.379   4.303   4.462  0.00  0.00    +0.026 C 
BRANCH  13  14
ATOM     14  C   LIG    1       -2.401   5.231   3.787  0.00  0.00    -0.076 C 
ATOM     15  C   LIG    1       -2.696   5.764   2.409  0.00  0.00    +0.039 C 
ATOM     16  C   LIG    1       -1.294   5.573   4.399  0.00  0.00    +0.007 C 
ENDBRANCH  13  14
ENDBRANCH   4   7
BRANCH   3  17
ATOM     17  O   LIG    1       -0.918   2.879   2.280  0.00  0.00    -0.506 OA
ATOM     18  H   LIG    1       -0.654   1.969   2.473  0.00  0.00    +0.292 HD
ENDBRANCH   3  17
BRANCH   5  19
ATOM     19  O   LIG    1       -5.666   3.124   2.399  0.00  0.00    -0.506 OA
ATOM     20  H   LIG    1       -6.049   2.248   2.547  0.00  0.00    +0.292 HD
ENDBRANCH   5  19
BRANCH   1  21
ATOM     21  C   LIG    1       -3.385   3.276  -1.913  0.00  0.00    +0.035 C 
BRANCH  21  22
ATOM     22  C   LIG    1       -3.319   4.747  -2.331  0.00  0.00    +0.005 C 
BRANCH  22  23
ATOM     23  C   LIG    1       -3.352   4.845  -3.857  0.00  0.00    +0.000 C 
BRANCH  23  25
ATOM     24  C   LIG    1       -3.320   6.413  -5.802  0.00  0.00    +0.004 C 
ATOM     25  C   LIG    1       -3.286   6.315  -4.276  0.00  0.00    -0.003 C 
ENDBRANCH  23  25
ENDBRANCH  22  23
ENDBRANCH  21  22
ENDBRANCH   1  21
TORSDOF 8
