REMARK  Name = ZINC01638007
REMARK                            x       y       z     vdW  Elec       q    Type
REMARK                         _______ _______ _______ _____ _____    ______ ____
ROOT
ATOM      1  CA  TRP A  1       -1.330   1.944   0.019  0.00  0.00    +0.017 C 
ENDROOT
BRANCH   1   4
ATOM      2  N   ALA A  2        1.143   1.898   0.001  0.00  0.00    -0.304 N 
ATOM      3  H   ALA A  2        1.130   2.868   0.007  0.00  0.00    +0.149 HD
ATOM      4  C   TRP A  1       -0.014   1.209   0.009  0.00  0.00    +0.199 C 
ATOM      5  O   TRP A  1        0.002  -0.004   0.002  0.00  0.00    -0.278 OA
BRANCH   2   7
ATOM      6  CB  ALA A  2        2.792   0.832  -1.457  0.00  0.00    +0.040 C 
ATOM      7  CA  ALA A  2        2.422   1.183  -0.015  0.00  0.00    +0.178 C 
BRANCH   7   8
ATOM      8  C   ALA A  2        3.495   2.058   0.580  0.00  0.00    +0.325 C 
ATOM      9  O   ALA A  2        3.220   3.166   0.977  0.00  0.00    -0.249 OA
BRANCH   8  10
ATOM     10  OXT ALA A  2        4.756   1.608   0.669  0.00  0.00    -0.479 OA
ATOM     11  HXT ALA A  2        4.969   0.749   0.362  0.00  0.00    +0.295 HD
ENDBRANCH   8  10
ENDBRANCH   7   8
ENDBRANCH   2   7
ENDBRANCH   1   4
BRANCH   1  12
ATOM     12  N   TRP A  1       -2.385   1.044  -0.477  0.00  0.00    +0.386 N 
ATOM     13  H1  TRP A  1       -2.138   0.721  -1.420  0.00  0.00    -0.089 HD
ATOM     14  H2  TRP A  1       -3.275   1.538  -0.518  0.00  0.00    -0.089 HD
ATOM     15  H3  TRP A  1       -2.474   0.237   0.138  0.00  0.00    -0.089 HD
ENDBRANCH   1  12
BRANCH   1  16
ATOM     16  CB  TRP A  1       -1.646   2.404   1.444  0.00  0.00    +0.030 C 
BRANCH  16  17
ATOM     17  CG  TRP A  1       -2.897   3.244   1.434  0.00  0.00    -0.023 A 
ATOM     18  CD1 TRP A  1       -2.959   4.584   1.375  0.00  0.00    +0.087 A 
ATOM     19  NE1 TRP A  1       -4.265   4.991   1.384  0.00  0.00    -0.360 N 
ATOM     20  CE2 TRP A  1       -5.096   3.897   1.460  0.00  0.00    +0.047 A 
ATOM     21  CZ2 TRP A  1       -6.478   3.744   1.503  0.00  0.00    +0.026 A 
ATOM     22  CH2 TRP A  1       -7.026   2.482   1.579  0.00  0.00    +0.002 A 
ATOM     23  CZ3 TRP A  1       -6.212   1.359   1.613  0.00  0.00    +0.001 A 
ATOM     24  CE3 TRP A  1       -4.852   1.485   1.571  0.00  0.00    +0.010 A 
ATOM     25  HE1 TRP A  1       -4.561   5.914   1.347  0.00  0.00    +0.165 HD
ATOM     26  CD2 TRP A  1       -4.276   2.754   1.495  0.00  0.00    +0.003 A 
ENDBRANCH  16  17
ENDBRANCH   1  16
TORSDOF 7
