REMARK  Name = ZINC01530697
REMARK                            x       y       z     vdW  Elec       q    Type
REMARK                         _______ _______ _______ _____ _____    ______ ____
ROOT
ATOM      1  N   LIG    1       -0.207   1.762   3.697  0.00  0.00    -0.298 N 
ATOM      2  C   LIG    1       -1.577   1.980   3.577  0.00  0.00    +0.048 A 
ATOM      3  C   LIG    1       -2.102   2.273   2.322  0.00  0.00    +0.024 A 
ATOM      4  C   LIG    1       -3.458   2.489   2.166  0.00  0.00    +0.002 A 
ATOM      5  C   LIG    1       -4.304   2.413   3.256  0.00  0.00    +0.001 A 
ATOM      6  C   LIG    1       -3.793   2.124   4.508  0.00  0.00    +0.017 A 
ATOM      7  C   LIG    1       -2.432   1.909   4.673  0.00  0.00    +0.034 A 
ATOM      8  S   LIG    1       -1.798   1.551   6.276  0.00  0.00    -0.086 S 
ATOM      9  C   LIG    1       -0.068   1.848   6.126  0.00  0.00    +0.034 A 
ATOM     10  C   LIG    1        0.698   2.006   7.271  0.00  0.00    +0.018 A 
ATOM     11  C   LIG    1        2.054   2.228   7.178  0.00  0.00    +0.016 A 
ATOM     12  C   LIG    1        2.656   2.307   5.929  0.00  0.00    +0.009 A 
ATOM     13  C   LIG    1        1.893   2.153   4.779  0.00  0.00    +0.039 A 
ATOM     14  C   LIG    1        0.526   1.917   4.871  0.00  0.00    +0.049 A 
ENDROOT
BRANCH  12  15
ATOM     15  S   LIG    1        4.388   2.605   5.803  0.00  0.00    -0.129 S 
ATOM     16  C   LIG    1        4.937   2.734   7.527  0.00  0.00    +0.090 C 
ENDBRANCH  12  15
BRANCH   1  17
ATOM     17  C   LIG    1        0.518   1.332   2.499  0.00  0.00    +0.109 C 
BRANCH  17  18
ATOM     18  C   LIG    1        1.017   2.561   1.736  0.00  0.00    +0.004 C 
BRANCH  18  26
ATOM     19  C   LIG    1        3.175   3.996   0.655  0.00  0.00    -0.096 C 
ATOM     20  N   LIG    1        2.257   3.287  -0.246  0.00  0.00    +0.380 N 
ATOM     21  H   LIG    1        1.504   3.904  -0.512  0.00  0.00    -0.082 HD
ATOM     22  C   LIG    1        2.984   2.860  -1.448  0.00  0.00    -0.079 C 
ATOM     23  C   LIG    1        2.014   2.193  -2.425  0.00  0.00    -0.019 C 
ATOM     24  C   LIG    1        1.379   0.973  -1.752  0.00  0.00    -0.003 C 
ATOM     25  C   LIG    1        0.686   1.418  -0.461  0.00  0.00    -0.015 C 
ATOM     26  C   LIG    1        1.705   2.114   0.444  0.00  0.00    -0.067 C 
ENDBRANCH  18  26
ENDBRANCH  17  18
ENDBRANCH   1  17
TORSDOF 4
