REMARK  Name = ZINC01513007
REMARK                            x       y       z     vdW  Elec       q    Type
REMARK                         _______ _______ _______ _____ _____    ______ ____
ROOT
ATOM      1  C   LIG    1       -2.502   1.005   0.020  0.00  0.00    +0.141 A 
ATOM      2  N   LIG    1       -3.749   1.566   0.029  0.00  0.00    -0.337 N 
ATOM      3  C   LIG    1       -4.660   0.528   0.027  0.00  0.00    +0.086 A 
ATOM      4  C   LIG    1       -6.046   0.456   0.034  0.00  0.00    +0.031 A 
ATOM      5  C   LIG    1       -6.637  -0.796   0.030  0.00  0.00    +0.022 A 
ATOM      6  C   LIG    1       -5.837  -1.928   0.019  0.00  0.00    +0.113 A 
ATOM      7  N   LIG    1       -4.525  -1.840   0.013  0.00  0.00    -0.234 NA
ATOM      8  C   LIG    1       -3.905  -0.660   0.017  0.00  0.00    +0.178 A 
ATOM      9  H   LIG    1       -3.962   2.543   0.035  0.00  0.00    +0.167 HD
ATOM     10  N   LIG    1       -2.604  -0.303   0.008  0.00  0.00    -0.208 NA
ENDROOT
BRANCH   1  14
ATOM     11  C   LIG    1        1.153   3.171   0.008  0.00  0.00    +0.120 A 
ATOM     12  C   LIG    1        1.171   1.782   0.001  0.00  0.00    +0.046 A 
ATOM     13  C   LIG    1       -0.013   1.076   0.008  0.00  0.00    +0.015 A 
ATOM     14  C   LIG    1       -1.231   1.758   0.017  0.00  0.00    +0.018 A 
ATOM     15  C   LIG    1       -1.244   3.155   0.029  0.00  0.00    +0.015 A 
ATOM     16  C   LIG    1       -0.057   3.854   0.022  0.00  0.00    +0.046 A 
BRANCH  11  18
ATOM     17  C   LIG    1        2.230   5.289   0.009  0.00  0.00    +0.277 C 
ATOM     18  O   LIG    1        2.321   3.863   0.001  0.00  0.00    -0.495 OA
ENDBRANCH  11  18
ENDBRANCH   1  14
TORSDOF 2
