REMARK  Name = ZINC01529776
REMARK                            x       y       z     vdW  Elec       q    Type
REMARK                         _______ _______ _______ _____ _____    ______ ____
ROOT
ATOM      1  C   UNK    1        1.132  -4.278  -1.920  0.00  0.00    +0.036 C 
ENDROOT
BRANCH   1   2
ATOM      2  C   UNK    1        1.249  -2.770  -2.155  0.00  0.00    +0.195 C 
BRANCH   2   3
ATOM      3  N   UNK    1        0.615  -2.052  -1.046  0.00  0.00    -0.279 N 
ATOM      4  H   UNK    1        0.209  -2.547  -0.317  0.00  0.00    +0.258 HD
BRANCH   3   5
ATOM      5  C   UNK    1        0.597  -0.678  -1.038  0.00  0.00    +0.343 C 
ATOM      6  N   UNK    1        1.143  -0.013  -2.018  0.00  0.00    -0.292 N 
ATOM      7  H   UNK    1        1.130   0.957  -2.012  0.00  0.00    +0.255 HD
ATOM      8  H   UNK    1        1.562  -0.488  -2.752  0.00  0.00    +0.255 HD
BRANCH   5  10
ATOM      9  C   UNK    1       -0.018   1.461   0.010  0.00  0.00    +0.239 C 
ATOM     10  N   UNK    1        0.002  -0.004   0.002  0.00  0.00    -0.281 N 
ATOM     11  H   UNK    1       -0.404  -0.499   0.731  0.00  0.00    +0.257 HD
ENDBRANCH   5  10
ENDBRANCH   3   5
ENDBRANCH   2   3
ENDBRANCH   1   2
BRANCH   1  12
ATOM     12  C   UNK    1        1.794  -5.027  -3.078  0.00  0.00    -0.002 C 
BRANCH  12  13
ATOM     13  C   UNK    1        1.677  -6.535  -2.842  0.00  0.00    +0.036 C 
BRANCH  13  14
ATOM     14  N   UNK    1        2.448  -6.905  -1.648  0.00  0.00    +0.387 N 
ATOM     15  H   UNK    1        3.417  -6.660  -1.784  0.00  0.00    -0.089 HD
ATOM     16  H   UNK    1        2.371  -7.899  -1.493  0.00  0.00    -0.089 HD
ATOM     17  H   UNK    1        2.085  -6.411  -0.847  0.00  0.00    -0.089 HD
ENDBRANCH  13  14
BRANCH  13  18
ATOM     18  C   UNK    1        2.218  -7.273  -4.039  0.00  0.00    +0.290 C 
ATOM     19  O   UNK    1        3.265  -7.893  -3.951  0.00  0.00    -0.253 OA
BRANCH  18  20
ATOM     20  O   UNK    1        1.610  -7.252  -5.096  0.00  0.00    -0.482 OA
ATOM     21  H   UNK    1        0.806  -6.775  -5.163  0.00  0.00    +0.295 HD
ENDBRANCH  18  20
ENDBRANCH  13  18
ENDBRANCH  12  13
ENDBRANCH   1  12
TORSDOF 9
