REMARK  Name = ZINC01530601
REMARK                            x       y       z     vdW  Elec       q    Type
REMARK                         _______ _______ _______ _____ _____    ______ ____
ROOT
ATOM      1  C   LIG    1        2.377  -1.282  -4.634  0.00  0.00    +0.120 A 
ATOM      2  C   LIG    1        1.900  -1.724  -5.861  0.00  0.00    +0.046 A 
ATOM      3  C   LIG    1        2.776  -1.958  -6.900  0.00  0.00    +0.012 A 
ATOM      4  C   LIG    1        4.144  -1.749  -6.717  0.00  0.00    -0.016 A 
ATOM      5  C   LIG    1        4.620  -1.304  -5.482  0.00  0.00    +0.012 A 
ATOM      6  C   LIG    1        3.737  -1.068  -4.450  0.00  0.00    +0.046 A 
ENDROOT
BRANCH   4   7
ATOM      7  C   LIG    1        5.088  -1.998  -7.829  0.00  0.00    +0.008 C 
ATOM      8  C   LIG    1        5.045  -1.223  -8.941  0.00  0.00    +0.056 C 
ATOM      9 CL   LIG    1        6.043  -1.610 -10.308  0.00  0.00    -0.082 Cl
BRANCH   7  10
ATOM     10  C   LIG    1        6.078  -3.093  -7.727  0.00  0.00    -0.016 A 
ATOM     11  C   LIG    1        5.651  -4.421  -7.676  0.00  0.00    +0.008 A 
ATOM     12  C   LIG    1        6.579  -5.437  -7.581  0.00  0.00    +0.001 A 
ATOM     13  C   LIG    1        7.931  -5.142  -7.537  0.00  0.00    +0.000 A 
ATOM     14  C   LIG    1        8.360  -3.828  -7.587  0.00  0.00    +0.001 A 
ATOM     15  C   LIG    1        7.442  -2.803  -7.688  0.00  0.00    +0.008 A 
ENDBRANCH   7  10
BRANCH   8  16
ATOM     16  C   LIG    1        4.154  -0.053  -8.990  0.00  0.00    -0.006 A 
ATOM     17  C   LIG    1        4.148   0.870  -7.939  0.00  0.00    +0.009 A 
ATOM     18  C   LIG    1        3.310   1.964  -7.992  0.00  0.00    +0.001 A 
ATOM     19  C   LIG    1        2.475   2.148  -9.081  0.00  0.00    +0.000 A 
ATOM     20  C   LIG    1        2.475   1.239 -10.124  0.00  0.00    +0.001 A 
ATOM     21  C   LIG    1        3.311   0.143 -10.089  0.00  0.00    +0.009 A 
ENDBRANCH   8  16
ENDBRANCH   4   7
BRANCH   1  22
ATOM     22  O   LIG    1        1.510  -1.053  -3.613  0.00  0.00    -0.494 OA
BRANCH  22  23
ATOM     23  C   LIG    1        0.126  -1.294  -3.871  0.00  0.00    +0.210 C 
BRANCH  23  24
ATOM     24  C   LIG    1       -0.700  -0.876  -2.653  0.00  0.00    -0.037 C 
BRANCH  24  25
ATOM     25  N   LIG    1       -0.562   0.571  -2.440  0.00  0.00    +0.382 N 
ATOM     26  H   LIG    1        0.416   0.808  -2.365  0.00  0.00    -0.082 HD
BRANCH  25  28
ATOM     27  C   LIG    1       -0.901   2.792  -3.414  0.00  0.00    -0.017 C 
ATOM     28  C   LIG    1       -1.155   1.291  -3.575  0.00  0.00    -0.082 C 
ENDBRANCH  25  28
BRANCH  25  29
ATOM     29  C   LIG    1       -1.254   0.952  -1.202  0.00  0.00    -0.082 C 
ATOM     30  C   LIG    1       -0.539   0.325  -0.004  0.00  0.00    -0.017 C 
ENDBRANCH  25  29
ENDBRANCH  24  25
ENDBRANCH  23  24
ENDBRANCH  22  23
ENDBRANCH   1  22
TORSDOF 9
