REMARK  Name = ZINC01651126
REMARK                            x       y       z     vdW  Elec       q    Type
REMARK                         _______ _______ _______ _____ _____    ______ ____
ROOT
ATOM      1  C   LIG    1       -2.421  -4.343   0.003  0.00  0.00    +0.158 C 
ENDROOT
BRANCH   1   2
ATOM      2  C   LIG    1       -2.444  -2.836   0.011  0.00  0.00    +0.164 C 
ATOM      3  O   LIG    1       -3.506  -2.245   0.025  0.00  0.00    -0.292 OA
BRANCH   2   5
ATOM      4  C   LIG    1       -1.257  -0.758   0.011  0.00  0.00    +0.011 C 
ATOM      5  C   LIG    1       -1.236  -2.113   0.003  0.00  0.00    +0.047 C 
BRANCH   4  11
ATOM      6  C   LIG    1       -0.017   1.397   0.010  0.00  0.00    +0.011 A 
ATOM      7  C   LIG    1        1.167   2.098   0.002  0.00  0.00    +0.046 A 
ATOM      8  C   LIG    1        2.380   1.419  -0.013  0.00  0.00    +0.117 A 
ATOM      9  C   LIG    1        2.405   0.029  -0.021  0.00  0.00    +0.046 A 
ATOM     10  C   LIG    1        1.228  -0.683  -0.014  0.00  0.00    +0.011 A 
ATOM     11  C   LIG    1        0.002  -0.004   0.002  0.00  0.00    -0.025 A 
BRANCH   8  12
ATOM     12  O   LIG    1        3.545   2.116  -0.021  0.00  0.00    -0.507 OA
ATOM     13  H   LIG    1        3.891   2.314   0.860  0.00  0.00    +0.292 HD
ENDBRANCH   8  12
ENDBRANCH   4  11
ENDBRANCH   2   5
ENDBRANCH   1   2
BRANCH   1  14
ATOM     14  C   LIG    1       -3.833  -4.868   0.014  0.00  0.00    +0.164 C 
ATOM     15  O   LIG    1       -4.769  -4.093   0.028  0.00  0.00    -0.292 OA
BRANCH  14  16
ATOM     16  C   LIG    1       -4.069  -6.256   0.009  0.00  0.00    +0.047 C 
ATOM     17  C   LIG    1       -5.340  -6.728   0.019  0.00  0.00    +0.011 C 
BRANCH  17  18
ATOM     18  C   LIG    1       -5.585  -8.175   0.014  0.00  0.00    -0.025 A 
ATOM     19  C   LIG    1       -4.508  -9.070   0.004  0.00  0.00    +0.011 A 
ATOM     20  C   LIG    1       -4.744 -10.426  -0.001  0.00  0.00    +0.046 A 
ATOM     21  C   LIG    1       -6.049 -10.907   0.005  0.00  0.00    +0.117 A 
ATOM     22  C   LIG    1       -7.122 -10.023   0.014  0.00  0.00    +0.046 A 
ATOM     23  C   LIG    1       -6.897  -8.665   0.024  0.00  0.00    +0.011 A 
BRANCH  21  24
ATOM     24  O   LIG    1       -6.276 -12.245  -0.000  0.00  0.00    -0.507 OA
ATOM     25  H   LIG    1       -6.337 -12.637   0.882  0.00  0.00    +0.292 HD
ENDBRANCH  21  24
ENDBRANCH  17  18
ENDBRANCH  14  16
ENDBRANCH   1  14
TORSDOF 8
