REMARK  Name = ZINC01566147
REMARK                            x       y       z     vdW  Elec       q    Type
REMARK                         _______ _______ _______ _____ _____    ______ ____
ROOT
ATOM      1  C   LIG    1       -1.235   3.138   0.030  0.00  0.00    +0.124 A 
ATOM      2  C   LIG    1       -1.216   1.750   0.017  0.00  0.00    +0.046 A 
ATOM      3  C   LIG    1       -0.013   1.076   0.008  0.00  0.00    +0.012 A 
ATOM      4  C   LIG    1        1.185   1.790   0.000  0.00  0.00    -0.014 A 
ATOM      5  C   LIG    1        1.162   3.183   0.008  0.00  0.00    +0.016 A 
ATOM      6  C   LIG    1       -0.045   3.852   0.022  0.00  0.00    -0.001 A 
ENDROOT
BRANCH   4   7
ATOM      7  C   LIG    1        2.480   1.068  -0.016  0.00  0.00    +0.024 A 
ATOM      8  C   LIG    1        2.724   0.046   0.899  0.00  0.00    +0.016 A 
ATOM      9  C   LIG    1        3.931  -0.622   0.880  0.00  0.00    -0.043 A 
ATOM     10  C   LIG    1        4.902  -0.281  -0.045  0.00  0.00    +0.007 A 
ATOM     11  C   LIG    1        4.671   0.731  -0.958  0.00  0.00    +0.046 A 
ATOM     12  C   LIG    1        3.461   1.407  -0.953  0.00  0.00    +0.125 A 
BRANCH  12  13
ATOM     13  O   LIG    1        3.231   2.398  -1.853  0.00  0.00    -0.506 OA
ATOM     14  H   LIG    1        3.500   3.276  -1.549  0.00  0.00    +0.292 HD
ENDBRANCH  12  13
BRANCH   9  15
ATOM     15  C   LIG    1        4.193  -1.727   1.871  0.00  0.00    +0.061 C 
BRANCH  15  16
ATOM     16  C   LIG    1        3.742  -3.042   1.288  0.00  0.00    -0.030 C 
ATOM     17  C   LIG    1        4.579  -4.046   1.212  0.00  0.00    +0.004 C 
ENDBRANCH  15  16
ENDBRANCH   9  15
ENDBRANCH   4   7
BRANCH   1  19
ATOM     18  C   LIG    1       -3.609   3.003   0.051  0.00  0.00    +0.277 C 
ATOM     19  O   LIG    1       -2.422   3.799   0.044  0.00  0.00    -0.495 OA
ENDBRANCH   1  19
BRANCH   6  20
ATOM     20  C   LIG    1       -0.071   5.359   0.029  0.00  0.00    +0.065 C 
BRANCH  20  21
ATOM     21  C   LIG    1       -0.190   5.852   1.448  0.00  0.00    -0.030 C 
ATOM     22  C   LIG    1        0.691   6.697   1.924  0.00  0.00    +0.004 C 
ENDBRANCH  20  21
ENDBRANCH   6  20
TORSDOF 7
