REMARK  Name = ZINC01485983
REMARK                            x       y       z     vdW  Elec       q    Type
REMARK                         _______ _______ _______ _____ _____    ______ ____
ROOT
ATOM      1  C   LIG    1        2.409   0.011  -0.021  0.00  0.00    +0.129 A 
ATOM      2  C   LIG    1        2.376   1.385  -0.013  0.00  0.00    +0.046 A 
ATOM      3  C   LIG    1        1.172   2.077   0.002  0.00  0.00    +0.008 A 
ATOM      4  C   LIG    1       -0.017   1.375   0.010  0.00  0.00    -0.030 A 
ATOM      5  C   LIG    1        0.002  -0.004   0.002  0.00  0.00    +0.026 A 
ATOM      6  S   LIG    1       -1.253  -1.258   0.007  0.00  0.00    -0.096 S 
ATOM      7  C   LIG    1       -0.205  -2.699  -0.011  0.00  0.00    +0.046 A 
ATOM      8  C   LIG    1        1.033  -2.186  -0.019  0.00  0.00    +0.020 A 
ATOM      9  C   LIG    1        1.205  -0.740  -0.013  0.00  0.00    +0.031 A 
ENDROOT
BRANCH   1  10
ATOM     10  O   LIG    1        3.606  -0.634  -0.035  0.00  0.00    -0.491 OA
BRANCH  10  11
ATOM     11  C   LIG    1        4.781   0.179  -0.042  0.00  0.00    +0.235 C 
BRANCH  11  12
ATOM     12  C   LIG    1        6.021  -0.717  -0.058  0.00  0.00    +0.100 C 
BRANCH  12  15
ATOM     13  C   LIG    1        7.521   0.335  -2.591  0.00  0.00    +0.088 C 
ATOM     14  C   LIG    1        7.904   0.592  -1.157  0.00  0.00    +0.126 A 
ATOM     15  C   LIG    1        7.260   0.140  -0.066  0.00  0.00    +0.086 A 
ATOM     16  N   LIG    1        7.920   0.584   1.015  0.00  0.00    -0.214 NA
ATOM     17  C   LIG    1        8.946   1.298   0.616  0.00  0.00    +0.228 A 
ATOM     18  O   LIG    1        8.955   1.320  -0.728  0.00  0.00    -0.440 OA
BRANCH  17  19
ATOM     19  C   LIG    1        9.928   1.966   1.496  0.00  0.00    +0.037 A 
ATOM     20  C   LIG    1        9.804   1.871   2.883  0.00  0.00    +0.013 A 
ATOM     21  C   LIG    1       10.727   2.491   3.699  0.00  0.00    +0.001 A 
ATOM     22  C   LIG    1       11.767   3.217   3.146  0.00  0.00    +0.000 A 
ATOM     23  C   LIG    1       11.892   3.320   1.772  0.00  0.00    +0.001 A 
ATOM     24  C   LIG    1       10.979   2.699   0.944  0.00  0.00    +0.013 A 
ENDBRANCH  17  19
ENDBRANCH  12  15
ENDBRANCH  11  12
ENDBRANCH  10  11
ENDBRANCH   1  10
BRANCH   4  25
ATOM     25  C   LIG    1       -1.330   2.113   0.020  0.00  0.00    +0.079 C 
BRANCH  25  26
ATOM     26  C   LIG    1       -1.830   2.246   1.460  0.00  0.00    +0.230 C 
BRANCH  26  27
ATOM     27  O   LIG    1       -2.121   0.949   1.984  0.00  0.00    -0.368 OA
ATOM     28  C   LIG    1       -1.936   0.838   3.397  0.00  0.00    +0.195 C 
ENDBRANCH  26  27
BRANCH  26  29
ATOM     29  C   LIG    1       -3.079   3.089   1.483  0.00  0.00    +0.334 C 
ATOM     30  O   LIG    1       -4.131   2.601   1.820  0.00  0.00    -0.248 OA
BRANCH  29  31
ATOM     31  O   LIG    1       -3.021   4.383   1.129  0.00  0.00    -0.479 OA
ATOM     32  H   LIG    1       -2.205   4.761   0.868  0.00  0.00    +0.295 HD
ENDBRANCH  29  31
ENDBRANCH  26  29
ENDBRANCH  25  26
ENDBRANCH   4  25
TORSDOF 10
