REMARK  Name = ZINC01473469
REMARK                            x       y       z     vdW  Elec       q    Type
REMARK                         _______ _______ _______ _____ _____    ______ ____
ROOT
ATOM      1  C   LIG    1       -0.018   1.465   0.010  0.00  0.00    -0.093 C 
ATOM      2  N   LIG    1        0.002  -0.004   0.002  0.00  0.00    +0.375 N 
ATOM      3  C   LIG    1       -1.376  -0.512   0.012  0.00  0.00    -0.093 C 
ATOM      4  C   LIG    1        0.713  -0.491   1.192  0.00  0.00    -0.093 C 
ENDROOT
BRANCH   2   5
ATOM      5  C   LIG    1        0.690  -0.478  -1.207  0.00  0.00    -0.060 C 
BRANCH   5   6
ATOM      6  C   LIG    1        2.125   0.052  -1.218  0.00  0.00    +0.090 C 
ATOM      7 CL   LIG    1        2.969  -0.530  -2.701  0.00  0.00    -0.127 Cl
ENDBRANCH   5   6
ENDBRANCH   2   5
TORSDOF 2
