REMARK  Name = ZINC01530348
REMARK                            x       y       z     vdW  Elec       q    Type
REMARK                         _______ _______ _______ _____ _____    ______ ____
ROOT
ATOM      1  C   LIG    1       -0.019   1.526   0.010  0.00  0.00    +0.012 C 
ENDROOT
BRANCH   1   2
ATOM      2  C   LIG    1        1.417   2.055  -0.000  0.00  0.00    +0.120 C 
BRANCH   2   3
ATOM      3  C   LIG    1        1.396   3.562   0.008  0.00  0.00    +0.305 C 
ATOM      4  O   LIG    1        0.332   4.157   0.021  0.00  0.00    -0.251 OA
BRANCH   3   5
ATOM      5  O   LIG    1        2.444   4.186   0.001  0.00  0.00    -0.481 OA
ATOM      6  H   LIG    1        3.261   3.729  -0.009  0.00  0.00    +0.295 HD
ENDBRANCH   3   5
ENDBRANCH   2   3
ENDBRANCH   1   2
BRANCH   1   7
ATOM      7  C   LIG    1        0.002  -0.004   0.002  0.00  0.00    +0.012 C 
BRANCH   7   8
ATOM      8  C   LIG    1       -1.433  -0.534   0.013  0.00  0.00    +0.120 C 
BRANCH   8   9
ATOM      9  C   LIG    1       -1.413  -2.041   0.005  0.00  0.00    +0.305 C 
ATOM     10  O   LIG    1       -0.349  -2.636  -0.009  0.00  0.00    -0.251 OA
BRANCH   9  11
ATOM     11  O   LIG    1       -2.460  -2.664   0.011  0.00  0.00    -0.481 OA
ATOM     12  H   LIG    1       -3.278  -2.207   0.021  0.00  0.00    +0.295 HD
ENDBRANCH   9  11
ENDBRANCH   8   9
ENDBRANCH   7   8
ENDBRANCH   1   7
TORSDOF 7
