REMARK  Name = ZINC01649340
REMARK                            x       y       z     vdW  Elec       q    Type
REMARK                         _______ _______ _______ _____ _____    ______ ____
ROOT
ATOM      1  C   LIG    1       -3.486  -0.036  -1.266  0.00  0.00    +0.219 A 
ATOM      2  N   LIG    1       -4.177  -0.278  -0.159  0.00  0.00    -0.197 NA
ATOM      3  C   LIG    1       -5.501  -0.184  -0.142  0.00  0.00    +0.152 A 
ATOM      4  C   LIG    1       -6.165   0.179  -1.327  0.00  0.00    +0.148 A 
ATOM      5  C   LIG    1       -5.392   0.425  -2.474  0.00  0.00    +0.167 A 
ATOM      6  N   LIG    1       -6.281   0.754  -3.466  0.00  0.00    -0.312 N 
ATOM      7  C   LIG    1       -7.533   0.704  -2.926  0.00  0.00    +0.201 A 
ATOM      8  N   LIG    1       -7.462   0.366  -1.672  0.00  0.00    -0.231 NA
ATOM      9  N   LIG    1       -4.069   0.313  -2.400  0.00  0.00    -0.195 NA
ENDROOT
BRANCH   6  10
ATOM     10  C   LIG    1       -5.947   1.096  -4.851  0.00  0.00    +0.084 C 
ATOM     11  C   LIG    1       -6.442   2.511  -5.160  0.00  0.00    +0.030 C 
ATOM     12  C   LIG    1       -6.620   0.102  -5.799  0.00  0.00    +0.030 C 
ENDBRANCH   6  10
BRANCH   1  13
ATOM     13  N   LIG    1       -2.105  -0.148  -1.230  0.00  0.00    -0.308 N 
ATOM     14  H   LIG    1       -1.584   0.029  -2.029  0.00  0.00    +0.149 HD
BRANCH  13  15
ATOM     15  CA  LIG    1       -1.433  -0.534   0.013  0.00  0.00    +0.098 C 
BRANCH  15  17
ATOM     16  C   LIG    1       -0.019   1.526   0.010  0.00  0.00    +0.006 C 
ATOM     17  C   LIG    1        0.002  -0.004   0.002  0.00  0.00    +0.021 C 
ENDBRANCH  15  17
BRANCH  15  18
ATOM     18  C   LIG    1       -1.413  -2.059   0.130  0.00  0.00    +0.178 C 
BRANCH  18  19
ATOM     19  O   LIG    1       -0.612  -2.607  -0.918  0.00  0.00    -0.393 OA
ATOM     20  H   LIG    1       -0.554  -3.572  -0.906  0.00  0.00    +0.209 HD
ENDBRANCH  18  19
ENDBRANCH  15  18
ENDBRANCH  13  15
ENDBRANCH   1  13
BRANCH   3  21
ATOM     21  N   LIG    1       -6.213  -0.439   1.016  0.00  0.00    -0.323 N 
ATOM     22  H   LIG    1       -7.181  -0.367   1.017  0.00  0.00    +0.148 HD
BRANCH  21  23
ATOM     23  C   LIG    1       -5.506  -0.817   2.243  0.00  0.00    +0.138 C 
BRANCH  23  24
ATOM     24  C   LIG    1       -6.504  -1.036   3.350  0.00  0.00    -0.030 A 
ATOM     25  C   LIG    1       -6.880   0.018   4.161  0.00  0.00    +0.005 A 
ATOM     26  C   LIG    1       -7.795  -0.183   5.177  0.00  0.00    +0.000 A 
ATOM     27  C   LIG    1       -8.335  -1.439   5.383  0.00  0.00    +0.000 A 
ATOM     28  C   LIG    1       -7.959  -2.494   4.571  0.00  0.00    +0.000 A 
ATOM     29  C   LIG    1       -7.047  -2.291   3.552  0.00  0.00    +0.005 A 
ENDBRANCH  23  24
ENDBRANCH  21  23
ENDBRANCH   3  21
TORSDOF 9
