REMARK  Name = ZINC01499769
REMARK                            x       y       z     vdW  Elec       q    Type
REMARK                         _______ _______ _______ _____ _____    ______ ____
ROOT
ATOM      1  C   LIG    1       -1.057  -1.018   0.007  0.00  0.00    +0.165 A 
ATOM      2  C   LIG    1        0.002  -0.004   0.002  0.00  0.00    +0.179 A 
ATOM      3  N   LIG    1       -0.016   1.314   0.009  0.00  0.00    -0.233 NA
ATOM      4  C   LIG    1        1.238   1.770  -0.000  0.00  0.00    +0.131 A 
ATOM      5  C   LIG    1        2.080   0.710  -0.014  0.00  0.00    +0.113 A 
ATOM      6  N   LIG    1        1.310  -0.411  -0.013  0.00  0.00    -0.295 N 
ATOM      7  C   LIG    1        1.597  -1.768  -0.022  0.00  0.00    +0.074 A 
ATOM      8  C   LIG    1        2.915  -2.207  -0.036  0.00  0.00    +0.031 A 
ATOM      9  C   LIG    1        3.193  -3.557  -0.045  0.00  0.00    +0.040 A 
ATOM     10  C   LIG    1        2.162  -4.488  -0.041  0.00  0.00    +0.126 A 
ATOM     11  F   LIG    1        2.448  -5.808  -0.050  0.00  0.00    -0.205 F 
ATOM     12  C   LIG    1        0.848  -4.072  -0.026  0.00  0.00    +0.068 A 
ATOM     13  C   LIG    1        0.549  -2.703  -0.017  0.00  0.00    +0.093 A 
ATOM     14  N   LIG    1       -0.745  -2.294  -0.002  0.00  0.00    -0.227 NA
ENDROOT
BRANCH   1  20
ATOM     15  C   LIG    1       -6.420  -0.048   1.125  0.00  0.00    -0.096 C 
ATOM     16  N   LIG    1       -5.005  -0.473   1.132  0.00  0.00    +0.380 N 
ATOM     17  H   LIG    1       -4.821  -1.008   1.989  0.00  0.00    -0.082 HD
ATOM     18  C   LIG    1       -4.121   0.712   1.106  0.00  0.00    -0.060 C 
ATOM     19  C   LIG    1       -2.665   0.243   1.170  0.00  0.00    +0.088 C 
ATOM     20  N   LIG    1       -2.385  -0.631   0.022  0.00  0.00    -0.316 N 
ATOM     21  C   LIG    1       -3.274  -1.801   0.025  0.00  0.00    +0.088 C 
ATOM     22  C   LIG    1       -4.729  -1.332  -0.039  0.00  0.00    -0.060 C 
ENDBRANCH   1  20
TORSDOF 1
