REMARK  Name = ZINC01601737
REMARK                            x       y       z     vdW  Elec       q    Type
REMARK                         _______ _______ _______ _____ _____    ______ ____
ROOT
ATOM      1  C   LIG    1        3.545   1.897  -0.076  0.00  0.00    +0.031 A 
ATOM      2  C   LIG    1        3.433   3.285  -0.046  0.00  0.00    +0.024 A 
ATOM      3  C   LIG    1        4.559   4.066  -0.101  0.00  0.00    +0.017 A 
ATOM      4  C   LIG    1        5.819   3.467  -0.198  0.00  0.00    +0.059 A 
ATOM      5  C   LIG    1        5.927   2.073  -0.233  0.00  0.00    +0.017 A 
ATOM      6  C   LIG    1        4.798   1.298  -0.172  0.00  0.00    +0.024 A 
ENDROOT
BRANCH   1   7
ATOM      7  N   LIG    1        2.401   1.108  -0.015  0.00  0.00    -0.314 N 
ATOM      8  H   LIG    1        2.379   0.250  -0.467  0.00  0.00    +0.152 HD
BRANCH   7  12
ATOM      9  C   LIG    1       -0.928   2.427   2.110  0.00  0.00    +0.000 A 
ATOM     10  C   LIG    1       -1.093   1.599   1.015  0.00  0.00    +0.002 A 
ATOM     11  C   LIG    1        0.010   1.155   0.312  0.00  0.00    +0.023 A 
ATOM     12  C   LIG    1        1.284   1.550   0.698  0.00  0.00    +0.031 A 
ATOM     13  C   LIG    1        1.445   2.388   1.795  0.00  0.00    +0.023 A 
ATOM     14  C   LIG    1        0.339   2.824   2.497  0.00  0.00    +0.002 A 
ENDBRANCH   7  12
ENDBRANCH   1   7
BRANCH   4  15
ATOM     15  C   LIG    1        7.031   4.304  -0.262  0.00  0.00    +0.337 C 
ATOM     16  O   LIG    1        8.125   3.783  -0.346  0.00  0.00    -0.245 OA
BRANCH  15  17
ATOM     17  O   LIG    1        6.925   5.647  -0.228  0.00  0.00    -0.477 OA
ATOM     18  H   LIG    1        6.081   6.049  -0.163  0.00  0.00    +0.295 HD
ENDBRANCH  15  17
ENDBRANCH   4  15
TORSDOF 4
