REMARK  Name = ZINC01539579
REMARK                            x       y       z     vdW  Elec       q    Type
REMARK                         _______ _______ _______ _____ _____    ______ ____
ROOT
ATOM      1  C   LIG    1       -0.018   1.503   0.010  0.00  0.00    +0.044 C 
ATOM      2  C   LIG    1        0.002  -0.004   0.002  0.00  0.00    -0.042 A 
ATOM      3  C   LIG    1        0.006  -0.690  -1.192  0.00  0.00    +0.008 A 
ATOM      4  C   LIG    1        0.027  -2.080  -1.213  0.00  0.00    -0.038 A 
ATOM      5  C   LIG    1        0.048  -2.784  -0.028  0.00  0.00    -0.037 A 
ATOM      6  C   LIG    1        0.088  -4.289   0.019  0.00  0.00    -0.010 C 
ATOM      7  C   LIG    1       -0.862  -4.785   1.111  0.00  0.00    +0.016 C 
ATOM      8  C   LIG    1        1.512  -4.746   0.344  0.00  0.00    +0.016 C 
ATOM      9  C   LIG    1       -0.337  -4.881  -1.323  0.00  0.00    +0.012 C 
ATOM     10  C   LIG    1        0.484  -4.208  -2.430  0.00  0.00    +0.012 C 
ATOM     11  C   LIG    1        0.040  -2.102   1.179  0.00  0.00    +0.013 A 
ATOM     12  C   LIG    1        0.023  -2.758  -2.558  0.00  0.00    -0.010 C 
ATOM     13  C   LIG    1        0.965  -2.011  -3.504  0.00  0.00    +0.016 C 
ATOM     14  C   LIG    1       -1.395  -2.729  -3.133  0.00  0.00    +0.016 C 
ATOM     15  C   LIG    1        0.023  -0.711   1.203  0.00  0.00    -0.015 A 
ENDROOT
BRANCH  15  16
ATOM     16  C   LIG    1        0.022   0.014   2.497  0.00  0.00    -0.018 C 
ATOM     17  C   LIG    1        1.136   0.621   2.925  0.00  0.00    +0.018 C 
BRANCH  16  18
ATOM     18  C   LIG    1       -1.212   0.066   3.315  0.00  0.00    -0.018 A 
ATOM     19  C   LIG    1       -1.732  -1.105   3.868  0.00  0.00    +0.009 A 
ATOM     20  C   LIG    1       -2.874  -1.059   4.626  0.00  0.00    +0.015 A 
ATOM     21  C   LIG    1       -3.518   0.164   4.844  0.00  0.00    +0.059 A 
ATOM     22  C   LIG    1       -2.995   1.337   4.290  0.00  0.00    +0.015 A 
ATOM     23  C   LIG    1       -1.850   1.288   3.537  0.00  0.00    +0.009 A 
BRANCH  21  24
ATOM     24  C   LIG    1       -4.746   0.216   5.657  0.00  0.00    +0.337 C 
ATOM     25  O   LIG    1       -5.202  -0.810   6.142  0.00  0.00    -0.245 OA
BRANCH  24  26
ATOM     26  O   LIG    1       -5.308   1.285   5.848  0.00  0.00    -0.477 OA
ATOM     27  H   LIG    1       -4.958   2.071   5.477  0.00  0.00    +0.295 HD
ENDBRANCH  24  26
ENDBRANCH  21  24
ENDBRANCH  16  18
ENDBRANCH  15  16
TORSDOF 4
