REMARK  Name = ZINC01533713
REMARK                            x       y       z     vdW  Elec       q    Type
REMARK                         _______ _______ _______ _____ _____    ______ ____
ROOT
ATOM      1  C   LIG    1        4.861   5.387  -0.114  0.00  0.00    -0.030 A 
ATOM      2  C   LIG    1        3.934   5.697  -1.093  0.00  0.00    +0.006 A 
ATOM      3  C   LIG    1        2.762   4.974  -1.191  0.00  0.00    +0.009 A 
ATOM      4  C   LIG    1        2.514   3.931  -0.301  0.00  0.00    -0.017 A 
ATOM      5  C   LIG    1        3.450   3.627   0.687  0.00  0.00    +0.009 A 
ATOM      6  C   LIG    1        4.620   4.353   0.772  0.00  0.00    +0.006 A 
ENDROOT
BRANCH   4   7
ATOM      7  C   LIG    1        1.258   3.151  -0.401  0.00  0.00    -0.007 A 
ATOM      8  C   LIG    1        0.031   3.805  -0.472  0.00  0.00    +0.009 A 
ATOM      9  C   LIG    1       -1.137   3.076  -0.565  0.00  0.00    +0.001 A 
ATOM     10  C   LIG    1       -1.098   1.692  -0.592  0.00  0.00    +0.001 A 
ATOM     11  C   LIG    1        0.108   1.025  -0.517  0.00  0.00    +0.012 A 
ATOM     12  C   LIG    1        1.297   1.746  -0.423  0.00  0.00    +0.028 A 
BRANCH  12  13
ATOM     13  C   LIG    1        2.593   1.038  -0.348  0.00  0.00    +0.180 A 
ATOM     14  N   LIG    1        2.798  -0.286  -0.352  0.00  0.00    -0.239 N 
ATOM     15  H   LIG    1        2.107  -0.986  -0.406  0.00  0.00    +0.192 HD
ATOM     16  N   LIG    1        4.170  -0.486  -0.267  0.00  0.00    -0.046 NA
ATOM     17  N   LIG    1        4.697   0.689  -0.210  0.00  0.00    -0.023 NA
ATOM     18  N   LIG    1        3.784   1.591  -0.257  0.00  0.00    -0.108 NA
ENDBRANCH  12  13
ENDBRANCH   4   7
BRANCH   1  19
ATOM     19  C   LIG    1        6.138   6.180  -0.013  0.00  0.00    +0.141 C 
BRANCH  19  20
ATOM     20  N   LIG    1        5.899   7.396   0.777  0.00  0.00    -0.310 N 
BRANCH  20  21
ATOM     21  C   LIG    1        5.823   7.104   2.122  0.00  0.00    +0.139 A 
ATOM     22  C   LIG    1        4.641   7.362   2.849  0.00  0.00    +0.117 A 
ATOM     23  C   LIG    1        4.625   7.044   4.210  0.00  0.00    +0.131 A 
ATOM     24  N   LIG    1        5.708   6.519   4.758  0.00  0.00    -0.243 NA
ATOM     25  C   LIG    1        6.795   6.293   4.045  0.00  0.00    +0.223 A 
ATOM     26  N   LIG    1        6.861   6.568   2.759  0.00  0.00    -0.220 NA
BRANCH  22  27
ATOM     27  C   LIG    1        3.460   7.947   2.193  0.00  0.00    +0.342 C 
ATOM     28  O   LIG    1        3.524   8.307   1.034  0.00  0.00    -0.245 OA
BRANCH  27  29
ATOM     29  O   LIG    1        2.307   8.084   2.877  0.00  0.00    -0.477 OA
ATOM     30  H   LIG    1        2.257   7.806   3.771  0.00  0.00    +0.295 HD
ENDBRANCH  27  29
ENDBRANCH  22  27
ENDBRANCH  20  21
BRANCH  20  31
ATOM     31  C   LIG    1        6.932   8.406   0.515  0.00  0.00    +0.107 C 
BRANCH  31  32
ATOM     32  C   LIG    1        6.520   9.734   1.153  0.00  0.00    +0.019 C 
BRANCH  32  34
ATOM     33  C   LIG    1        7.184  12.115   1.519  0.00  0.00    +0.004 C 
ATOM     34  C   LIG    1        7.596  10.787   0.880  0.00  0.00    -0.002 C 
ENDBRANCH  32  34
ENDBRANCH  31  32
ENDBRANCH  20  31
ENDBRANCH  19  20
ENDBRANCH   1  19
TORSDOF 10
