REMARK  Name = ZINC01530752
REMARK                            x       y       z     vdW  Elec       q    Type
REMARK                         _______ _______ _______ _____ _____    ______ ____
ROOT
ATOM      1  C   LIG    1        3.278  -6.197   6.882  0.00  0.00    +0.190 C 
ENDROOT
BRANCH   1   2
ATOM      2  C   LIG    1        4.425  -6.442   7.864  0.00  0.00    +0.036 C 
ATOM      3  C   LIG    1        4.526  -7.938   8.167  0.00  0.00    +0.007 C 
ATOM      4  C   LIG    1        5.674  -8.183   9.149  0.00  0.00    +0.000 C 
ATOM      5  C   LIG    1        6.986  -7.697   8.531  0.00  0.00    +0.000 C 
ATOM      6  C   LIG    1        6.885  -6.201   8.228  0.00  0.00    +0.000 C 
ATOM      7  C   LIG    1        5.738  -5.956   7.246  0.00  0.00    +0.007 C 
ENDBRANCH   1   2
BRANCH   1   8
ATOM      8  C   LIG    1        1.984  -6.675   7.490  0.00  0.00    -0.005 A 
ATOM      9  C   LIG    1        1.811  -6.639   8.861  0.00  0.00    +0.007 A 
ATOM     10  C   LIG    1        0.625  -7.078   9.419  0.00  0.00    +0.000 A 
ATOM     11  C   LIG    1       -0.388  -7.552   8.607  0.00  0.00    +0.000 A 
ATOM     12  C   LIG    1       -0.215  -7.587   7.236  0.00  0.00    +0.000 A 
ATOM     13  C   LIG    1        0.970  -7.144   6.677  0.00  0.00    +0.007 A 
ENDBRANCH   1   8
BRANCH   1  14
ATOM     14  C   LIG    1        3.178  -4.723   6.583  0.00  0.00    +0.345 C 
ATOM     15  O   LIG    1        3.590  -3.916   7.382  0.00  0.00    -0.247 OA
BRANCH  14  16
ATOM     16  O   LIG    1        2.631  -4.308   5.430  0.00  0.00    -0.449 OA
BRANCH  16  17
ATOM     17  C   LIG    1        2.568  -2.896   5.213  0.00  0.00    +0.320 C 
BRANCH  17  19
ATOM     18  C   LIG    1        1.444  -2.413   2.867  0.00  0.00    -0.118 C 
ATOM     19  C   LIG    1        1.943  -2.628   3.908  0.00  0.00    -0.063 C 
BRANCH  18  20
ATOM     20  C   LIG    1        0.819  -2.145   1.562  0.00  0.00    +0.012 C 
BRANCH  20  21
ATOM     21  N   LIG    1        0.754  -0.694   1.339  0.00  0.00    +0.387 N 
ATOM     22  H   LIG    1        1.677  -0.298   1.437  0.00  0.00    -0.080 HD
BRANCH  21  24
ATOM     23  C   LIG    1        0.299   1.075  -0.292  0.00  0.00    -0.017 C 
ATOM     24  C   LIG    1        0.249  -0.429  -0.014  0.00  0.00    -0.081 C 
ENDBRANCH  21  24
BRANCH  21  25
ATOM     25  C   LIG    1       -0.147  -0.086   2.327  0.00  0.00    -0.081 C 
ATOM     26  C   LIG    1       -1.574  -0.586   2.090  0.00  0.00    -0.017 C 
ENDBRANCH  21  25
ENDBRANCH  20  21
ENDBRANCH  18  20
ENDBRANCH  17  19
ENDBRANCH  16  17
ENDBRANCH  14  16
ENDBRANCH   1  14
BRANCH   1  27
ATOM     27  O   LIG    1        3.527  -6.912   5.670  0.00  0.00    -0.373 OA
ATOM     28  H   LIG    1        4.345  -6.656   5.223  0.00  0.00    +0.211 HD
ENDBRANCH   1  27
TORSDOF 11
