REMARK  Name = ZINC01499710
REMARK                            x       y       z     vdW  Elec       q    Type
REMARK                         _______ _______ _______ _____ _____    ______ ____
ROOT
ATOM      1  C   LIG    1        1.007   5.920   0.023  0.00  0.00    +0.165 A 
ATOM      2  C   LIG    1        2.311   5.248   0.007  0.00  0.00    +0.179 A 
ATOM      3  N   LIG    1        3.551   5.694  -0.002  0.00  0.00    -0.233 NA
ATOM      4  C   LIG    1        4.390   4.657  -0.016  0.00  0.00    +0.131 A 
ATOM      5  C   LIG    1        3.661   3.515  -0.015  0.00  0.00    +0.113 A 
ATOM      6  N   LIG    1        2.350   3.878   0.001  0.00  0.00    -0.295 N 
ATOM      7  C   LIG    1        1.161   3.166   0.007  0.00  0.00    +0.073 A 
ATOM      8  C   LIG    1        1.175   1.777   0.000  0.00  0.00    +0.028 A 
ATOM      9  C   LIG    1       -0.013   1.076   0.008  0.00  0.00    +0.002 A 
ATOM     10  C   LIG    1       -1.226   1.749   0.017  0.00  0.00    +0.002 A 
ATOM     11  C   LIG    1       -1.260   3.124   0.030  0.00  0.00    +0.030 A 
ATOM     12  C   LIG    1       -0.064   3.853   0.022  0.00  0.00    +0.090 A 
ATOM     13  N   LIG    1       -0.097   5.210   0.030  0.00  0.00    -0.227 NA
ENDROOT
BRANCH   1  19
ATOM     14  C   LIG    1        0.192  11.314   1.118  0.00  0.00    -0.096 C 
ATOM     15  N   LIG    1        0.251   9.837   1.133  0.00  0.00    +0.380 N 
ATOM     16  H   LIG    1       -0.186   9.495   1.997  0.00  0.00    -0.082 HD
ATOM     17  C   LIG    1        1.658   9.386   1.095  0.00  0.00    -0.060 C 
ATOM     18  C   LIG    1        1.689   7.858   1.167  0.00  0.00    +0.088 C 
ATOM     19  N   LIG    1        0.941   7.301   0.031  0.00  0.00    -0.316 N 
ATOM     20  C   LIG    1       -0.455   7.762   0.046  0.00  0.00    +0.088 C 
ATOM     21  C   LIG    1       -0.485   9.290  -0.026  0.00  0.00    -0.060 C 
ENDBRANCH   1  19
TORSDOF 1
