REMARK  Name = ZINC01645453
REMARK                            x       y       z     vdW  Elec       q    Type
REMARK                         _______ _______ _______ _____ _____    ______ ____
ROOT
ATOM      1  C   LIG    1        3.668   2.174  -0.013  0.00  0.00    +0.202 C 
ENDROOT
BRANCH   1   5
ATOM      2  C   LIG    1        0.099  -0.157   0.251  0.00  0.00    +0.000 A 
ATOM      3  C   LIG    1        0.024   1.223   0.241  0.00  0.00    +0.000 A 
ATOM      4  C   LIG    1        1.179   1.977   0.157  0.00  0.00    +0.007 A 
ATOM      5  C   LIG    1        2.409   1.351   0.080  0.00  0.00    -0.007 A 
ATOM      6  C   LIG    1        2.484  -0.029   0.090  0.00  0.00    +0.007 A 
ATOM      7  C   LIG    1        1.329  -0.783   0.175  0.00  0.00    +0.000 A 
ENDBRANCH   1   5
BRANCH   1   8
ATOM      8  O   LIG    1        3.561   3.308   0.850  0.00  0.00    -0.484 OA
BRANCH   8   9
ATOM      9  C   LIG    1        4.678   3.670   1.535  0.00  0.00    +0.121 A 
ATOM     10  C   LIG    1        5.880   3.019   1.298  0.00  0.00    +0.046 A 
ATOM     11  C   LIG    1        7.015   3.393   1.991  0.00  0.00    +0.016 A 
ATOM     12  C   LIG    1        6.951   4.407   2.929  0.00  0.00    +0.055 A 
ATOM     13  C   LIG    1        5.753   5.053   3.171  0.00  0.00    +0.016 A 
ATOM     14  C   LIG    1        4.617   4.687   2.476  0.00  0.00    +0.046 A 
BRANCH  12  15
ATOM     15  C   LIG    1        8.189   4.808   3.688  0.00  0.00    +0.417 C 
ATOM     16  F   LIG    1        8.115   6.166   4.018  0.00  0.00    -0.166 F 
ATOM     17  F   LIG    1        9.318   4.583   2.893  0.00  0.00    -0.166 F 
ATOM     18  F   LIG    1        8.285   4.049   4.859  0.00  0.00    -0.166 F 
ENDBRANCH  12  15
ENDBRANCH   8   9
ENDBRANCH   1   8
BRANCH   1  19
ATOM     19  C   LIG    1        3.864   2.647  -1.455  0.00  0.00    +0.030 C 
BRANCH  19  20
ATOM     20  C   LIG    1        5.204   3.375  -1.575  0.00  0.00    -0.083 C 
BRANCH  20  21
ATOM     21  N   LIG    1        5.392   3.807  -2.972  0.00  0.00    +0.378 N 
ATOM     22  H   LIG    1        5.415   2.980  -3.580  0.00  0.00    -0.090 HD
ATOM     23  H   LIG    1        6.270   4.314  -3.065  0.00  0.00    -0.090 HD
ATOM     24  H   LIG    1        4.621   4.409  -3.258  0.00  0.00    -0.090 HD
ENDBRANCH  20  21
ENDBRANCH  19  20
ENDBRANCH   1  19
TORSDOF 7
