REMARK  Name = ZINC01591007
REMARK                            x       y       z     vdW  Elec       q    Type
REMARK                         _______ _______ _______ _____ _____    ______ ____
ROOT
ATOM      1  C   LIG    1       -0.124   4.633   1.379  0.00  0.00    +0.082 C 
ATOM      2  C   LIG    1        1.163   4.226   1.410  0.00  0.00    +0.028 C 
ATOM      3  C   LIG    1        1.004   3.628   0.034  0.00  0.00    +0.097 C 
ATOM      4  C   LIG    1        1.151   2.130   0.003  0.00  0.00    -0.023 A 
ATOM      5  C   LIG    1        2.360   1.425  -0.024  0.00  0.00    +0.005 A 
ATOM      6  C   LIG    1        2.383   0.049  -0.035  0.00  0.00    +0.000 A 
ATOM      7  C   LIG    1        1.208  -0.679  -0.020  0.00  0.00    +0.001 A 
ATOM      8  C   LIG    1        0.002  -0.004   0.002  0.00  0.00    +0.015 A 
ATOM      9  C   LIG    1       -0.017   1.381   0.010  0.00  0.00    +0.013 A 
ATOM     10  S   LIG    1       -1.373   2.527   0.021  0.00  0.00    -0.101 S 
ATOM     11  C   LIG    1       -0.453   4.111   0.026  0.00  0.00    +0.162 C 
ENDROOT
BRANCH   2  12
ATOM     12  N   LIG    1        2.184   4.317   2.313  0.00  0.00    -0.332 N 
ATOM     13  C   LIG    1        3.540   3.779   2.130  0.00  0.00    +0.105 C 
ATOM     14  C   LIG    1        4.337   4.098   3.412  0.00  0.00    +0.020 C 
ATOM     15  C   LIG    1        3.221   4.291   4.473  0.00  0.00    +0.020 C 
ATOM     16  C   LIG    1        2.108   4.967   3.634  0.00  0.00    +0.105 C 
ENDBRANCH   2  12
BRANCH   1  17
ATOM     17  C   LIG    1       -0.908   5.325   2.328  0.00  0.00    +0.338 C 
ATOM     18  O   LIG    1       -0.423   5.655   3.394  0.00  0.00    -0.245 OA
BRANCH  17  20
ATOM     19  C   LIG    1       -2.930   6.322   3.058  0.00  0.00    +0.280 C 
ATOM     20  O   LIG    1       -2.196   5.620   2.052  0.00  0.00    -0.465 OA
ENDBRANCH  17  20
ENDBRANCH   1  17
BRANCH  11  21
ATOM     21  C   LIG    1       -0.870   5.117  -1.015  0.00  0.00    +0.329 C 
ATOM     22  O   LIG    1       -0.032   5.727  -1.636  0.00  0.00    -0.249 OA
BRANCH  21  23
ATOM     23  O   LIG    1       -2.173   5.337  -1.252  0.00  0.00    -0.467 OA
ATOM     24  C   LIG    1       -2.501   6.321  -2.268  0.00  0.00    +0.280 C 
ENDBRANCH  21  23
ENDBRANCH  11  21
TORSDOF 5
