REMARK  Name = ZINC01541645
REMARK                            x       y       z     vdW  Elec       q    Type
REMARK                         _______ _______ _______ _____ _____    ______ ____
ROOT
ATOM      1  C   LIG    1       -3.179   5.281  -2.092  0.00  0.00    -0.032 C 
ATOM      2  C   LIG    1       -2.215   4.880  -1.227  0.00  0.00    -0.007 C 
ENDROOT
BRANCH   1   3
ATOM      3  C   LIG    1       -4.347   6.024  -1.596  0.00  0.00    -0.021 A 
ATOM      4  C   LIG    1       -5.257   5.409  -0.731  0.00  0.00    +0.008 A 
ATOM      5  C   LIG    1       -6.347   6.114  -0.266  0.00  0.00    +0.001 A 
ATOM      6  C   LIG    1       -6.548   7.425  -0.663  0.00  0.00    +0.000 A 
ATOM      7  C   LIG    1       -5.655   8.040  -1.524  0.00  0.00    +0.001 A 
ATOM      8  C   LIG    1       -4.557   7.349  -1.993  0.00  0.00    +0.008 A 
ENDBRANCH   1   3
BRANCH   2   9
ATOM      9  C   LIG    1       -2.268   5.302   0.189  0.00  0.00    -0.017 A 
ATOM     10  C   LIG    1       -2.130   6.650   0.523  0.00  0.00    +0.012 A 
ATOM     11  C   LIG    1       -2.186   7.041   1.844  0.00  0.00    +0.046 A 
ATOM     12  C   LIG    1       -2.368   6.093   2.843  0.00  0.00    +0.120 A 
ATOM     13  C   LIG    1       -2.502   4.750   2.515  0.00  0.00    +0.046 A 
ATOM     14  C   LIG    1       -2.452   4.353   1.196  0.00  0.00    +0.012 A 
BRANCH  12  15
ATOM     15  O   LIG    1       -2.417   6.481   4.144  0.00  0.00    -0.494 OA
BRANCH  15  16
ATOM     16  C   LIG    1       -2.274   7.878   4.410  0.00  0.00    +0.211 C 
BRANCH  16  17
ATOM     17  C   LIG    1       -2.355   8.120   5.919  0.00  0.00    -0.035 C 
BRANCH  17  18
ATOM     18  N   LIG    1       -1.193   7.507   6.576  0.00  0.00    +0.377 N 
ATOM     19  C   LIG    1       -1.256   6.048   6.420  0.00  0.00    -0.093 C 
ATOM     20  C   LIG    1       -1.203   7.847   8.005  0.00  0.00    -0.093 C 
ATOM     21  C   LIG    1        0.042   8.012   5.961  0.00  0.00    -0.093 C 
ENDBRANCH  17  18
ENDBRANCH  16  17
ENDBRANCH  15  16
ENDBRANCH  12  15
ENDBRANCH   2   9
BRANCH   2  22
ATOM     22  C   LIG    1       -1.108   4.019  -1.701  0.00  0.00    -0.017 A 
ATOM     23  C   LIG    1       -1.368   2.718  -2.134  0.00  0.00    +0.008 A 
ATOM     24  C   LIG    1       -0.331   1.919  -2.570  0.00  0.00    +0.001 A 
ATOM     25  C   LIG    1        0.963   2.409  -2.588  0.00  0.00    +0.000 A 
ATOM     26  C   LIG    1        1.226   3.699  -2.165  0.00  0.00    +0.001 A 
ATOM     27  C   LIG    1        0.199   4.507  -1.722  0.00  0.00    +0.008 A 
ENDBRANCH   2  22
BRANCH   1  29
ATOM     28  C   LIG    1       -2.400   6.145  -4.282  0.00  0.00    +0.009 C 
ATOM     29  C   LIG    1       -3.054   4.965  -3.560  0.00  0.00    +0.033 C 
ENDBRANCH   1  29
TORSDOF 8
