REMARK  Name = ZINC01532215
REMARK                            x       y       z     vdW  Elec       q    Type
REMARK                         _______ _______ _______ _____ _____    ______ ____
ROOT
ATOM      1  C   LIG    1       -0.712   3.128   1.986  0.00  0.00    +0.038 A 
ATOM      2  C   LIG    1       -1.436   3.525   3.124  0.00  0.00    -0.007 A 
ATOM      3  C   LIG    1       -1.237   4.789   3.707  0.00  0.00    +0.038 A 
ATOM      4  C   LIG    1       -1.946   5.146   4.812  0.00  0.00    +0.121 A 
ATOM      5  C   LIG    1       -2.874   4.278   5.382  0.00  0.00    +0.075 A 
ATOM      6  C   LIG    1       -3.096   3.032   4.841  0.00  0.00    +0.130 A 
ATOM      7  C   LIG    1       -2.376   2.635   3.697  0.00  0.00    +0.065 A 
ATOM      8  C   LIG    1       -2.574   1.369   3.112  0.00  0.00    +0.130 A 
ATOM      9  C   LIG    1       -1.850   1.018   1.995  0.00  0.00    +0.075 A 
ATOM     10  C   LIG    1       -0.927   1.900   1.439  0.00  0.00    +0.121 A 
ENDROOT
BRANCH   4  11
ATOM     11  S   LIG    1       -1.687   6.733   5.533  0.00  0.00    +0.110 S 
ATOM     12  O   LIG    1       -2.872   7.051   6.251  0.00  0.00    -0.142 OA
ATOM     13  O   LIG    1       -1.173   7.568   4.504  0.00  0.00    -0.142 OA
BRANCH  11  14
ATOM     14  O   LIG    1       -0.579   6.583   6.565  0.00  0.00    -0.250 OA
ATOM     15  H   LIG    1        0.253   6.364   6.117  0.00  0.00    +0.245 HD
ENDBRANCH  11  14
ENDBRANCH   4  11
BRANCH  10  16
ATOM     16  S   LIG    1       -0.017   1.417   0.010  0.00  0.00    +0.110 S 
ATOM     17  O   LIG    1        1.172   2.195   0.003  0.00  0.00    -0.142 OA
ATOM     18  O   LIG    1        0.002  -0.004   0.002  0.00  0.00    -0.142 OA
BRANCH  16  19
ATOM     19  O   LIG    1       -0.826   1.847  -1.205  0.00  0.00    -0.250 OA
ATOM     20  H   LIG    1       -1.652   1.339  -1.241  0.00  0.00    +0.245 HD
ENDBRANCH  16  19
ENDBRANCH  10  16
BRANCH   6  21
ATOM     21  O   LIG    1       -4.003   2.193   5.404  0.00  0.00    -0.506 OA
ATOM     22  H   LIG    1       -3.632   1.612   6.083  0.00  0.00    +0.292 HD
ENDBRANCH   6  21
BRANCH   8  23
ATOM     23  O   LIG    1       -3.471   0.500   3.647  0.00  0.00    -0.506 OA
ATOM     24  H   LIG    1       -3.098  -0.088   4.317  0.00  0.00    +0.292 HD
ENDBRANCH   8  23
TORSDOF 6
