REMARK  Name = ZINC01605732
REMARK                            x       y       z     vdW  Elec       q    Type
REMARK                         _______ _______ _______ _____ _____    ______ ____
ROOT
ATOM      1  CA  PHE A  1        4.398   5.188  -0.505  0.00  0.00    +0.017 C 
ENDROOT
BRANCH   1   4
ATOM      2  N   ALA A  2        2.634   3.529  -0.004  0.00  0.00    -0.304 N 
ATOM      3  H   ALA A  2        3.326   2.944   0.341  0.00  0.00    +0.149 HD
ATOM      4  C   PHE A  1        2.959   4.742  -0.494  0.00  0.00    +0.199 C 
ATOM      5  O   PHE A  1        2.094   5.473  -0.926  0.00  0.00    -0.278 OA
BRANCH   2   7
ATOM      6  CB  ALA A  2        0.546   3.625   1.266  0.00  0.00    +0.040 C 
ATOM      7  CA  ALA A  2        1.235   3.094   0.007  0.00  0.00    +0.178 C 
BRANCH   7   8
ATOM      8  C   ALA A  2        1.177   1.588  -0.001  0.00  0.00    +0.325 C 
ATOM      9  O   ALA A  2        2.199   0.944  -0.014  0.00  0.00    -0.249 OA
BRANCH   8  10
ATOM     10  OXT ALA A  2       -0.011   0.963   0.007  0.00  0.00    -0.479 OA
ATOM     11  HXT ALA A  2       -0.804   1.462   0.018  0.00  0.00    +0.295 HD
ENDBRANCH   8  10
ENDBRANCH   7   8
ENDBRANCH   2   7
ENDBRANCH   1   4
BRANCH   1  12
ATOM     12  N   PHE A  1        4.558   6.262  -1.502  0.00  0.00    +0.386 N 
ATOM     13  H1  PHE A  1        4.261   5.917  -2.421  0.00  0.00    -0.089 HD
ATOM     14  H2  PHE A  1        5.535   6.548  -1.554  0.00  0.00    -0.089 HD
ATOM     15  H3  PHE A  1        3.984   7.064  -1.246  0.00  0.00    -0.089 HD
ENDBRANCH   1  12
BRANCH   1  16
ATOM     16  CB  PHE A  1        4.788   5.689   0.887  0.00  0.00    +0.028 C 
BRANCH  16  17
ATOM     17  CG  PHE A  1        6.258   6.020   0.909  0.00  0.00    -0.048 A 
ATOM     18  CD2 PHE A  1        7.180   5.051   1.258  0.00  0.00    +0.003 A 
ATOM     19  CE2 PHE A  1        8.529   5.354   1.273  0.00  0.00    +0.000 A 
ATOM     20  CZ  PHE A  1        8.955   6.628   0.949  0.00  0.00    +0.000 A 
ATOM     21  CE1 PHE A  1        8.032   7.599   0.605  0.00  0.00    +0.000 A 
ATOM     22  CD1 PHE A  1        6.684   7.295   0.585  0.00  0.00    +0.003 A 
ENDBRANCH  16  17
ENDBRANCH   1  16
TORSDOF 7
