REMARK  Name = ZINC01489479
REMARK                            x       y       z     vdW  Elec       q    Type
REMARK                         _______ _______ _______ _____ _____    ______ ____
ROOT
ATOM      1  C   LIG    1       -0.899  -2.208  -2.099  0.00  0.00    +0.048 C 
ATOM      2  C   LIG    1       -1.663  -1.714  -0.897  0.00  0.00    +0.008 A 
ATOM      3  C   LIG    1       -1.349  -0.653  -0.095  0.00  0.00    +0.078 A 
ATOM      4  N   LIG    1       -2.318  -0.584   0.866  0.00  0.00    -0.230 N 
ATOM      5  N   LIG    1       -3.182  -1.517   0.684  0.00  0.00    -0.161 NA
ATOM      6  C   LIG    1       -2.856  -2.249  -0.364  0.00  0.00    +0.152 A 
ENDROOT
BRANCH   4   7
ATOM      7  C   LIG    1       -2.364   0.365   1.895  0.00  0.00    +0.084 A 
ATOM      8  C   LIG    1       -1.236   0.610   2.667  0.00  0.00    +0.031 A 
ATOM      9  C   LIG    1       -1.283   1.550   3.677  0.00  0.00    +0.022 A 
ATOM     10  C   LIG    1       -2.456   2.241   3.928  0.00  0.00    +0.042 A 
ATOM     11 CL   LIG    1       -2.512   3.418   5.203  0.00  0.00    -0.083 Cl
ATOM     12  C   LIG    1       -3.583   1.996   3.165  0.00  0.00    +0.042 A 
ATOM     13  C   LIG    1       -3.541   1.060   2.149  0.00  0.00    +0.068 A 
ATOM     14 CL   LIG    1       -4.955   0.753   1.190  0.00  0.00    -0.081 Cl
ENDBRANCH   4   7
BRANCH   3  15
ATOM     15  C   LIG    1       -0.181   0.244  -0.235  0.00  0.00    +0.001 A 
ATOM     16  C   LIG    1       -0.364   1.626  -0.303  0.00  0.00    +0.013 A 
ATOM     17  C   LIG    1        0.727   2.458  -0.433  0.00  0.00    +0.046 A 
ATOM     18  C   LIG    1        2.007   1.924  -0.497  0.00  0.00    +0.120 A 
ATOM     19  C   LIG    1        2.193   0.549  -0.430  0.00  0.00    +0.046 A 
ATOM     20  C   LIG    1        1.107  -0.290  -0.299  0.00  0.00    +0.013 A 
BRANCH  18  21
ATOM     21  O   LIG    1        3.080   2.747  -0.627  0.00  0.00    -0.495 OA
ATOM     22  C   LIG    1        2.817   4.150  -0.691  0.00  0.00    +0.277 C 
ENDBRANCH  18  21
ENDBRANCH   3  15
BRANCH   6  23
ATOM     23  C   LIG    1       -3.601  -3.414  -0.883  0.00  0.00    +0.278 C 
ATOM     24  N   LIG    1       -4.732  -3.818  -0.271  0.00  0.00    -0.243 N 
ATOM     25  H   LIG    1       -5.056  -3.344   0.510  0.00  0.00    +0.170 HD
ATOM     26  O   LIG    1       -3.195  -4.008  -1.863  0.00  0.00    -0.267 OA
BRANCH  24  27
ATOM     27  N   LIG    1       -5.421  -4.895  -0.752  0.00  0.00    -0.227 NA
ATOM     28  C   LIG    1       -6.752  -4.498  -1.230  0.00  0.00    +0.105 C 
ATOM     29  C   LIG    1       -7.436  -5.696  -1.891  0.00  0.00    +0.017 C 
ATOM     30  C   LIG    1       -7.558  -6.834  -0.874  0.00  0.00    +0.003 C 
ATOM     31  C   LIG    1       -6.163  -7.196  -0.355  0.00  0.00    +0.017 C 
ATOM     32  C   LIG    1       -5.516  -5.954   0.262  0.00  0.00    +0.105 C 
ENDBRANCH  24  27
ENDBRANCH   6  23
TORSDOF 5
