REMARK  Name = ZINC01540228
REMARK                            x       y       z     vdW  Elec       q    Type
REMARK                         _______ _______ _______ _____ _____    ______ ____
ROOT
ATOM      1  C   LIG    1        0.417   1.473   0.036  0.00  0.00    +0.048 C 
ATOM      2  C   LIG    1        0.194  -0.017   0.013  0.00  0.00    +0.008 A 
ATOM      3  C   LIG    1        0.174  -0.835  -1.082  0.00  0.00    +0.078 A 
ATOM      4  N   LIG    1       -0.061  -2.101  -0.626  0.00  0.00    -0.230 N 
ATOM      5  N   LIG    1       -0.181  -2.090   0.653  0.00  0.00    -0.161 NA
ATOM      6  C   LIG    1       -0.034  -0.865   1.119  0.00  0.00    +0.152 A 
ENDROOT
BRANCH   4   7
ATOM      7  C   LIG    1       -0.158  -3.241  -1.433  0.00  0.00    +0.084 A 
ATOM      8  C   LIG    1       -0.965  -3.228  -2.562  0.00  0.00    +0.031 A 
ATOM      9  C   LIG    1       -1.059  -4.353  -3.357  0.00  0.00    +0.022 A 
ATOM     10  C   LIG    1       -0.349  -5.495  -3.028  0.00  0.00    +0.042 A 
ATOM     11 CL   LIG    1       -0.470  -6.909  -4.029  0.00  0.00    -0.083 Cl
ATOM     12  C   LIG    1        0.456  -5.513  -1.903  0.00  0.00    +0.042 A 
ATOM     13  C   LIG    1        0.558  -4.387  -1.107  0.00  0.00    +0.068 A 
ATOM     14 CL   LIG    1        1.574  -4.406   0.300  0.00  0.00    -0.081 Cl
ENDBRANCH   4   7
BRANCH   3  15
ATOM     15  C   LIG    1        0.370  -0.427  -2.491  0.00  0.00    +0.001 A 
ATOM     16  C   LIG    1       -0.417   0.584  -3.043  0.00  0.00    +0.011 A 
ATOM     17  C   LIG    1       -0.230   0.960  -4.357  0.00  0.00    +0.020 A 
ATOM     18  C   LIG    1        0.736   0.336  -5.128  0.00  0.00    +0.041 A 
ATOM     19 CL   LIG    1        0.965   0.814  -6.781  0.00  0.00    -0.084 Cl
ATOM     20  C   LIG    1        1.520  -0.668  -4.585  0.00  0.00    +0.020 A 
ATOM     21  C   LIG    1        1.346  -1.048  -3.271  0.00  0.00    +0.011 A 
ENDBRANCH   3  15
BRANCH   6  22
ATOM     22  C   LIG    1       -0.099  -0.454   2.537  0.00  0.00    +0.278 C 
ATOM     23  N   LIG    1       -0.324  -1.375   3.495  0.00  0.00    -0.243 N 
ATOM     24  H   LIG    1       -0.443  -2.307   3.254  0.00  0.00    +0.170 HD
ATOM     25  O   LIG    1        0.051   0.714   2.839  0.00  0.00    -0.267 OA
BRANCH  23  26
ATOM     26  N   LIG    1       -0.384  -0.995   4.806  0.00  0.00    -0.227 NA
ATOM     27  C   LIG    1        0.709  -1.599   5.579  0.00  0.00    +0.105 C 
ATOM     28  C   LIG    1        0.698  -1.040   7.004  0.00  0.00    +0.017 C 
ATOM     29  C   LIG    1       -0.650  -1.354   7.659  0.00  0.00    +0.003 C 
ATOM     30  C   LIG    1       -1.774  -0.755   6.808  0.00  0.00    +0.017 C 
ATOM     31  C   LIG    1       -1.691  -1.323   5.389  0.00  0.00    +0.105 C 
ENDBRANCH  23  26
ENDBRANCH   6  22
TORSDOF 4
