REMARK  Name = ZINC01548581
REMARK                            x       y       z     vdW  Elec       q    Type
REMARK                         _______ _______ _______ _____ _____    ______ ____
ROOT
ATOM      1  C   LIG    1        0.000   1.080   2.488  0.00  0.00    +0.000 A 
ATOM      2  C   LIG    1        1.124   0.308   2.346  0.00  0.00    +0.019 A 
ATOM      3  C   LIG    1        1.801  -0.155   3.481  0.00  0.00    +0.018 A 
ATOM      4  C   LIG    1        1.325   0.174   4.756  0.00  0.00    +0.019 A 
ATOM      5  C   LIG    1        0.200   0.947   4.887  0.00  0.00    +0.000 A 
ATOM      6  C   LIG    1       -0.465   1.408   3.757  0.00  0.00    +0.124 A 
ENDROOT
BRANCH   1   8
ATOM      7  C   LIG    1       -0.013   1.086   0.008  0.00  0.00    +0.015 C 
ATOM      8  C   LIG    1       -0.729   1.579   1.267  0.00  0.00    -0.009 C 
ATOM      9  C   LIG    1       -2.164   1.050   1.278  0.00  0.00    +0.015 C 
ATOM     10  C   LIG    1       -0.750   3.109   1.275  0.00  0.00    +0.015 C 
ENDBRANCH   1   8
BRANCH   5  11
ATOM     11  C   LIG    1       -0.313   1.302   6.259  0.00  0.00    -0.009 C 
ATOM     12  C   LIG    1       -1.735   0.764   6.427  0.00  0.00    +0.015 C 
ATOM     13  C   LIG    1       -0.321   2.823   6.423  0.00  0.00    +0.015 C 
ATOM     14  C   LIG    1        0.596   0.680   7.321  0.00  0.00    +0.015 C 
ENDBRANCH   5  11
BRANCH   3  15
ATOM     15  C   LIG    1        3.005  -0.983   3.335  0.00  0.00    +0.163 C 
ATOM     16  O   LIG    1        3.415  -1.267   2.229  0.00  0.00    -0.292 OA
BRANCH  15  17
ATOM     17  C   LIG    1        3.731  -1.480   4.558  0.00  0.00    +0.080 C 
BRANCH  17  18
ATOM     18  C   LIG    1        4.941  -2.312   4.130  0.00  0.00    +0.021 C 
BRANCH  18  19
ATOM     19  C   LIG    1        5.678  -2.817   5.372  0.00  0.00    +0.089 C 
BRANCH  19  20
ATOM     20  C   LIG    1        6.843  -3.618   4.961  0.00  0.00    -0.106 C 
ATOM     21  C   LIG    1        7.771  -4.256   4.632  0.00  0.00    +0.004 C 
ENDBRANCH  19  20
ENDBRANCH  18  19
ENDBRANCH  17  18
ENDBRANCH  15  17
ENDBRANCH   3  15
BRANCH   6  22
ATOM     22  O   LIG    1       -1.575   2.177   3.892  0.00  0.00    -0.506 OA
ATOM     23  H   LIG    1       -2.399   1.673   3.934  0.00  0.00    +0.292 HD
ENDBRANCH   6  22
TORSDOF 8
