REMARK  Name = ZINC01532805
REMARK                            x       y       z     vdW  Elec       q    Type
REMARK                         _______ _______ _______ _____ _____    ______ ____
ROOT
ATOM      1  C   LIG    1        1.235   3.094   0.007  0.00  0.00    +0.122 C 
ENDROOT
BRANCH   1   2
ATOM      2  C   LIG    1        1.177   1.588  -0.001  0.00  0.00    +0.305 C 
ATOM      3  O   LIG    1        2.199   0.944  -0.014  0.00  0.00    -0.251 OA
BRANCH   2   4
ATOM      4  O   LIG    1       -0.011   0.963   0.007  0.00  0.00    -0.481 OA
ATOM      5  H   LIG    1       -0.804   1.462   0.018  0.00  0.00    +0.295 HD
ENDBRANCH   2   4
ENDBRANCH   1   2
BRANCH   1   6
ATOM      6  C   LIG    1        2.696   3.548  -0.005  0.00  0.00    +0.039 C 
BRANCH   6   7
ATOM      7  C   LIG    1        2.755   5.077   0.003  0.00  0.00    +0.156 C 
BRANCH   7   8
ATOM      8  O   LIG    1        4.120   5.501  -0.008  0.00  0.00    -0.395 OA
ATOM      9  H   LIG    1        4.234   6.461  -0.004  0.00  0.00    +0.209 HD
ENDBRANCH   7   8
ENDBRANCH   6   7
ENDBRANCH   1   6
TORSDOF 5
