REMARK  Name = ZINC01542229
REMARK                            x       y       z     vdW  Elec       q    Type
REMARK                         _______ _______ _______ _____ _____    ______ ____
ROOT
ATOM      1  C   LIG    1        3.678   2.039  -0.023  0.00  0.00    +0.262 C 
ATOM      2  N   LIG    1        4.828   1.337  -0.037  0.00  0.00    -0.312 N 
ATOM      3  H   LIG    1        4.805   0.367  -0.042  0.00  0.00    +0.149 HD
ATOM      4  O   LIG    1        3.707   3.254  -0.017  0.00  0.00    -0.269 OA
ENDROOT
BRANCH   1   7
ATOM      5  C   LIG    1       -0.017   1.383   0.010  0.00  0.00    +0.024 A 
ATOM      6  C   LIG    1        1.192   2.060   0.002  0.00  0.00    +0.034 A 
ATOM      7  C   LIG    1        2.378   1.329  -0.013  0.00  0.00    +0.125 A 
ATOM      8  N   LIG    1        2.353   0.002  -0.020  0.00  0.00    -0.249 NA
ATOM      9  C   LIG    1        1.221  -0.667  -0.013  0.00  0.00    +0.131 A 
ATOM     10  C   LIG    1        0.002  -0.004   0.002  0.00  0.00    +0.059 A 
ATOM     11 CL   LIG    1       -1.484  -0.901   0.012  0.00  0.00    -0.082 Cl
ENDBRANCH   1   7
BRANCH   2  12
ATOM     12  C   LIG    1        6.114   2.039  -0.046  0.00  0.00    +0.085 C 
BRANCH  12  13
ATOM     13  C   LIG    1        7.253   1.017  -0.063  0.00  0.00    -0.067 C 
BRANCH  13  14
ATOM     14  N   LIG    1        8.542   1.721  -0.072  0.00  0.00    +0.379 N 
ATOM     15  H   LIG    1        9.293   1.047  -0.082  0.00  0.00    -0.090 HD
ATOM     16  H   LIG    1        8.618   2.296   0.754  0.00  0.00    -0.090 HD
ATOM     17  H   LIG    1        8.602   2.304  -0.893  0.00  0.00    -0.090 HD
ENDBRANCH  13  14
ENDBRANCH  12  13
ENDBRANCH   2  12
TORSDOF 4
