REMARK  Name = ZINC01599890
REMARK                            x       y       z     vdW  Elec       q    Type
REMARK                         _______ _______ _______ _____ _____    ______ ____
ROOT
ATOM      1  C   LIG    1       -0.014   1.212   0.009  0.00  0.00    +0.193 C 
ATOM      2  O   LIG    1        0.058   0.019   0.235  0.00  0.00    -0.287 OA
ENDROOT
BRANCH   1   9
ATOM      3  C   LIG    1        1.201   3.065  -1.128  0.00  0.00    +0.013 A 
ATOM      4  C   LIG    1        2.351   3.794  -1.344  0.00  0.00    +0.023 A 
ATOM      5  C   LIG    1        3.522   3.460  -0.683  0.00  0.00    +0.071 A 
ATOM      6 CL   LIG    1        4.967   4.379  -0.965  0.00  0.00    -0.081 Cl
ATOM      7  C   LIG    1        3.543   2.395   0.203  0.00  0.00    +0.140 A 
ATOM      8  C   LIG    1        2.399   1.661   0.432  0.00  0.00    +0.045 A 
ATOM      9  C   LIG    1        1.215   1.994  -0.232  0.00  0.00    +0.024 A 
BRANCH   7  10
ATOM     10  N   LIG    1        4.798   2.044   0.906  0.00  0.00    +0.007 N 
ATOM     11  O   LIG    1        4.819   1.108   1.685  0.00  0.00    -0.130 OA
BRANCH  10  12
ATOM     12  O   LIG    1        5.810   2.691   0.704  0.00  0.00    -0.396 OA
ATOM     13  H   LIG    1        5.794   3.411   0.105  0.00  0.00    +0.329 HD
ENDBRANCH  10  12
ENDBRANCH   7  10
ENDBRANCH   1   9
BRANCH   1  14
ATOM     14  C   LIG    1       -1.332   1.877  -0.032  0.00  0.00    +0.024 A 
ATOM     15  C   LIG    1       -1.413   3.268  -0.128  0.00  0.00    +0.013 A 
ATOM     16  C   LIG    1       -2.646   3.883  -0.171  0.00  0.00    +0.023 A 
ATOM     17  C   LIG    1       -3.804   3.125  -0.107  0.00  0.00    +0.071 A 
ATOM     18 CL   LIG    1       -5.353   3.907  -0.155  0.00  0.00    -0.081 Cl
ATOM     19  C   LIG    1       -3.731   1.745  -0.005  0.00  0.00    +0.140 A 
ATOM     20  C   LIG    1       -2.504   1.118   0.032  0.00  0.00    +0.045 A 
BRANCH  19  21
ATOM     21  N   LIG    1       -4.973   0.942   0.063  0.00  0.00    +0.007 N 
ATOM     22  O   LIG    1       -4.910  -0.271   0.151  0.00  0.00    -0.130 OA
BRANCH  21  23
ATOM     23  O   LIG    1       -6.058   1.495   0.029  0.00  0.00    -0.396 OA
ATOM     24  H   LIG    1       -6.106   2.428  -0.039  0.00  0.00    +0.329 HD
ENDBRANCH  21  23
ENDBRANCH  19  21
ENDBRANCH   1  14
TORSDOF 6
