REMARK  Name = ZINC01492231
REMARK                            x       y       z     vdW  Elec       q    Type
REMARK                         _______ _______ _______ _____ _____    ______ ____
ROOT
ATOM      1  C   UNK    1       -0.018   1.481   0.010  0.00  0.00    -0.048 C 
ATOM      2  C   UNK    1        1.485   1.856  -0.002  0.00  0.00    +0.125 C 
ATOM      3  C   UNK    1        2.119   0.774   0.901  0.00  0.00    +0.129 C 
ATOM      4  C   UNK    1        1.119  -0.397   0.889  0.00  0.00    -0.014 C 
ATOM      5  N   UNK    1        0.002  -0.004   0.002  0.00  0.00    +0.386 N 
ATOM      6  H   UNK    1        0.165  -0.345  -0.934  0.00  0.00    -0.085 HD
ATOM      7  H   UNK    1       -0.870  -0.366   0.359  0.00  0.00    -0.085 HD
ENDROOT
BRANCH   2   8
ATOM      8  O   UNK    1        1.686   3.160   0.548  0.00  0.00    -0.391 OA
ATOM      9  H   UNK    1        1.242   3.866   0.058  0.00  0.00    +0.210 HD
ENDBRANCH   2   8
BRANCH   3  10
ATOM     10  O   UNK    1        2.285   1.272   2.230  0.00  0.00    -0.391 OA
ATOM     11  H   UNK    1        2.872   2.038   2.293  0.00  0.00    +0.210 HD
ENDBRANCH   3  10
BRANCH   4  12
ATOM     12  C   UNK    1        1.798  -1.658   0.350  0.00  0.00    +0.143 C 
BRANCH  12  13
ATOM     13  O   UNK    1        0.899  -2.764   0.451  0.00  0.00    -0.397 OA
ATOM     14  H   UNK    1        1.264  -3.598   0.127  0.00  0.00    +0.209 HD
ENDBRANCH  12  13
ENDBRANCH   4  12
TORSDOF 4
