REMARK  Name = ZINC01489867
REMARK                            x       y       z     vdW  Elec       q    Type
REMARK                         _______ _______ _______ _____ _____    ______ ____
ROOT
ATOM      1  C   LIG    1        2.499   1.441  -0.013  0.00  0.00    +0.080 C 
ATOM      2  C   LIG    1        3.316   1.531   1.220  0.00  0.00    +0.171 C 
ATOM      3  C   LIG    1        4.715   1.095   1.205  0.00  0.00    +0.171 C 
ATOM      4  C   LIG    1        5.269   0.617   0.052  0.00  0.00    +0.080 C 
ATOM      5  C   LIG    1        4.452   0.527  -1.181  0.00  0.00    +0.237 C 
ATOM      6  O   LIG    1        4.943   0.095  -2.206  0.00  0.00    -0.283 OA
ATOM      7  C   LIG    1        3.049   0.952  -1.163  0.00  0.00    +0.237 C 
ATOM      8  O   LIG    1        2.298   0.863  -2.292  0.00  0.00    -0.283 OA
ENDROOT
BRANCH   1  14
ATOM      9  C   LIG    1       -1.553   4.350   0.039  0.00  0.00    -0.020 A 
ATOM     10  C   LIG    1       -0.923   5.576   0.040  0.00  0.00    +0.006 A 
ATOM     11  C   LIG    1        0.462   5.659   0.027  0.00  0.00    +0.001 A 
ATOM     12  C   LIG    1        1.227   4.513   0.014  0.00  0.00    +0.010 A 
ATOM     13  C   LIG    1        0.603   3.267   0.013  0.00  0.00    +0.008 A 
ATOM     14  C   LIG    1        1.094   1.878   0.002  0.00  0.00    +0.015 A 
ATOM     15  C   LIG    1       -0.013   1.076   0.008  0.00  0.00    +0.092 A 
ATOM     16  N   LIG    1       -1.133   1.843   0.017  0.00  0.00    -0.360 N 
ATOM     17  H   LIG    1       -2.040   1.498   0.019  0.00  0.00    +0.165 HD
ATOM     18  C   LIG    1       -0.799   3.182   0.025  0.00  0.00    +0.051 A 
BRANCH   9  19
ATOM     19  C   LIG    1       -3.058   4.276   0.053  0.00  0.00    +0.064 C 
BRANCH  19  23
ATOM     20  C   LIG    1       -4.929   6.096   1.113  0.00  0.00    +0.038 C 
ATOM     21  C   LIG    1       -4.410   4.966   1.965  0.00  0.00    -0.079 C 
ATOM     22  C   LIG    1       -4.893   4.811   3.384  0.00  0.00    +0.038 C 
ATOM     23  C   LIG    1       -3.540   4.120   1.472  0.00  0.00    -0.023 C 
ENDBRANCH  19  23
ENDBRANCH   9  19
ENDBRANCH   1  14
BRANCH   4  24
ATOM     24  C   LIG    1        6.675   0.185   0.036  0.00  0.00    +0.019 A 
ATOM     25  C   LIG    1        7.850   1.016  -0.280  0.00  0.00    +0.008 A 
ATOM     26  C   LIG    1        8.022   2.356  -0.621  0.00  0.00    +0.010 A 
ATOM     27  C   LIG    1        9.290   2.844  -0.853  0.00  0.00    +0.001 A 
ATOM     28  C   LIG    1       10.392   2.008  -0.742  0.00  0.00    +0.002 A 
ATOM     29  C   LIG    1       10.236   0.682  -0.400  0.00  0.00    +0.026 A 
ATOM     30  C   LIG    1        8.965   0.171  -0.162  0.00  0.00    +0.047 A 
ATOM     31  N   LIG    1        8.502  -1.081   0.189  0.00  0.00    -0.357 N 
ATOM     32  H   LIG    1        9.063  -1.859   0.332  0.00  0.00    +0.166 HD
ATOM     33  C   LIG    1        7.149  -1.069   0.305  0.00  0.00    +0.034 A 
BRANCH  33  34
ATOM     34  C   LIG    1        6.299  -2.257   0.674  0.00  0.00    +0.024 C 
ATOM     35  C   LIG    1        5.525  -1.951   1.959  0.00  0.00    +0.022 C 
ATOM     36  C   LIG    1        7.196  -3.476   0.898  0.00  0.00    +0.022 C 
BRANCH  34  37
ATOM     37  C   LIG    1        5.327  -2.546  -0.441  0.00  0.00    -0.022 C 
ATOM     38  C   LIG    1        5.351  -3.707  -1.046  0.00  0.00    +0.005 C 
ENDBRANCH  34  37
ENDBRANCH  33  34
ENDBRANCH   4  24
BRANCH   2  39
ATOM     39  O   LIG    1        2.826   1.967   2.244  0.00  0.00    -0.503 OA
ATOM     40  H   LIG    1        1.871   2.215   2.078  0.00  0.00    +0.292 HD
ENDBRANCH   2  39
BRANCH   3  41
ATOM     41  O   LIG    1        5.465   1.179   2.335  0.00  0.00    -0.503 OA
ATOM     42  H   LIG    1        4.907   1.547   3.079  0.00  0.00    +0.292 HD
ENDBRANCH   3  41
TORSDOF 8
