REMARK  Name = ZINC01530860
REMARK                            x       y       z     vdW  Elec       q    Type
REMARK                         _______ _______ _______ _____ _____    ______ ____
ROOT
ATOM      1  N   LIG    1        1.284  -3.571   3.412  0.00  0.00    -0.310 NA
ATOM      2  H   LIG    1        1.739  -3.605   2.556  0.00  0.00    +0.122 HD
ENDROOT
BRANCH   1   3
ATOM      3  C   LIG    1        1.982  -3.209   4.554  0.00  0.00    +0.060 C 
ATOM      4  C   LIG    1        1.356  -3.159   5.790  0.00  0.00    +0.034 C 
ATOM      5  C   LIG    1        2.082  -2.793   6.914  0.00  0.00    +0.082 C 
ATOM      6  N   LIG    1        3.358  -2.489   6.847  0.00  0.00    -0.313 NA
ATOM      7  H   LIG    1        3.827  -2.238   7.657  0.00  0.00    +0.122 HD
ATOM      8  C   LIG    1        4.026  -2.515   5.688  0.00  0.00    +0.060 C 
ATOM      9  C   LIG    1        5.391  -2.186   5.633  0.00  0.00    +0.038 C 
ATOM     10  C   LIG    1        6.051  -2.238   4.442  0.00  0.00    +0.082 C 
ATOM     11 CL   LIG    1        7.739  -1.838   4.382  0.00  0.00    -0.122 Cl
ATOM     12  C   LIG    1        5.389  -2.596   3.269  0.00  0.00    +0.020 C 
ATOM     13  C   LIG    1        4.065  -2.916   3.285  0.00  0.00    +0.008 C 
ATOM     14  C   LIG    1        3.358  -2.884   4.495  0.00  0.00    +0.023 C 
ENDBRANCH   1   3
BRANCH   1  15
ATOM     15  C   LIG    1       -0.140  -3.903   3.499  0.00  0.00    +0.051 C 
ATOM     16  C   LIG    1       -0.298  -5.375   3.886  0.00  0.00    +0.024 C 
BRANCH  15  17
ATOM     17  C   LIG    1       -0.805  -3.658   2.143  0.00  0.00    +0.016 C 
BRANCH  17  18
ATOM     18  C   LIG    1       -0.756  -2.164   1.814  0.00  0.00    -0.017 C 
BRANCH  18  19
ATOM     19  C   LIG    1       -1.421  -1.919   0.458  0.00  0.00    -0.079 C 
BRANCH  19  20
ATOM     20  N   LIG    1       -1.374  -0.485   0.142  0.00  0.00    +0.379 N 
ATOM     21  H   LIG    1       -1.792   0.039   0.895  0.00  0.00    -0.082 HD
BRANCH  20  23
ATOM     22  C   LIG    1        0.082   1.451  -0.216  0.00  0.00    -0.017 C 
ATOM     23  C   LIG    1        0.024  -0.066  -0.029  0.00  0.00    -0.082 C 
ENDBRANCH  20  23
BRANCH  20  24
ATOM     24  C   LIG    1       -2.116  -0.233  -1.101  0.00  0.00    -0.082 C 
ATOM     25  C   LIG    1       -3.600  -0.533  -0.879  0.00  0.00    -0.017 C 
ENDBRANCH  20  24
ENDBRANCH  19  20
ENDBRANCH  18  19
ENDBRANCH  17  18
ENDBRANCH  15  17
ENDBRANCH   1  15
TORSDOF 8
