REMARK  Name = ZINC01641925
REMARK                            x       y       z     vdW  Elec       q    Type
REMARK                         _______ _______ _______ _____ _____    ______ ____
ROOT
ATOM      1  C   LIG    1       -0.018   1.461   0.010  0.00  0.00    +0.152 C 
ATOM      2  N   LIG    1        0.002  -0.004   0.002  0.00  0.00    -0.318 N 
ATOM      3  C   LIG    1        0.009  -0.805  -1.102  0.00  0.00    +0.201 A 
ATOM      4  N   LIG    1        0.027  -2.056  -0.744  0.00  0.00    -0.231 NA
ATOM      5  C   LIG    1        0.034  -2.137   0.610  0.00  0.00    +0.148 A 
ATOM      6  C   LIG    1        0.052  -3.195   1.534  0.00  0.00    +0.152 A 
ATOM      7  N   LIG    1        0.068  -2.906   2.831  0.00  0.00    -0.197 NA
ATOM      8  C   LIG    1        0.054  -1.649   3.253  0.00  0.00    +0.219 A 
ATOM      9  N   LIG    1        0.033  -0.623   2.418  0.00  0.00    -0.195 NA
ATOM     10  C   LIG    1        0.024  -0.822   1.103  0.00  0.00    +0.167 A 
ENDROOT
BRANCH   6  11
ATOM     11  N   LIG    1        0.069  -4.510   1.103  0.00  0.00    -0.323 N 
ATOM     12  H   LIG    1        0.067  -4.709   0.154  0.00  0.00    +0.148 HD
BRANCH  11  13
ATOM     13  C   LIG    1        0.087  -5.601   2.080  0.00  0.00    +0.138 C 
BRANCH  13  14
ATOM     14  C   LIG    1        0.102  -6.923   1.357  0.00  0.00    -0.030 A 
ATOM     15  C   LIG    1       -1.088  -7.543   1.025  0.00  0.00    +0.005 A 
ATOM     16  C   LIG    1       -1.075  -8.755   0.361  0.00  0.00    +0.000 A 
ATOM     17  C   LIG    1        0.129  -9.348   0.029  0.00  0.00    +0.000 A 
ATOM     18  C   LIG    1        1.320  -8.728   0.360  0.00  0.00    +0.000 A 
ATOM     19  C   LIG    1        1.306  -7.513   1.020  0.00  0.00    +0.005 A 
ENDBRANCH  13  14
ENDBRANCH  11  13
ENDBRANCH   6  11
BRANCH   8  20
ATOM     20  N   LIG    1        0.064  -1.401   4.616  0.00  0.00    -0.311 N 
ATOM     21  H   LIG    1        0.054  -0.488   4.943  0.00  0.00    +0.149 HD
BRANCH  20  22
ATOM     22  C   LIG    1        0.088  -2.518   5.564  0.00  0.00    +0.132 C 
BRANCH  22  23
ATOM     23  C   LIG    1        0.094  -1.974   6.994  0.00  0.00    +0.174 C 
BRANCH  23  24
ATOM     24  O   LIG    1       -1.135  -1.289   7.248  0.00  0.00    -0.393 OA
ATOM     25  H   LIG    1       -1.201  -0.917   8.138  0.00  0.00    +0.209 HD
ENDBRANCH  23  24
ENDBRANCH  22  23
ENDBRANCH  20  22
ENDBRANCH   8  20
TORSDOF 7
