REMARK  Name = ZINC01530775
REMARK                            x       y       z     vdW  Elec       q    Type
REMARK                         _______ _______ _______ _____ _____    ______ ____
ROOT
ATOM      1  C   LIG    1        7.250   1.489  -0.061  0.00  0.00    +0.007 C 
ENDROOT
BRANCH   1   2
ATOM      2  C   LIG    1        5.955   2.303  -0.044  0.00  0.00    +0.041 C 
BRANCH   2   3
ATOM      3  C   LIG    1        4.755   1.353  -0.037  0.00  0.00    +0.229 C 
BRANCH   3   4
ATOM      4  O   LIG    1        3.545   2.113  -0.021  0.00  0.00    -0.492 OA
BRANCH   4   7
ATOM      5  C   LIG    1       -0.017   1.392   0.010  0.00  0.00    +0.019 A 
ATOM      6  C   LIG    1        1.167   2.095   0.002  0.00  0.00    +0.046 A 
ATOM      7  C   LIG    1        2.380   1.417  -0.013  0.00  0.00    +0.121 A 
ATOM      8  C   LIG    1        2.403   0.028  -0.022  0.00  0.00    +0.046 A 
ATOM      9  C   LIG    1        1.223  -0.682  -0.014  0.00  0.00    +0.019 A 
ATOM     10  C   LIG    1        0.002  -0.004   0.002  0.00  0.00    +0.061 A 
BRANCH  10  11
ATOM     11  C   LIG    1       -1.266  -0.762   0.011  0.00  0.00    +0.266 C 
ATOM     12  N   LIG    1       -1.246  -2.094   0.003  0.00  0.00    -0.288 N 
ATOM     13  H   LIG    1       -2.079  -2.592   0.009  0.00  0.00    +0.301 HD
ATOM     14  H   LIG    1       -0.399  -2.567  -0.008  0.00  0.00    +0.301 HD
BRANCH  11  15
ATOM     15  N   LIG    1       -2.430  -0.113   0.026  0.00  0.00    -0.250 N 
ATOM     16  H   LIG    1       -3.263  -0.611   0.031  0.00  0.00    +0.288 HD
ATOM     17  H   LIG    1       -2.445   0.857   0.031  0.00  0.00    +0.288 HD
ENDBRANCH  11  15
ENDBRANCH  10  11
ENDBRANCH   4   7
ENDBRANCH   3   4
ENDBRANCH   2   3
ENDBRANCH   1   2
BRANCH   1  18
ATOM     18  C   LIG    1        8.449   2.440  -0.068  0.00  0.00    +0.041 C 
BRANCH  18  19
ATOM     19  C   LIG    1        9.745   1.626  -0.086  0.00  0.00    +0.229 C 
BRANCH  19  20
ATOM     20  O   LIG    1       10.865   2.513  -0.092  0.00  0.00    -0.492 OA
BRANCH  20  21
ATOM     21  C   LIG    1       12.098   1.948  -0.107  0.00  0.00    +0.121 A 
ATOM     22  C   LIG    1       12.227   0.564  -0.122  0.00  0.00    +0.046 A 
ATOM     23  C   LIG    1       13.477  -0.013  -0.137  0.00  0.00    +0.019 A 
ATOM     24  C   LIG    1       14.617   0.794  -0.138  0.00  0.00    +0.061 A 
ATOM     25  C   LIG    1       14.484   2.184  -0.124  0.00  0.00    +0.019 A 
ATOM     26  C   LIG    1       13.230   2.754  -0.114  0.00  0.00    +0.046 A 
BRANCH  24  27
ATOM     27  C   LIG    1       15.960   0.179  -0.154  0.00  0.00    +0.266 C 
ATOM     28  N   LIG    1       17.047   0.951  -0.155  0.00  0.00    -0.288 N 
ATOM     29  H   LIG    1       17.928   0.547  -0.165  0.00  0.00    +0.301 HD
ATOM     30  H   LIG    1       16.956   1.916  -0.145  0.00  0.00    +0.301 HD
BRANCH  27  31
ATOM     31  N   LIG    1       16.085  -1.148  -0.167  0.00  0.00    -0.250 N 
ATOM     32  H   LIG    1       16.967  -1.552  -0.177  0.00  0.00    +0.288 HD
ATOM     33  H   LIG    1       15.295  -1.709  -0.166  0.00  0.00    +0.288 HD
ENDBRANCH  27  31
ENDBRANCH  24  27
ENDBRANCH  20  21
ENDBRANCH  19  20
ENDBRANCH  18  19
ENDBRANCH   1  18
TORSDOF 12
