REMARK  Name = ZINC01514066
REMARK                            x       y       z     vdW  Elec       q    Type
REMARK                         _______ _______ _______ _____ _____    ______ ____
ROOT
ATOM      1  C   LIG    1        0.000   1.080   2.488  0.00  0.00    -0.021 A 
ATOM      2  C   LIG    1       -0.289  -0.024   3.194  0.00  0.00    +0.087 A 
ATOM      3  N   LIG    1        0.591  -0.157   4.233  0.00  0.00    -0.360 N 
ATOM      4  C   LIG    1        1.486   0.892   4.226  0.00  0.00    +0.049 A 
ATOM      5  C   LIG    1        2.557   1.239   5.042  0.00  0.00    +0.062 A 
ATOM      6  C   LIG    1        3.284   2.378   4.777  0.00  0.00    +0.165 A 
ATOM      7  C   LIG    1        2.959   3.191   3.695  0.00  0.00    +0.151 A 
ATOM      8  C   LIG    1        1.899   2.864   2.872  0.00  0.00    +0.058 A 
ATOM      9  H   LIG    1        0.584  -0.879   4.881  0.00  0.00    +0.165 HD
ATOM     10  C   LIG    1        1.154   1.711   3.132  0.00  0.00    +0.006 A 
ENDROOT
BRANCH   6  11
ATOM     11  N   LIG    1        4.423   2.741   5.650  0.00  0.00    +0.010 N 
ATOM     12  O   LIG    1        4.713   2.033   6.598  0.00  0.00    -0.130 OA
BRANCH  11  13
ATOM     13  O   LIG    1        5.070   3.747   5.421  0.00  0.00    -0.396 OA
ATOM     14  H   LIG    1        4.847   4.291   4.691  0.00  0.00    +0.329 HD
ENDBRANCH  11  13
ENDBRANCH   6  11
BRANCH   7  15
ATOM     15  O   LIG    1        3.687   4.312   3.446  0.00  0.00    -0.493 OA
ATOM     16  C   LIG    1        3.300   5.102   2.321  0.00  0.00    +0.277 C 
ENDBRANCH   7  15
BRANCH   1  17
ATOM     17  C   LIG    1       -0.729   1.579   1.267  0.00  0.00    +0.056 C 
BRANCH  17  18
ATOM     18  C   LIG    1       -0.013   1.086   0.008  0.00  0.00    +0.109 C 
BRANCH  18  21
ATOM     19  C   LIG    1       -0.997   1.758  -3.630  0.00  0.00    +0.109 C 
ATOM     20  C   LIG    1       -0.268   1.258  -2.409  0.00  0.00    +0.210 C 
ATOM     21  N   LIG    1       -0.721   1.571  -1.179  0.00  0.00    -0.315 N 
ATOM     22  H   LIG    1       -1.516   2.118  -1.079  0.00  0.00    +0.149 HD
ATOM     23  O   LIG    1        0.726   0.575  -2.534  0.00  0.00    -0.276 OA
ENDBRANCH  18  21
ENDBRANCH  17  18
ENDBRANCH   1  17
TORSDOF 6
