REMARK  Name = ZINC01529581
REMARK                            x       y       z     vdW  Elec       q    Type
REMARK                         _______ _______ _______ _____ _____    ______ ____
ROOT
ATOM      1  C   LIG    1       -0.019   1.526   0.010  0.00  0.00    +0.040 C 
ENDROOT
BRANCH   1   2
ATOM      2  C   LIG    1        1.417   2.055  -0.000  0.00  0.00    +0.196 C 
BRANCH   2   3
ATOM      3  N   LIG    1        1.397   3.520   0.008  0.00  0.00    -0.279 N 
ATOM      4  H   LIG    1        0.550   3.994   0.018  0.00  0.00    +0.258 HD
BRANCH   3   5
ATOM      5  C   LIG    1        2.572   4.220   0.000  0.00  0.00    +0.341 C 
ATOM      6  N   LIG    1        2.554   5.552   0.007  0.00  0.00    -0.292 N 
ATOM      7  H   LIG    1        3.387   6.048   0.002  0.00  0.00    +0.255 HD
ATOM      8  H   LIG    1        1.707   6.026   0.018  0.00  0.00    +0.255 HD
BRANCH   5   9
ATOM      9  N   LIG    1        3.734   3.570  -0.014  0.00  0.00    -0.292 N 
ATOM     10  H   LIG    1        4.568   4.066  -0.020  0.00  0.00    +0.255 HD
ATOM     11  H   LIG    1        3.748   2.600  -0.020  0.00  0.00    +0.255 HD
ENDBRANCH   5   9
ENDBRANCH   3   5
ENDBRANCH   2   3
ENDBRANCH   1   2
BRANCH   1  12
ATOM     12  C   LIG    1        0.002  -0.004   0.002  0.00  0.00    +0.040 C 
BRANCH  12  13
ATOM     13  C   LIG    1       -1.433  -0.534   0.013  0.00  0.00    +0.196 C 
BRANCH  13  14
ATOM     14  N   LIG    1       -1.413  -1.998   0.005  0.00  0.00    -0.279 N 
ATOM     15  H   LIG    1       -0.567  -2.472  -0.006  0.00  0.00    +0.258 HD
BRANCH  14  16
ATOM     16  C   LIG    1       -2.589  -2.699   0.012  0.00  0.00    +0.341 C 
ATOM     17  N   LIG    1       -2.571  -4.030   0.005  0.00  0.00    -0.292 N 
ATOM     18  H   LIG    1       -3.404  -4.527   0.010  0.00  0.00    +0.255 HD
ATOM     19  H   LIG    1       -1.724  -4.504  -0.006  0.00  0.00    +0.255 HD
BRANCH  16  20
ATOM     20  N   LIG    1       -3.751  -2.048   0.027  0.00  0.00    -0.292 N 
ATOM     21  H   LIG    1       -4.584  -2.545   0.032  0.00  0.00    +0.255 HD
ATOM     22  H   LIG    1       -3.764  -1.078   0.032  0.00  0.00    +0.255 HD
ENDBRANCH  16  20
ENDBRANCH  14  16
ENDBRANCH  13  14
ENDBRANCH  12  13
ENDBRANCH   1  12
TORSDOF 9
