REMARK  Name = ZINC01607791
REMARK                            x       y       z     vdW  Elec       q    Type
REMARK                         _______ _______ _______ _____ _____    ______ ____
ROOT
ATOM      1  C   LIG    1        1.266  -2.147  -0.022  0.00  0.00    +0.201 A 
ATOM      2  N   LIG    1        2.439  -2.770  -0.031  0.00  0.00    -0.219 NA
ATOM      3  C   LIG    1        2.473  -4.101  -0.038  0.00  0.00    +0.139 A 
ATOM      4  C   LIG    1        1.244  -4.806  -0.036  0.00  0.00    +0.157 A 
ATOM      5  N   LIG    1        0.106  -4.115  -0.027  0.00  0.00    -0.142 NA
ATOM      6  N   LIG    1        0.126  -2.828  -0.014  0.00  0.00    -0.127 NA
ENDROOT
BRANCH   1  11
ATOM      7  C   LIG    1       -0.017   1.380   0.010  0.00  0.00    +0.004 A 
ATOM      8  C   LIG    1        1.193   2.059   0.002  0.00  0.00    +0.020 A 
ATOM      9  C   LIG    1        2.375   1.339  -0.013  0.00  0.00    +0.111 A 
ATOM     10  N   LIG    1        2.364   0.022  -0.020  0.00  0.00    -0.252 NA
ATOM     11  C   LIG    1        1.229  -0.664  -0.013  0.00  0.00    +0.110 A 
ATOM     12  C   LIG    1        0.002  -0.004   0.002  0.00  0.00    +0.031 A 
ENDBRANCH   1  11
BRANCH   3  13
ATOM     13  C   LIG    1        3.757  -4.823  -0.049  0.00  0.00    +0.158 A 
ATOM     14  C   LIG    1        4.895  -4.422  -0.681  0.00  0.00    +0.053 A 
ATOM     15  C   LIG    1        5.868  -5.406  -0.427  0.00  0.00    +0.072 A 
ATOM     16  C   LIG    1        5.284  -6.351   0.338  0.00  0.00    +0.270 A 
ATOM     17  O   LIG    1        4.012  -5.993   0.570  0.00  0.00    -0.434 OA
BRANCH  16  18
ATOM     18  S   LIG    1        6.066  -7.811   0.941  0.00  0.00    +0.143 S 
ATOM     19  O   LIG    1        7.081  -8.180  -0.033  0.00  0.00    -0.139 OA
ATOM     20  O   LIG    1        5.031  -8.826   1.059  0.00  0.00    -0.139 OA
BRANCH  18  21
ATOM     21  O   LIG    1        6.648  -7.476   2.232  0.00  0.00    -0.247 OA
ATOM     22  H   LIG    1        5.942  -7.236   2.852  0.00  0.00    +0.245 HD
ENDBRANCH  18  21
ENDBRANCH  16  18
ENDBRANCH   3  13
BRANCH   4  23
ATOM     23  C   LIG    1        1.225  -6.279  -0.044  0.00  0.00    +0.160 A 
ATOM     24  C   LIG    1        0.312  -7.071   0.584  0.00  0.00    +0.054 A 
ATOM     25  C   LIG    1        0.674  -8.403   0.310  0.00  0.00    +0.072 A 
ATOM     26  C   LIG    1        1.779  -8.362  -0.464  0.00  0.00    +0.270 A 
ATOM     27  O   LIG    1        2.105  -7.078  -0.680  0.00  0.00    -0.434 OA
BRANCH  26  28
ATOM     28  S   LIG    1        2.646  -9.762  -1.091  0.00  0.00    +0.143 S 
ATOM     29  O   LIG    1        2.463 -10.838  -0.129  0.00  0.00    -0.139 OA
ATOM     30  O   LIG    1        4.042  -9.373  -1.214  0.00  0.00    -0.139 OA
BRANCH  28  31
ATOM     31  O   LIG    1        2.055 -10.081  -2.381  0.00  0.00    -0.247 OA
ATOM     32  H   LIG    1        2.196  -9.342  -2.993  0.00  0.00    +0.245 HD
ENDBRANCH  28  31
ENDBRANCH  26  28
ENDBRANCH   4  23
TORSDOF 7
