REMARK  Name = ZINC01657403
REMARK                            x       y       z     vdW  Elec       q    Type
REMARK                         _______ _______ _______ _____ _____    ______ ____
ROOT
ATOM      1  N   LIG    1        3.622  -0.651  -0.037  0.00  0.00    -0.233 N 
ATOM      2  C   LIG    1        3.750  -2.037   0.050  0.00  0.00    +0.053 A 
ATOM      3  C   LIG    1        2.798  -3.042   0.165  0.00  0.00    +0.024 A 
ATOM      4  C   LIG    1        3.190  -4.366   0.234  0.00  0.00    +0.002 A 
ATOM      5  C   LIG    1        4.531  -4.710   0.190  0.00  0.00    +0.001 A 
ATOM      6  C   LIG    1        5.493  -3.727   0.076  0.00  0.00    +0.014 A 
ATOM      7  C   LIG    1        5.109  -2.389   0.004  0.00  0.00    +0.049 A 
ATOM      8  C   LIG    1        5.866  -1.129  -0.118  0.00  0.00    +0.250 C 
ATOM      9  O   LIG    1        7.070  -0.993  -0.188  0.00  0.00    -0.282 OA
ATOM     10  C   LIG    1        4.822  -0.053  -0.142  0.00  0.00    +0.296 C 
ATOM     11  O   LIG    1        5.022   1.139  -0.238  0.00  0.00    -0.266 OA
ENDROOT
BRANCH   1  15
ATOM     12  C   LIG    1       -0.017   1.378   0.010  0.00  0.00    +0.000 A 
ATOM     13  C   LIG    1        0.754   1.370  -1.138  0.00  0.00    +0.002 A 
ATOM     14  C   LIG    1        1.960   0.699  -1.157  0.00  0.00    +0.024 A 
ATOM     15  C   LIG    1        2.400   0.031  -0.021  0.00  0.00    +0.042 A 
ATOM     16  C   LIG    1        1.623   0.041   1.131  0.00  0.00    +0.024 A 
ATOM     17  C   LIG    1        0.417   0.714   1.143  0.00  0.00    +0.002 A 
ENDBRANCH   1  15
TORSDOF 1
