REMARK  Name = ZINC01530886
REMARK                            x       y       z     vdW  Elec       q    Type
REMARK                         _______ _______ _______ _____ _____    ______ ____
ROOT
ATOM      1  C   LIG    1       -0.839  -2.966  -0.325  0.00  0.00    +0.111 A 
ATOM      2  N   LIG    1       -0.787  -3.815  -1.310  0.00  0.00    -0.232 NA
ATOM      3  C   LIG    1       -0.768  -5.081  -0.823  0.00  0.00    +0.092 A 
ATOM      4  C   LIG    1       -0.717  -6.343  -1.425  0.00  0.00    -0.022 A 
ATOM      5  C   LIG    1       -0.669  -6.459  -2.927  0.00  0.00    +0.046 C 
ATOM      6  C   LIG    1       -0.711  -7.468  -0.656  0.00  0.00    +0.017 A 
ATOM      7  C   LIG    1       -0.755  -7.374   0.741  0.00  0.00    +0.020 A 
ATOM      8  C   LIG    1       -0.807  -6.126   1.357  0.00  0.00    +0.039 A 
ATOM      9  C   LIG    1       -0.812  -4.980   0.579  0.00  0.00    +0.070 A 
ATOM     10  N   LIG    1       -0.851  -3.628   0.863  0.00  0.00    -0.323 N 
ENDROOT
BRANCH   7  11
ATOM     11  C   LIG    1       -0.749  -8.602   1.563  0.00  0.00    +0.142 A 
ATOM     12  N   LIG    1       -0.428  -8.658   2.833  0.00  0.00    -0.228 NA
ATOM     13  C   LIG    1       -0.530  -9.936   3.272  0.00  0.00    +0.090 A 
ATOM     14  C   LIG    1       -0.310 -10.546   4.512  0.00  0.00    +0.030 A 
ATOM     15  C   LIG    1       -0.501 -11.892   4.651  0.00  0.00    +0.002 A 
ATOM     16  C   LIG    1       -0.911 -12.664   3.574  0.00  0.00    +0.002 A 
ATOM     17  C   LIG    1       -1.133 -12.085   2.343  0.00  0.00    +0.028 A 
ATOM     18  C   LIG    1       -0.945 -10.719   2.181  0.00  0.00    +0.069 A 
ATOM     19  N   LIG    1       -1.082  -9.852   1.114  0.00  0.00    -0.327 N 
ATOM     20  C   LIG    1       -1.502 -10.205  -0.245  0.00  0.00    +0.151 C 
ENDBRANCH   7  11
BRANCH   1  21
ATOM     21  C   LIG    1       -0.874  -1.468  -0.478  0.00  0.00    +0.074 C 
BRANCH  21  23
ATOM     22  C   LIG    1        0.519   0.599  -0.650  0.00  0.00    +0.004 C 
ATOM     23  C   LIG    1        0.555  -0.923  -0.494  0.00  0.00    +0.004 C 
ENDBRANCH  21  23
ENDBRANCH   1  21
BRANCH  10  24
ATOM     24  C   LIG    1       -0.900  -3.021   2.195  0.00  0.00    +0.158 C 
BRANCH  24  25
ATOM     25  C   LIG    1       -2.336  -2.850   2.617  0.00  0.00    -0.028 A 
ATOM     26  C   LIG    1       -3.011  -1.683   2.307  0.00  0.00    +0.006 A 
ATOM     27  C   LIG    1       -4.327  -1.521   2.691  0.00  0.00    +0.009 A 
ATOM     28  C   LIG    1       -4.976  -2.537   3.392  0.00  0.00    -0.017 A 
ATOM     29  C   LIG    1       -4.290  -3.711   3.701  0.00  0.00    +0.009 A 
ATOM     30  C   LIG    1       -2.976  -3.864   3.308  0.00  0.00    +0.006 A 
BRANCH  28  31
ATOM     31  C   LIG    1       -6.388  -2.369   3.808  0.00  0.00    -0.004 A 
ATOM     32  C   LIG    1       -7.374  -2.123   2.856  0.00  0.00    +0.009 A 
ATOM     33  C   LIG    1       -8.688  -1.968   3.247  0.00  0.00    +0.001 A 
ATOM     34  C   LIG    1       -9.038  -2.054   4.585  0.00  0.00    +0.001 A 
ATOM     35  C   LIG    1       -8.077  -2.296   5.543  0.00  0.00    +0.015 A 
ATOM     36  C   LIG    1       -6.742  -2.462   5.167  0.00  0.00    +0.067 A 
BRANCH  36  37
ATOM     37  C   LIG    1       -5.712  -2.727   6.185  0.00  0.00    +0.337 C 
ATOM     38  O   LIG    1       -6.038  -2.934   7.346  0.00  0.00    -0.245 OA
BRANCH  37  39
ATOM     39  O   LIG    1       -4.530  -2.739   5.871  0.00  0.00    -0.477 OA
ATOM     40  H   LIG    1       -4.280  -2.580   4.982  0.00  0.00    +0.295 HD
ENDBRANCH  37  39
ENDBRANCH  36  37
ENDBRANCH  28  31
ENDBRANCH  24  25
ENDBRANCH  10  24
TORSDOF 8
