REMARK  Name = ZINC01561184
REMARK                            x       y       z     vdW  Elec       q    Type
REMARK                         _______ _______ _______ _____ _____    ______ ____
ROOT
ATOM      1  C   LIG    1       -0.018   1.465   0.010  0.00  0.00    +0.105 C 
ATOM      2  N   LIG    1        0.002  -0.004   0.002  0.00  0.00    -0.298 NA
ATOM      3  C   LIG    1       -1.355  -0.547  -0.078  0.00  0.00    +0.089 C 
ATOM      4  C   LIG    1       -1.324  -2.043  -0.339  0.00  0.00    +0.051 C 
ATOM      5  C   LIG    1       -0.212  -2.730   0.402  0.00  0.00    -0.037 A 
ATOM      6  C   LIG    1       -0.166  -4.118   0.370  0.00  0.00    +0.049 A 
ATOM      7  C   LIG    1        0.821  -4.811   1.051  0.00  0.00    +0.118 A 
ATOM      8  C   LIG    1        1.779  -4.114   1.769  0.00  0.00    +0.054 A 
ATOM      9  C   LIG    1        1.749  -2.726   1.787  0.00  0.00    -0.006 A 
ATOM     10  C   LIG    1        2.770  -1.964   2.546  0.00  0.00    +0.031 A 
ATOM     11  C   LIG    1        3.550  -2.591   3.517  0.00  0.00    +0.166 A 
ATOM     12  C   LIG    1        4.488  -1.849   4.227  0.00  0.00    +0.159 A 
ATOM     13  C   LIG    1        4.643  -0.497   3.966  0.00  0.00    +0.049 A 
ATOM     14  C   LIG    1        3.873   0.120   2.994  0.00  0.00    +0.008 A 
ATOM     15  C   LIG    1        2.945  -0.608   2.280  0.00  0.00    -0.034 A 
ATOM     16  C   LIG    1        2.119   0.052   1.209  0.00  0.00    +0.059 C 
ATOM     17  C   LIG    1        0.743  -2.032   1.109  0.00  0.00    -0.019 A 
ATOM     18  C   LIG    1        0.707  -0.528   1.181  0.00  0.00    +0.092 C 
ENDROOT
BRANCH   7  19
ATOM     19  O   LIG    1        0.850  -6.169   1.015  0.00  0.00    -0.507 OA
ATOM     20  H   LIG    1        1.374  -6.532   0.287  0.00  0.00    +0.292 HD
ENDBRANCH   7  19
BRANCH  11  21
ATOM     21  O   LIG    1        3.393  -3.917   3.769  0.00  0.00    -0.503 OA
ATOM     22  H   LIG    1        3.958  -4.489   3.232  0.00  0.00    +0.292 HD
ENDBRANCH  11  21
BRANCH  12  23
ATOM     23  O   LIG    1        5.253  -2.450   5.178  0.00  0.00    -0.503 OA
ATOM     24  H   LIG    1        6.085  -2.812   4.842  0.00  0.00    +0.292 HD
ENDBRANCH  12  23
TORSDOF 3
