REMARK  Name = ZINC01619832
REMARK                            x       y       z     vdW  Elec       q    Type
REMARK                         _______ _______ _______ _____ _____    ______ ____
ROOT
ATOM      1  N   LIG    1       -0.069   5.239   0.030  0.00  0.00    -0.333 N 
ATOM      2  C   LIG    1       -0.850   5.761  -1.099  0.00  0.00    +0.086 C 
ATOM      3  C   LIG    1       -0.913   7.288  -1.011  0.00  0.00    -0.060 C 
ATOM      4  N   LIG    1        0.464   7.824  -1.045  0.00  0.00    +0.382 N 
ATOM      5  H   LIG    1        0.919   7.518  -1.913  0.00  0.00    -0.082 HD
ATOM      6  C   LIG    1        1.233   7.311   0.108  0.00  0.00    -0.060 C 
ATOM      7  C   LIG    1        1.296   5.784   0.020  0.00  0.00    +0.086 C 
ENDROOT
BRANCH   1  12
ATOM      8  C   LIG    1        1.177   1.782   0.000  0.00  0.00    +0.002 A 
ATOM      9  C   LIG    1       -0.013   1.076   0.008  0.00  0.00    +0.012 A 
ATOM     10  C   LIG    1       -1.220   1.749   0.017  0.00  0.00    +0.057 A 
ATOM     11  C   LIG    1       -1.242   3.130   0.031  0.00  0.00    +0.035 A 
ATOM     12  C   LIG    1       -0.050   3.842   0.023  0.00  0.00    +0.030 A 
ATOM     13  C   LIG    1        1.161   3.163   0.008  0.00  0.00    +0.023 A 
BRANCH  10  14
ATOM     14  C   LIG    1       -2.513   0.976   0.019  0.00  0.00    +0.417 C 
ATOM     15  F   LIG    1       -3.257   1.309  -1.118  0.00  0.00    -0.166 F 
ATOM     16  F   LIG    1       -3.247   1.295   1.166  0.00  0.00    -0.166 F 
ATOM     17  F   LIG    1       -2.236  -0.396   0.010  0.00  0.00    -0.166 F 
ENDBRANCH  10  14
ENDBRANCH   1  12
BRANCH   4  18
ATOM     18  C   LIG    1        0.431   9.302  -1.014  0.00  0.00    -0.074 C 
BRANCH  18  19
ATOM     19  C   LIG    1       -0.584   9.803  -2.043  0.00  0.00    +0.016 C 
BRANCH  19  20
ATOM     20  C   LIG    1       -0.604  11.310  -2.035  0.00  0.00    -0.048 A 
ATOM     21  C   LIG    1       -1.475  11.984  -1.198  0.00  0.00    +0.005 A 
ATOM     22  C   LIG    1       -1.493  13.365  -1.184  0.00  0.00    +0.024 A 
ATOM     23  C   LIG    1       -0.643  14.077  -2.021  0.00  0.00    +0.038 A 
ATOM     24  C   LIG    1        0.227  13.398  -2.865  0.00  0.00    +0.034 A 
ATOM     25  I   LIG    1        1.510  14.466  -4.129  0.00  0.00    -0.042 I 
ATOM     26  C   LIG    1        0.243  12.016  -2.869  0.00  0.00    +0.019 A 
BRANCH  23  27
ATOM     27  N   LIG    1       -0.662  15.474  -2.013  0.00  0.00    -0.357 N 
ATOM     28  H   LIG    1       -1.270  15.948  -1.424  0.00  0.00    +0.142 HD
ATOM     29  H   LIG    1       -0.068  15.971  -2.598  0.00  0.00    +0.142 HD
ENDBRANCH  23  27
ENDBRANCH  19  20
ENDBRANCH  18  19
ENDBRANCH   4  18
TORSDOF 6
