REMARK  Name = ZINC01634583
REMARK                            x       y       z     vdW  Elec       q    Type
REMARK                         _______ _______ _______ _____ _____    ______ ____
ROOT
ATOM      1  C   LIG    1        1.367   5.846   0.020  0.00  0.00    +0.011 A 
ATOM      2  C   LIG    1        2.530   5.108   0.005  0.00  0.00    +0.047 A 
ATOM      3  C   LIG    1        2.478   3.721  -0.002  0.00  0.00    +0.131 A 
ATOM      4  C   LIG    1        1.238   3.064   0.007  0.00  0.00    +0.101 A 
ATOM      5  C   LIG    1        0.060   3.810   0.016  0.00  0.00    +0.026 A 
ATOM      6  C   LIG    1        0.124   5.202   0.029  0.00  0.00    -0.024 A 
ENDROOT
BRANCH   3   7
ATOM      7  O   LIG    1        3.627   3.000  -0.017  0.00  0.00    -0.506 OA
ATOM      8  H   LIG    1        3.952   2.796  -0.904  0.00  0.00    +0.292 HD
ENDBRANCH   3   7
BRANCH   4   9
ATOM      9  C   LIG    1        1.181   1.591  -0.001  0.00  0.00    +0.340 C 
ATOM     10  O   LIG    1        2.209   0.943  -0.014  0.00  0.00    -0.245 OA
BRANCH   9  11
ATOM     11  O   LIG    1       -0.011   0.963   0.007  0.00  0.00    -0.477 OA
ATOM     12  H   LIG    1       -0.804   1.462   0.018  0.00  0.00    +0.295 HD
ENDBRANCH   9  11
ENDBRANCH   4   9
BRANCH   6  13
ATOM     13  C   LIG    1       -1.117   5.997   0.045  0.00  0.00    +0.008 C 
ATOM     14  C   LIG    1       -1.056   7.338   0.050  0.00  0.00    +0.012 C 
BRANCH  14  15
ATOM     15  C   LIG    1       -2.297   8.132   0.066  0.00  0.00    +0.020 A 
ATOM     16  C   LIG    1       -3.539   7.493   0.075  0.00  0.00    +0.057 A 
ATOM     17  C   LIG    1       -4.700   8.245   0.090  0.00  0.00    +0.118 A 
ATOM     18  C   LIG    1       -4.633   9.633   0.096  0.00  0.00    +0.049 A 
ATOM     19  C   LIG    1       -3.407  10.272   0.087  0.00  0.00    +0.049 A 
ATOM     20  C   LIG    1       -2.237   9.532   0.077  0.00  0.00    +0.124 A 
BRANCH  17  21
ATOM     21  O   LIG    1       -5.910   7.625   0.100  0.00  0.00    -0.507 OA
ATOM     22  H   LIG    1       -6.251   7.442   0.986  0.00  0.00    +0.292 HD
ENDBRANCH  17  21
BRANCH  20  23
ATOM     23  O   LIG    1       -1.033  10.163   0.074  0.00  0.00    -0.506 OA
ATOM     24  H   LIG    1       -0.691  10.352  -0.811  0.00  0.00    +0.292 HD
ENDBRANCH  20  23
ENDBRANCH  14  15
ENDBRANCH   6  13
TORSDOF 7
