REMARK  Name = ZINC01554668
REMARK                            x       y       z     vdW  Elec       q    Type
REMARK                         _______ _______ _______ _____ _____    ______ ____
ROOT
ATOM      1  C   LIG    1       -0.283   1.468   0.048  0.00  0.00    +0.149 C 
ATOM      2  N   LIG    1       -0.333   0.004   0.047  0.00  0.00    -0.341 N 
ATOM      3  C   LIG    1       -0.571  -0.778  -1.067  0.00  0.00    +0.050 A 
ATOM      4  C   LIG    1       -0.814  -0.464  -2.401  0.00  0.00    +0.026 A 
ATOM      5  C   LIG    1       -1.022  -1.469  -3.319  0.00  0.00    +0.002 A 
ATOM      6  C   LIG    1       -0.993  -2.800  -2.928  0.00  0.00    +0.001 A 
ATOM      7  C   LIG    1       -0.755  -3.132  -1.613  0.00  0.00    +0.010 A 
ATOM      8  C   LIG    1       -0.542  -2.125  -0.672  0.00  0.00    +0.008 A 
ATOM      9  C   LIG    1       -0.267  -2.131   0.774  0.00  0.00    +0.022 A 
ATOM     10  C   LIG    1       -0.122  -3.167   1.724  0.00  0.00    +0.052 A 
ATOM     11  C   LIG    1       -0.193  -4.632   1.607  0.00  0.00    +0.245 C 
ATOM     12  N   LIG    1        0.015  -5.208   2.803  0.00  0.00    -0.307 N 
ATOM     13  H   LIG    1        0.016  -6.162   2.980  0.00  0.00    +0.149 HD
ATOM     14  C   LIG    1        0.257  -4.153   3.794  0.00  0.00    +0.141 C 
ATOM     15  O   LIG    1       -0.409  -5.236   0.574  0.00  0.00    -0.270 OA
ATOM     16  C   LIG    1        0.156  -2.845   3.048  0.00  0.00    -0.008 A 
ATOM     17  C   LIG    1        0.277  -1.517   3.439  0.00  0.00    +0.015 A 
ATOM     18  C   LIG    1        0.552  -0.866   4.734  0.00  0.00    +0.008 A 
ATOM     19  C   LIG    1        0.786  -1.350   6.019  0.00  0.00    +0.010 A 
ATOM     20  C   LIG    1        1.018  -0.467   7.051  0.00  0.00    +0.001 A 
ATOM     21  C   LIG    1        1.018   0.899   6.815  0.00  0.00    +0.002 A 
ATOM     22  C   LIG    1        0.787   1.392   5.548  0.00  0.00    +0.026 A 
ATOM     23  C   LIG    1        0.551   0.515   4.493  0.00  0.00    +0.050 A 
ATOM     24  N   LIG    1        0.296   0.723   3.150  0.00  0.00    -0.337 N 
ATOM     25  C   LIG    1        0.129  -0.484   2.501  0.00  0.00    +0.075 A 
ATOM     26  C   LIG    1       -0.143  -0.796   1.161  0.00  0.00    +0.075 A 
ENDROOT
BRANCH  24  27
ATOM     27  C   LIG    1        0.215   2.037   2.507  0.00  0.00    +0.137 C 
BRANCH  27  28
ATOM     28  C   LIG    1       -1.233   2.529   2.533  0.00  0.00    +0.140 C 
BRANCH  28  29
ATOM     29  C   LIG    1       -1.337   3.789   1.780  0.00  0.00    +0.064 C 
ATOM     30  N   LIG    1       -1.417   4.763   1.199  0.00  0.00    -0.197 NA
ENDBRANCH  28  29
ENDBRANCH  27  28
ENDBRANCH  24  27
TORSDOF 3
