REMARK  Name = ZINC01598047
REMARK                            x       y       z     vdW  Elec       q    Type
REMARK                         _______ _______ _______ _____ _____    ______ ____
ROOT
ATOM      1  C   LIG    1        0.801   1.100  -1.397  0.00  0.00    +0.045 C 
ATOM      2  C   LIG    1        0.785  -0.393  -1.188  0.00  0.00    -0.029 A 
ATOM      3  C   LIG    1        0.983  -1.241  -2.256  0.00  0.00    +0.050 A 
ATOM      4  C   LIG    1        0.964  -2.618  -2.078  0.00  0.00    +0.131 A 
ATOM      5  C   LIG    1        0.710  -3.164  -0.805  0.00  0.00    +0.099 A 
ATOM      6  C   LIG    1        0.499  -2.303   0.278  0.00  0.00    +0.157 A 
ATOM      7  O   LIG    1        0.181  -2.758   1.503  0.00  0.00    -0.450 OA
ATOM      8  C   LIG    1        0.978  -2.560   2.587  0.00  0.00    +0.185 A 
ATOM      9  C   LIG    1        1.201  -3.693   3.401  0.00  0.00    +0.108 A 
ATOM     10  C   LIG    1        1.968  -3.592   4.561  0.00  0.00    +0.064 A 
ATOM     11  C   LIG    1        2.512  -2.373   4.915  0.00  0.00    +0.127 A 
ATOM     12  C   LIG    1        2.300  -1.264   4.113  0.00  0.00    +0.037 A 
ATOM     13  C   LIG    1        2.901   0.061   4.507  0.00  0.00    +0.051 C 
ATOM     14  C   LIG    1        1.540  -1.351   2.946  0.00  0.00    +0.181 A 
ATOM     15  O   LIG    1        1.420  -0.197   2.237  0.00  0.00    -0.418 OA
ATOM     16  C   LIG    1        0.502  -0.044   1.273  0.00  0.00    +0.348 C 
ATOM     17  O   LIG    1       -0.372   0.794   1.373  0.00  0.00    -0.244 OA
ATOM     18  C   LIG    1        0.576  -0.916   0.089  0.00  0.00    +0.105 A 
ENDROOT
BRANCH   4  19
ATOM     19  O   LIG    1        1.191  -3.438  -3.132  0.00  0.00    -0.506 OA
ATOM     20  H   LIG    1        2.123  -3.665  -3.260  0.00  0.00    +0.292 HD
ENDBRANCH   4  19
BRANCH   5  21
ATOM     21  C   LIG    1        0.665  -4.615  -0.617  0.00  0.00    +0.266 C 
ATOM     22  O   LIG    1        0.756  -5.354  -1.575  0.00  0.00    -0.295 OA
ENDBRANCH   5  21
BRANCH   9  23
ATOM     23  C   LIG    1        0.620  -4.991   3.020  0.00  0.00    +0.341 C 
ATOM     24  O   LIG    1       -0.575  -5.077   2.774  0.00  0.00    -0.245 OA
BRANCH  23  25
ATOM     25  O   LIG    1        1.333  -5.983   2.949  0.00  0.00    -0.477 OA
ATOM     26  H   LIG    1        2.248  -5.916   3.137  0.00  0.00    +0.295 HD
ENDBRANCH  23  25
ENDBRANCH   9  23
BRANCH  11  27
ATOM     27  O   LIG    1        3.256  -2.261   6.048  0.00  0.00    -0.495 OA
ATOM     28  C   LIG    1        3.433  -3.446   6.827  0.00  0.00    +0.277 C 
ENDBRANCH  11  27
TORSDOF 5
