REMARK  Name = ZINC01535101
REMARK                            x       y       z     vdW  Elec       q    Type
REMARK                         _______ _______ _______ _____ _____    ______ ____
ROOT
ATOM      1  C   LIG    1       -1.412  -0.526   0.013  0.00  0.00    +0.057 A 
ATOM      2  C   LIG    1       -1.876  -1.335  -1.028  0.00  0.00    +0.022 A 
ATOM      3  C   LIG    1       -3.207  -1.797  -0.969  0.00  0.00    +0.083 A 
ATOM      4  N   LIG    1       -3.962  -1.445   0.068  0.00  0.00    -0.212 NA
ATOM      5  C   LIG    1       -3.476  -0.676   1.030  0.00  0.00    +0.238 A 
ATOM      6  N   LIG    1       -2.228  -0.228   1.009  0.00  0.00    -0.217 NA
ENDROOT
BRANCH   3   7
ATOM      7  C   LIG    1       -3.755  -2.657  -2.042  0.00  0.00    +0.001 A 
ATOM      8  C   LIG    1       -3.352  -2.469  -3.365  0.00  0.00    +0.013 A 
ATOM      9  C   LIG    1       -3.864  -3.273  -4.361  0.00  0.00    +0.039 A 
ATOM     10  C   LIG    1       -4.778  -4.267  -4.050  0.00  0.00    +0.123 A 
ATOM     11  F   LIG    1       -5.278  -5.052  -5.030  0.00  0.00    -0.205 F 
ATOM     12  C   LIG    1       -5.182  -4.459  -2.738  0.00  0.00    +0.039 A 
ATOM     13  C   LIG    1       -4.671  -3.663  -1.734  0.00  0.00    +0.013 A 
ENDBRANCH   3   7
BRANCH   1  15
ATOM     14  C   LIG    1       -0.019   1.526   0.010  0.00  0.00    +0.014 C 
ATOM     15  C   LIG    1        0.002  -0.004   0.002  0.00  0.00    +0.032 C 
ATOM     16  C   LIG    1        0.742  -0.511   1.242  0.00  0.00    +0.014 C 
ENDBRANCH   1  15
BRANCH   2  17
ATOM     17  C   LIG    1       -0.997  -1.696  -2.158  0.00  0.00    +0.010 C 
ATOM     18  C   LIG    1       -0.884  -2.965  -2.531  0.00  0.00    +0.005 C 
BRANCH  18  19
ATOM     19  C   LIG    1        0.013  -3.334  -3.684  0.00  0.00    +0.140 C 
BRANCH  19  20
ATOM     20  O   LIG    1        0.715  -2.172  -4.132  0.00  0.00    -0.388 OA
ATOM     21  H   LIG    1        1.273  -1.765  -3.455  0.00  0.00    +0.210 HD
ENDBRANCH  19  20
BRANCH  19  22
ATOM     22  C   LIG    1        1.019  -4.394  -3.229  0.00  0.00    +0.067 C 
BRANCH  22  23
ATOM     23  C   LIG    1        1.847  -4.859  -4.429  0.00  0.00    +0.128 C 
BRANCH  23  24
ATOM     24  O   LIG    1        2.637  -3.771  -4.913  0.00  0.00    -0.391 OA
ATOM     25  H   LIG    1        3.255  -3.413  -4.260  0.00  0.00    +0.210 HD
ENDBRANCH  23  24
BRANCH  23  26
ATOM     26  C   LIG    1        2.765  -6.005  -4.001  0.00  0.00    +0.151 C 
BRANCH  26  27
ATOM     27  C   LIG    1        3.490  -6.545  -5.207  0.00  0.00    +0.307 C 
ATOM     28  O   LIG    1        3.292  -6.057  -6.307  0.00  0.00    -0.251 OA
BRANCH  27  29
ATOM     29  O   LIG    1        4.276  -7.469  -5.083  0.00  0.00    -0.481 OA
ATOM     30  H   LIG    1        4.429  -7.843  -4.238  0.00  0.00    +0.295 HD
ENDBRANCH  27  29
ENDBRANCH  26  27
ENDBRANCH  23  26
ENDBRANCH  22  23
ENDBRANCH  19  22
ENDBRANCH  18  19
ENDBRANCH   2  17
BRANCH   5  31
ATOM     31  N   LIG    1       -4.293  -0.333   2.091  0.00  0.00    -0.178 N 
ATOM     32  C   LIG    1       -3.778   0.518   3.167  0.00  0.00    +0.160 C 
BRANCH  31  33
ATOM     33  S   LIG    1       -5.854  -0.882   2.146  0.00  0.00    +0.045 S 
ATOM     34  C   LIG    1       -5.762  -2.462   3.032  0.00  0.00    +0.219 C 
ATOM     35  O   LIG    1       -6.209  -1.104   0.787  0.00  0.00    -0.155 OA
ATOM     36  O   LIG    1       -6.550   0.078   2.929  0.00  0.00    -0.155 OA
ENDBRANCH  31  33
ENDBRANCH   5  31
TORSDOF 13
