REMARK  Name = ZINC01552535
REMARK                            x       y       z     vdW  Elec       q    Type
REMARK                         _______ _______ _______ _____ _____    ______ ____
ROOT
ATOM      1  C   LIG    1        1.187  -4.456  -0.043  0.00  0.00    +0.037 C 
ENDROOT
BRANCH   1   2
ATOM      2  C   LIG    1        0.010  -3.478  -0.025  0.00  0.00    +0.103 C 
BRANCH   2   3
ATOM      3  N   LIG    1       -1.248  -4.227  -0.019  0.00  0.00    -0.344 N 
ATOM      4  H   LIG    1       -1.235  -5.197  -0.025  0.00  0.00    +0.146 HD
BRANCH   3   7
ATOM      5  C   LIG    1       -4.862  -3.591   0.002  0.00  0.00    +0.017 A 
ATOM      6  C   LIG    1       -3.658  -4.261  -0.008  0.00  0.00    +0.024 A 
ATOM      7  C   LIG    1       -2.464  -3.548  -0.008  0.00  0.00    +0.027 A 
ATOM      8  C   LIG    1       -2.481  -2.156   0.007  0.00  0.00    +0.024 A 
ATOM      9  C   LIG    1       -3.682  -1.482   0.011  0.00  0.00    +0.017 A 
ATOM     10  C   LIG    1       -4.882  -2.195   0.012  0.00  0.00    +0.061 A 
BRANCH  10  11
ATOM     11  C   LIG    1       -6.172  -1.473   0.023  0.00  0.00    +0.266 C 
ATOM     12  N   LIG    1       -7.275  -2.209   0.022  0.00  0.00    -0.288 N 
ATOM     13  H   LIG    1       -7.208  -3.234   0.015  0.00  0.00    +0.301 HD
ATOM     14  H   LIG    1       -8.189  -1.757   0.029  0.00  0.00    +0.301 HD
BRANCH  11  15
ATOM     15  N   LIG    1       -6.191  -0.095   0.032  0.00  0.00    -0.250 N 
ATOM     16  H   LIG    1       -7.038   0.378   0.039  0.00  0.00    +0.288 HD
ATOM     17  H   LIG    1       -5.358   0.401   0.032  0.00  0.00    +0.288 HD
ENDBRANCH  11  15
ENDBRANCH  10  11
ENDBRANCH   3   7
ENDBRANCH   2   3
ENDBRANCH   1   2
BRANCH   1  18
ATOM     18  C   LIG    1        2.501  -3.673  -0.050  0.00  0.00    +0.103 C 
BRANCH  18  19
ATOM     19  N   LIG    1        3.627  -4.609  -0.067  0.00  0.00    -0.344 N 
ATOM     20  H   LIG    1        3.463  -5.565  -0.072  0.00  0.00    +0.146 HD
BRANCH  19  21
ATOM     21  C   LIG    1        4.934  -4.127  -0.076  0.00  0.00    +0.027 A 
ATOM     22  C   LIG    1        5.168  -2.756  -0.075  0.00  0.00    +0.024 A 
ATOM     23  C   LIG    1        6.459  -2.276  -0.078  0.00  0.00    +0.017 A 
ATOM     24  C   LIG    1        7.533  -3.168  -0.094  0.00  0.00    +0.061 A 
ATOM     25  C   LIG    1        7.295  -4.544  -0.101  0.00  0.00    +0.017 A 
ATOM     26  C   LIG    1        6.002  -5.018  -0.092  0.00  0.00    +0.024 A 
BRANCH  24  27
ATOM     27  C   LIG    1        8.920  -2.656  -0.103  0.00  0.00    +0.266 C 
ATOM     28  N   LIG    1        9.895  -3.555  -0.118  0.00  0.00    -0.288 N 
ATOM     29  H   LIG    1        9.669  -4.556  -0.122  0.00  0.00    +0.301 HD
ATOM     30  H   LIG    1       10.868  -3.251  -0.124  0.00  0.00    +0.301 HD
BRANCH  27  31
ATOM     31  N   LIG    1        9.154  -1.298  -0.096  0.00  0.00    -0.250 N 
ATOM     32  H   LIG    1       10.064  -0.962  -0.102  0.00  0.00    +0.288 HD
ATOM     33  H   LIG    1        8.408  -0.678  -0.085  0.00  0.00    +0.288 HD
ENDBRANCH  27  31
ENDBRANCH  24  27
ENDBRANCH  19  21
ENDBRANCH  18  19
ENDBRANCH   1  18
TORSDOF 10
