REMARK  Name = ZINC01433065
REMARK                            x       y       z     vdW  Elec       q    Type
REMARK                         _______ _______ _______ _____ _____    ______ ____
ROOT
ATOM      1  C   LIG    1        0.168   1.934   1.936  0.00  0.00    +0.237 C 
ATOM      2  N   LIG    1        1.425   2.317   1.958  0.00  0.00    -0.292 N 
ATOM      3  H   LIG    1        1.950   2.407   1.080  0.00  0.00    +0.301 HD
ATOM      4  H   LIG    1        1.880   2.526   2.847  0.00  0.00    +0.301 HD
ENDROOT
BRANCH   1   8
ATOM      5  C   LIG    1       -1.067   2.628  -1.534  0.00  0.00    +0.001 C 
ATOM      6  C   LIG    1        0.262   1.883  -1.773  0.00  0.00    +0.001 C 
ATOM      7  C   LIG    1        0.663   1.256  -0.425  0.00  0.00    +0.015 C 
ATOM      8  C   LIG    1       -0.436   1.643   0.586  0.00  0.00    +0.100 C 
ATOM      9  C   LIG    1       -1.069   2.925  -0.014  0.00  0.00    +0.015 C 
ENDBRANCH   1   8
BRANCH   1  10
ATOM     10  N   LIG    1       -0.589   1.794   3.069  0.00  0.00    -0.254 N 
ATOM     11  H   LIG    1       -0.200   1.981   3.938  0.00  0.00    +0.288 HD
ATOM     12  H   LIG    1       -1.513   1.508   3.003  0.00  0.00    +0.288 HD
ENDBRANCH   1  10
TORSDOF 2
