REMARK  Name = ZINC01645882
REMARK                            x       y       z     vdW  Elec       q    Type
REMARK                         _______ _______ _______ _____ _____    ______ ____
ROOT
ATOM      1  C   LIG    1       -2.681   8.288  -0.663  0.00  0.00    +0.037 C 
ENDROOT
BRANCH   1   2
ATOM      2  C   LIG    1       -1.242   7.784  -0.532  0.00  0.00    +0.106 C 
BRANCH   2   4
ATOM      3  C   LIG    1       -0.070   5.649  -0.437  0.00  0.00    +0.254 C 
ATOM      4  N   LIG    1       -1.235   6.319  -0.541  0.00  0.00    -0.311 N 
ATOM      5  H   LIG    1       -2.069   5.830  -0.622  0.00  0.00    +0.149 HD
ATOM      6  O   LIG    1        0.976   6.262  -0.335  0.00  0.00    -0.269 OA
BRANCH   3   8
ATOM      7  C   LIG    1        1.128   3.494  -0.339  0.00  0.00    +0.032 C 
ATOM      8  C   LIG    1       -0.063   4.178  -0.446  0.00  0.00    +0.114 C 
BRANCH   7  10
ATOM      9  C   LIG    1        2.117   1.275   0.180  0.00  0.00    +0.012 A 
ATOM     10  C   LIG    1        1.153   2.038  -0.494  0.00  0.00    -0.020 A 
ATOM     11  C   LIG    1        0.212   1.402  -1.317  0.00  0.00    +0.057 A 
ATOM     12  C   LIG    1        0.241   0.030  -1.458  0.00  0.00    +0.159 A 
ATOM     13  C   LIG    1        1.204  -0.722  -0.784  0.00  0.00    +0.158 A 
ATOM     14  C   LIG    1        2.137  -0.093   0.032  0.00  0.00    +0.050 A 
BRANCH  12  15
ATOM     15  O   LIG    1       -0.670  -0.590  -2.255  0.00  0.00    -0.503 OA
ATOM     16  H   LIG    1       -0.387  -0.687  -3.175  0.00  0.00    +0.292 HD
ENDBRANCH  12  15
BRANCH  13  17
ATOM     17  O   LIG    1        1.230  -2.071  -0.925  0.00  0.00    -0.503 OA
ATOM     18  H   LIG    1        1.784  -2.380  -1.655  0.00  0.00    +0.292 HD
ENDBRANCH  13  17
ENDBRANCH   7  10
BRANCH   8  19
ATOM     19  C   LIG    1       -1.295   3.457  -0.565  0.00  0.00    +0.104 C 
ATOM     20  N   LIG    1       -2.271   2.885  -0.660  0.00  0.00    -0.191 NA
ENDBRANCH   8  19
ENDBRANCH   3   8
ENDBRANCH   2   4
ENDBRANCH   1   2
BRANCH   1  21
ATOM     21  C   LIG    1       -2.688   9.818  -0.654  0.00  0.00    +0.106 C 
BRANCH  21  22
ATOM     22  N   LIG    1       -4.065  10.300  -0.780  0.00  0.00    -0.311 N 
ATOM     23  H   LIG    1       -4.796   9.667  -0.852  0.00  0.00    +0.149 HD
ATOM     24  C   LIG    1       -4.317  11.624  -0.795  0.00  0.00    +0.254 C 
ATOM     25  O   LIG    1       -3.400  12.418  -0.704  0.00  0.00    -0.269 OA
BRANCH  24  26
ATOM     26  C   LIG    1       -5.700  12.109  -0.920  0.00  0.00    +0.114 C 
ATOM     27  C   LIG    1       -5.957  13.463  -0.936  0.00  0.00    +0.032 C 
BRANCH  27  28
ATOM     28  C   LIG    1       -7.339  13.946  -0.907  0.00  0.00    -0.020 A 
ATOM     29  C   LIG    1       -8.335  13.191  -0.270  0.00  0.00    +0.057 A 
ATOM     30  C   LIG    1       -9.635  13.653  -0.247  0.00  0.00    +0.159 A 
ATOM     31  C   LIG    1       -9.957  14.867  -0.856  0.00  0.00    +0.158 A 
ATOM     32  C   LIG    1       -8.971  15.615  -1.488  0.00  0.00    +0.050 A 
ATOM     33  C   LIG    1       -7.670  15.167  -1.512  0.00  0.00    +0.012 A 
BRANCH  30  34
ATOM     34  O   LIG    1      -10.604  12.924   0.369  0.00  0.00    -0.503 OA
ATOM     35  H   LIG    1      -10.721  13.136   1.305  0.00  0.00    +0.292 HD
ENDBRANCH  30  34
BRANCH  31  36
ATOM     36  O   LIG    1      -11.237  15.317  -0.832  0.00  0.00    -0.503 OA
ATOM     37  H   LIG    1      -11.445  15.871  -0.067  0.00  0.00    +0.292 HD
ENDBRANCH  31  36
ENDBRANCH  27  28
BRANCH  26  38
ATOM     38  C   LIG    1       -6.779  11.174  -1.027  0.00  0.00    +0.104 C 
ATOM     39  N   LIG    1       -7.636  10.432  -1.112  0.00  0.00    -0.191 NA
ENDBRANCH  26  38
ENDBRANCH  24  26
ENDBRANCH  21  22
ENDBRANCH   1  21
TORSDOF 14
