REMARK  Name = ZINC01549366
REMARK                            x       y       z     vdW  Elec       q    Type
REMARK                         _______ _______ _______ _____ _____    ______ ____
ROOT
ATOM      1  C   LIG    1        2.088  -1.338   2.096  0.00  0.00    +0.049 A 
ATOM      2  C   LIG    1        2.719  -1.208   3.299  0.00  0.00    +0.015 A 
ATOM      3  C   LIG    1        3.376  -0.013   3.612  0.00  0.00    +0.021 A 
ATOM      4  C   LIG    1        3.385   1.049   2.691  0.00  0.00    +0.143 A 
ATOM      5  O   LIG    1        4.022   2.197   3.003  0.00  0.00    -0.422 OA
ATOM      6  C   LIG    1        4.646   2.349   4.179  0.00  0.00    +0.341 A 
ATOM      7  C   LIG    1        4.670   1.323   5.158  0.00  0.00    +0.041 A 
ATOM      8  C   LIG    1        5.361   1.617   6.462  0.00  0.00    +0.042 C 
ATOM      9  C   LIG    1        6.353   0.508   6.819  0.00  0.00    +0.005 C 
ATOM     10  C   LIG    1        5.629  -0.501   7.707  0.00  0.00    +0.001 C 
ATOM     11  C   LIG    1        4.155  -0.575   7.300  0.00  0.00    +0.005 C 
ATOM     12  C   LIG    1        4.080  -1.029   5.842  0.00  0.00    +0.036 C 
ATOM     13  O   LIG    1        5.210   3.402   4.415  0.00  0.00    -0.245 OA
ATOM     14  C   LIG    1        2.744   0.899   1.471  0.00  0.00    +0.095 A 
ATOM     15  C   LIG    1        4.069   0.146   4.900  0.00  0.00    -0.027 A 
ATOM     16  C   LIG    1        2.094  -0.289   1.178  0.00  0.00    +0.161 A 
ENDROOT
BRANCH  16  17
ATOM     17  O   LIG    1        1.462  -0.434  -0.014  0.00  0.00    -0.334 OA
BRANCH  17  18
ATOM     18  S   LIG    1        0.002  -0.004   0.002  0.00  0.00    +0.189 S 
ATOM     19  O   LIG    1       -0.555  -0.411  -1.240  0.00  0.00    -0.119 OA
ATOM     20  O   LIG    1       -0.531  -0.424   1.250  0.00  0.00    -0.119 OA
BRANCH  18  21
ATOM     21  N   LIG    1       -0.020   1.652   0.011  0.00  0.00    -0.174 NA
ATOM     22  H   LIG    1       -0.867   2.125   0.018  0.00  0.00    +0.147 HD
ATOM     23  H   LIG    1        0.813   2.148   0.006  0.00  0.00    +0.147 HD
ENDBRANCH  18  21
ENDBRANCH  17  18
ENDBRANCH  16  17
TORSDOF 3
