REMARK  Name = ZINC01537633
REMARK                            x       y       z     vdW  Elec       q    Type
REMARK                         _______ _______ _______ _____ _____    ______ ____
ROOT
ATOM      1  N   LIG    1        2.220  -2.389   1.136  0.00  0.00    -0.311 N 
ATOM      2  H   LIG    1        2.051  -1.942   1.980  0.00  0.00    +0.149 HD
ATOM      3  C   LIG    1        1.961  -1.757  -0.026  0.00  0.00    +0.250 C 
ATOM      4  O   LIG    1        2.173  -2.319  -1.085  0.00  0.00    -0.270 OA
ENDROOT
BRANCH   3   5
ATOM      5  C   LIG    1        1.425  -0.396  -0.014  0.00  0.00    +0.105 A 
ATOM      6  C   LIG    1        0.002  -0.004   0.002  0.00  0.00    +0.016 A 
ATOM      7  C   LIG    1       -1.192  -0.720   0.009  0.00  0.00    +0.011 A 
ATOM      8  C   LIG    1       -2.393  -0.045   0.023  0.00  0.00    +0.001 A 
ATOM      9  C   LIG    1       -2.415   1.342   0.031  0.00  0.00    +0.002 A 
ATOM     10  C   LIG    1       -1.240   2.062   0.020  0.00  0.00    +0.026 A 
ATOM     11  C   LIG    1       -0.017   1.400   0.010  0.00  0.00    +0.053 A 
ATOM     12  N   LIG    1        1.292   1.841  -0.000  0.00  0.00    -0.311 N 
ATOM     13  C   LIG    1        1.744   3.242   0.006  0.00  0.00    +0.128 C 
ATOM     14  C   LIG    1        3.220   3.264   0.421  0.00  0.00    +0.063 C 
ATOM     15  C   LIG    1        3.986   2.208  -0.384  0.00  0.00    +0.232 C 
ATOM     16  O   LIG    1        3.500   0.905  -0.033  0.00  0.00    -0.477 OA
ATOM     17  C   LIG    1        2.150   0.779  -0.017  0.00  0.00    +0.209 A 
ENDBRANCH   3   5
BRANCH   1  18
ATOM     18  C   LIG    1        2.756  -3.752   1.124  0.00  0.00    +0.108 C 
BRANCH  18  23
ATOM     19  N   LIG    1        4.726  -5.318   4.577  0.00  0.00    +0.380 N 
ATOM     20  H   LIG    1        5.558  -5.371   3.977  0.00  0.00    -0.082 HD
ATOM     21  C   LIG    1        4.280  -3.911   4.656  0.00  0.00    -0.079 C 
ATOM     22  C   LIG    1        4.040  -3.386   3.238  0.00  0.00    -0.014 C 
ATOM     23  C   LIG    1        2.958  -4.233   2.562  0.00  0.00    +0.003 C 
ATOM     24  C   LIG    1        3.400  -5.699   2.554  0.00  0.00    -0.014 C 
ATOM     25  C   LIG    1        3.659  -6.157   3.992  0.00  0.00    -0.079 C 
BRANCH  19  26
ATOM     26  C   LIG    1        5.075  -5.813   5.925  0.00  0.00    -0.079 C 
BRANCH  26  27
ATOM     27  C   LIG    1        5.970  -4.785   6.620  0.00  0.00    -0.019 C 
BRANCH  27  29
ATOM     28  C   LIG    1        7.253  -4.275   8.702  0.00  0.00    +0.004 C 
ATOM     29  C   LIG    1        6.358  -5.302   8.007  0.00  0.00    -0.005 C 
ENDBRANCH  27  29
ENDBRANCH  26  27
ENDBRANCH  19  26
ENDBRANCH  18  23
ENDBRANCH   1  18
TORSDOF 6
