REMARK  Name = ZINC01494627
REMARK                            x       y       z     vdW  Elec       q    Type
REMARK                         _______ _______ _______ _____ _____    ______ ____
ROOT
ATOM      1  N   LIG    1       -2.749  -2.053  -1.159  0.00  0.00    +0.384 N 
ATOM      2  H   LIG    1       -2.583  -2.970  -0.729  0.00  0.00    -0.081 HD
ENDROOT
BRANCH   1   3
ATOM      3  C   LIG    1       -1.574  -1.189  -0.919  0.00  0.00    -0.074 C 
BRANCH   3   4
ATOM      4  C   LIG    1       -1.251  -1.200   0.576  0.00  0.00    +0.019 C 
BRANCH   4  10
ATOM      5  C   LIG    1       -0.677   3.396   1.293  0.00  0.00    +0.001 A 
ATOM      6  C   LIG    1        0.650   3.751   1.494  0.00  0.00    +0.002 A 
ATOM      7  C   LIG    1        1.643   2.797   1.471  0.00  0.00    +0.026 A 
ATOM      8  C   LIG    1        1.315   1.464   1.245  0.00  0.00    +0.047 A 
ATOM      9  C   LIG    1       -0.031   1.110   1.042  0.00  0.00    +0.003 A 
ATOM     10  C   LIG    1       -0.041  -0.341   0.835  0.00  0.00    -0.024 A 
ATOM     11  C   LIG    1        1.232  -0.758   0.921  0.00  0.00    +0.087 A 
ATOM     12  N   LIG    1        2.056   0.306   1.165  0.00  0.00    -0.360 N 
ATOM     13  H   LIG    1        3.019   0.253   1.267  0.00  0.00    +0.165 HD
ATOM     14  C   LIG    1       -1.022   2.093   1.073  0.00  0.00    +0.010 A 
ENDBRANCH   4  10
ENDBRANCH   3   4
ENDBRANCH   1   3
BRANCH   1  15
ATOM     15  C   LIG    1       -2.954  -2.234  -2.612  0.00  0.00    -0.043 C 
BRANCH  15  16
ATOM     16  C   LIG    1       -1.958  -3.245  -3.118  0.00  0.00    -0.064 A 
ATOM     17  C   LIG    1       -0.779  -2.817  -3.703  0.00  0.00    +0.002 A 
ATOM     18  C   LIG    1        0.140  -3.735  -4.163  0.00  0.00    +0.008 A 
ATOM     19  C   LIG    1       -0.126  -5.103  -4.048  0.00  0.00    -0.025 A 
ATOM     20  C   LIG    1       -1.322  -5.528  -3.461  0.00  0.00    +0.008 A 
ATOM     21  C   LIG    1       -2.229  -4.597  -3.001  0.00  0.00    +0.002 A 
BRANCH  19  22
ATOM     22  C   LIG    1        0.847  -6.091  -4.543  0.00  0.00    +0.013 C 
ATOM     23  C   LIG    1        1.999  -5.677  -5.108  0.00  0.00    +0.070 C 
BRANCH  23  24
ATOM     24  C   LIG    1        2.967  -6.659  -5.600  0.00  0.00    +0.259 C 
ATOM     25  N   LIG    1        4.119  -6.245  -6.165  0.00  0.00    -0.194 N 
ATOM     26  H   LIG    1        4.306  -5.297  -6.246  0.00  0.00    +0.183 HD
ATOM     27  O   LIG    1        2.732  -7.849  -5.499  0.00  0.00    -0.269 OA
BRANCH  25  28
ATOM     28  O   LIG    1        5.055  -7.195  -6.641  0.00  0.00    -0.295 OA
ATOM     29  H   LIG    1        5.849  -6.804  -7.030  0.00  0.00    +0.241 HD
ENDBRANCH  25  28
ENDBRANCH  23  24
ENDBRANCH  19  22
ENDBRANCH  15  16
ENDBRANCH   1  15
BRANCH   1  30
ATOM     30  C   LIG    1       -3.953  -1.449  -0.551  0.00  0.00    -0.050 C 
BRANCH  30  31
ATOM     31  C   LIG    1       -5.051  -2.512  -0.475  0.00  0.00    +0.137 C 
BRANCH  31  32
ATOM     32  O   LIG    1       -4.628  -3.573   0.384  0.00  0.00    -0.397 OA
ATOM     33  H   LIG    1       -5.277  -4.284   0.480  0.00  0.00    +0.209 HD
ENDBRANCH  31  32
ENDBRANCH  30  31
ENDBRANCH   1  30
TORSDOF 11
