REMARK  Name = ZINC01530611
REMARK                            x       y       z     vdW  Elec       q    Type
REMARK                         _______ _______ _______ _____ _____    ______ ____
ROOT
ATOM      1  N   LIG    1       -2.768  -4.032   0.127  0.00  0.00    -0.300 N 
ATOM      2  C   LIG    1       -2.691  -4.842  -1.011  0.00  0.00    +0.037 A 
ATOM      3  C   LIG    1       -1.622  -4.647  -1.879  0.00  0.00    +0.024 A 
ATOM      4  C   LIG    1       -1.474  -5.440  -2.997  0.00  0.00    +0.002 A 
ATOM      5  C   LIG    1       -2.400  -6.436  -3.244  0.00  0.00    +0.000 A 
ATOM      6  C   LIG    1       -3.466  -6.620  -2.394  0.00  0.00    +0.005 A 
ATOM      7  C   LIG    1       -3.646  -5.816  -1.266  0.00  0.00    -0.026 A 
ATOM      8  C   LIG    1       -4.912  -6.091  -0.488  0.00  0.00    +0.042 C 
ATOM      9  C   LIG    1       -5.114  -5.147   0.684  0.00  0.00    +0.042 C 
ATOM     10  C   LIG    1       -4.002  -5.280   1.695  0.00  0.00    -0.026 A 
ATOM     11  C   LIG    1       -4.145  -5.969   2.876  0.00  0.00    +0.005 A 
ATOM     12  C   LIG    1       -3.060  -6.006   3.761  0.00  0.00    +0.000 A 
ATOM     13  C   LIG    1       -1.877  -5.360   3.450  0.00  0.00    +0.002 A 
ATOM     14  C   LIG    1       -1.744  -4.679   2.251  0.00  0.00    +0.024 A 
ATOM     15  C   LIG    1       -2.817  -4.660   1.376  0.00  0.00    +0.037 A 
ENDROOT
BRANCH   1  16
ATOM     16  C   LIG    1       -2.791  -2.572   0.015  0.00  0.00    +0.109 C 
BRANCH  16  17
ATOM     17  C   LIG    1       -4.241  -2.085  -0.015  0.00  0.00    +0.000 C 
BRANCH  17  18
ATOM     18  C   LIG    1       -4.265  -0.566  -0.191  0.00  0.00    -0.081 C 
BRANCH  18  20
ATOM     19  C   LIG    1       -5.681   1.361  -0.390  0.00  0.00    -0.101 C 
ATOM     20  N   LIG    1       -5.658  -0.098  -0.221  0.00  0.00    +0.377 N 
ATOM     21  H   LIG    1       -6.143  -0.534  -0.991  0.00  0.00    -0.086 HD
ATOM     22  H   LIG    1       -6.113  -0.344   0.646  0.00  0.00    -0.086 HD
ENDBRANCH  18  20
ENDBRANCH  17  18
ENDBRANCH  16  17
ENDBRANCH   1  16
TORSDOF 4
