REMARK  Name = ZINC01540998
REMARK                            x       y       z     vdW  Elec       q    Type
REMARK                         _______ _______ _______ _____ _____    ______ ____
ROOT
ATOM      1  C   UNK A  0       -0.017   1.379   0.010  0.00  0.00    +0.004 A 
ATOM      2  C   UNK A  0        1.167   2.088   0.002  0.00  0.00    +0.013 A 
ATOM      3  C   UNK A  0        2.385   1.407  -0.013  0.00  0.00    +0.037 A 
ATOM      4  C   UNK A  0        2.397   0.011  -0.021  0.00  0.00    +0.013 A 
ATOM      5  C   UNK A  0        1.206  -0.686  -0.013  0.00  0.00    +0.004 A 
ATOM      6  C   UNK A  0        0.002  -0.004   0.002  0.00  0.00    -0.047 A 
ENDROOT
BRANCH   3   7
ATOM      7  C   UNK A  0        3.657   2.160  -0.022  0.00  0.00    +0.245 C 
ATOM      8  N   GLU A  1        4.831   1.499  -0.037  0.00  0.00    -0.298 N 
ATOM      9  H   GLU A  1        4.842   0.529  -0.042  0.00  0.00    +0.150 HD
ATOM     10  O   UNK A  0        3.643   3.376  -0.015  0.00  0.00    -0.270 OA
BRANCH   8  11
ATOM     11  CA  GLU A  1        6.092   2.246  -0.045  0.00  0.00    +0.182 C 
BRANCH  11  12
ATOM     12  C   GLU A  1        6.447   2.615  -1.462  0.00  0.00    +0.325 C 
ATOM     13  O   GLU A  1        5.715   2.286  -2.380  0.00  0.00    -0.249 OA
BRANCH  12  14
ATOM     14  OXT GLU A  1        7.467   3.244  -1.691  0.00  0.00    -0.479 OA
ATOM     15  HXT GLU A  1        8.029   3.497  -0.986  0.00  0.00    +0.295 HD
ENDBRANCH  12  14
ENDBRANCH  11  12
BRANCH  11  16
ATOM     16  CB  GLU A  1        7.203   1.378   0.549  0.00  0.00    +0.045 C 
BRANCH  16  17
ATOM     17  CG  GLU A  1        6.903   1.106   2.025  0.00  0.00    +0.123 C 
BRANCH  17  18
ATOM     18  CD  GLU A  1        7.997   0.251   2.611  0.00  0.00    +0.305 C 
ATOM     19  OE1 GLU A  1        8.930  -0.108   1.912  0.00  0.00    -0.251 OA
BRANCH  18  20
ATOM     20  OE2 GLU A  1        7.950  -0.082   3.782  0.00  0.00    -0.481 OA
ATOM     21  HE2 GLU A  1        7.233   0.194   4.319  0.00  0.00    +0.295 HD
ENDBRANCH  18  20
ENDBRANCH  17  18
ENDBRANCH  16  17
ENDBRANCH  11  16
ENDBRANCH   8  11
ENDBRANCH   3   7
BRANCH   6  22
ATOM     22  C   UNK A  0       -1.295  -0.772   0.010  0.00  0.00    +0.040 C 
BRANCH  22  23
ATOM     23  C   UNK A  0       -1.747  -1.024  -1.429  0.00  0.00    +0.042 C 
BRANCH  23  24
ATOM     24  C   UNK A  0       -3.044  -1.792  -1.421  0.00  0.00    -0.015 A 
ATOM     25  C   UNK A  0       -3.187  -3.124  -1.515  0.00  0.00    +0.089 A 
ATOM     26  N   UNK A  0       -4.520  -3.449  -1.471  0.00  0.00    -0.345 N 
ATOM     27  C   UNK A  0       -5.274  -2.319  -1.347  0.00  0.00    +0.147 A 
ATOM     28  N   UNK A  0       -6.593  -2.092  -1.262  0.00  0.00    -0.198 NA
ATOM     29  C   UNK A  0       -7.066  -0.874  -1.131  0.00  0.00    +0.195 A 
ATOM     30  N   UNK A  0       -6.253   0.220  -1.086  0.00  0.00    -0.295 N 
ATOM     31  H   UNK A  0       -6.638   1.105  -0.994  0.00  0.00    +0.172 HD
ATOM     32  C   UNK A  0       -4.911   0.073  -1.170  0.00  0.00    +0.262 A 
ATOM     33  O   UNK A  0       -4.173   1.042  -1.132  0.00  0.00    -0.267 OA
ATOM     34  H   UNK A  0       -4.874  -4.351  -1.521  0.00  0.00    +0.167 HD
ATOM     35  C   UNK A  0       -4.389  -1.232  -1.303  0.00  0.00    +0.086 A 
BRANCH  29  36
ATOM     36  N   UNK A  0       -8.424  -0.695  -1.043  0.00  0.00    -0.329 N 
ATOM     37  H   UNK A  0       -9.017  -1.462  -1.073  0.00  0.00    +0.145 HD
ATOM     38  H   UNK A  0       -8.791   0.198  -0.952  0.00  0.00    +0.145 HD
ENDBRANCH  29  36
ENDBRANCH  23  24
ENDBRANCH  22  23
ENDBRANCH   6  22
TORSDOF 12
