REMARK  Name = ZINC01433321
REMARK                            x       y       z     vdW  Elec       q    Type
REMARK                         _______ _______ _______ _____ _____    ______ ____
ROOT
ATOM      1  C   LIG    1       -0.016   1.355   0.009  0.00  0.00    +0.002 A 
ATOM      2  C   LIG    1        1.155   2.101   0.002  0.00  0.00    +0.001 A 
ATOM      3  C   LIG    1        2.373   1.448  -0.013  0.00  0.00    +0.017 A 
ATOM      4  C   LIG    1        2.404   0.075  -0.020  0.00  0.00    +0.040 A 
ATOM      5  C   LIG    1        1.228  -0.713  -0.013  0.00  0.00    +0.079 A 
ATOM      6  N   LIG    1        1.416  -2.041  -0.023  0.00  0.00    -0.239 NA
ATOM      7  C   LIG    1        2.612  -2.588  -0.037  0.00  0.00    +0.109 A 
ATOM      8  S   LIG    1        3.683  -1.157  -0.040  0.00  0.00    -0.067 S 
ATOM      9  C   LIG    1        0.002  -0.004   0.002  0.00  0.00    +0.029 A 
ENDROOT
BRANCH   7  10
ATOM     10  C   LIG    1        2.977  -4.021  -0.049  0.00  0.00    +0.007 A 
ATOM     11  C   LIG    1        1.977  -4.996  -0.051  0.00  0.00    +0.012 A 
ATOM     12  C   LIG    1        2.316  -6.330  -0.062  0.00  0.00    +0.019 A 
ATOM     13  C   LIG    1        3.662  -6.708  -0.072  0.00  0.00    +0.052 A 
ATOM     14  C   LIG    1        4.662  -5.732  -0.070  0.00  0.00    +0.019 A 
ATOM     15  C   LIG    1        4.322  -4.398  -0.064  0.00  0.00    +0.012 A 
BRANCH  13  16
ATOM     16  C   LIG    1        4.015  -8.096  -0.083  0.00  0.00    +0.099 C 
ATOM     17  N   LIG    1        4.296  -9.197  -0.092  0.00  0.00    -0.191 NA
ENDBRANCH  13  16
ENDBRANCH   7  10
TORSDOF 2
