REMARK  Name = ZINC01618702
REMARK                            x       y       z     vdW  Elec       q    Type
REMARK                         _______ _______ _______ _____ _____    ______ ____
ROOT
ATOM      1  C   UNK A  0        1.108  -5.130   0.615  0.00  0.00    -0.044 A 
ATOM      2  C   UNK A  0        2.114  -4.391   1.212  0.00  0.00    +0.004 A 
ATOM      3  C   UNK A  0        2.065  -3.012   1.194  0.00  0.00    +0.013 A 
ATOM      4  C   UNK A  0        0.998  -2.363   0.572  0.00  0.00    +0.037 A 
ATOM      5  C   UNK A  0       -0.016  -3.114  -0.024  0.00  0.00    +0.013 A 
ATOM      6  C   UNK A  0        0.047  -4.492  -0.003  0.00  0.00    +0.004 A 
ENDROOT
BRANCH   4   7
ATOM      7  C   UNK A  0        0.939  -0.886   0.549  0.00  0.00    +0.245 C 
ATOM      8  N   GLU A  1       -0.093  -0.262  -0.052  0.00  0.00    -0.298 N 
ATOM      9  H   GLU A  1       -0.797  -0.781  -0.471  0.00  0.00    +0.150 HD
ATOM     10  O   UNK A  0        1.821  -0.234   1.074  0.00  0.00    -0.270 OA
BRANCH   8  11
ATOM     11  CA  GLU A  1       -0.151   1.202  -0.074  0.00  0.00    +0.182 C 
BRANCH  11  12
ATOM     12  C   GLU A  1       -0.782   1.699   1.201  0.00  0.00    +0.325 C 
ATOM     13  O   GLU A  1       -1.146   0.911   2.042  0.00  0.00    -0.249 OA
BRANCH  12  14
ATOM     14  OXT GLU A  1       -0.941   3.017   1.402  0.00  0.00    -0.479 OA
ATOM     15  HXT GLU A  1       -0.659   3.627   0.750  0.00  0.00    +0.295 HD
ENDBRANCH  12  14
ENDBRANCH  11  12
BRANCH  11  16
ATOM     16  CB  GLU A  1       -0.989   1.661  -1.270  0.00  0.00    +0.045 C 
BRANCH  16  17
ATOM     17  CG  GLU A  1       -0.283   1.264  -2.569  0.00  0.00    +0.123 C 
BRANCH  17  18
ATOM     18  CD  GLU A  1       -1.108   1.716  -3.746  0.00  0.00    +0.305 C 
ATOM     19  OE1 GLU A  1       -2.152   2.296  -3.566  0.00  0.00    -0.251 OA
BRANCH  18  20
ATOM     20  OE2 GLU A  1       -0.682   1.475  -4.996  0.00  0.00    -0.481 OA
ATOM     21  HE2 GLU A  1        0.128   1.025  -5.136  0.00  0.00    +0.295 HD
ENDBRANCH  18  20
ENDBRANCH  17  18
ENDBRANCH  16  17
ENDBRANCH  11  16
ENDBRANCH   8  11
ENDBRANCH   4   7
BRANCH   1  22
ATOM     22  C   UNK A  0        1.167  -6.635   0.639  0.00  0.00    +0.025 C 
BRANCH  22  24
ATOM     23  C   UNK A  0        0.061  -8.700   1.509  0.00  0.00    +0.004 C 
ATOM     24  C   UNK A  0       -0.067  -7.183   1.359  0.00  0.00    +0.005 C 
ENDBRANCH  22  24
BRANCH  22  25
ATOM     25  C   UNK A  0        1.200  -7.167  -0.795  0.00  0.00    +0.065 C 
BRANCH  25  26
ATOM     26  C   UNK A  0        2.481  -6.738  -1.461  0.00  0.00    +0.061 A 
ATOM     27  C   UNK A  0        3.640  -7.492  -1.279  0.00  0.00    +0.136 A 
ATOM     28  N   UNK A  0        4.770  -7.140  -1.855  0.00  0.00    -0.232 NA
ATOM     29  C   UNK A  0        4.809  -6.043  -2.614  0.00  0.00    +0.185 A 
ATOM     30  C   UNK A  0        3.629  -5.277  -2.791  0.00  0.00    +0.148 A 
ATOM     31  C   UNK A  0        3.711  -4.080  -3.630  0.00  0.00    +0.149 A 
ATOM     32  N   UNK A  0        4.885  -3.787  -4.173  0.00  0.00    -0.198 NA
ATOM     33  C   UNK A  0        5.952  -4.551  -3.964  0.00  0.00    +0.216 A 
ATOM     34  N   UNK A  0        5.933  -5.638  -3.218  0.00  0.00    -0.193 NA
ATOM     35  N   UNK A  0        2.497  -5.653  -2.205  0.00  0.00    -0.243 NA
BRANCH  31  36
ATOM     36  N   UNK A  0        2.606  -3.287  -3.849  0.00  0.00    -0.341 N 
ATOM     37  H   UNK A  0        2.679  -2.497  -4.409  0.00  0.00    +0.144 HD
ATOM     38  H   UNK A  0        1.756  -3.517  -3.444  0.00  0.00    +0.144 HD
ENDBRANCH  31  36
BRANCH  33  39
ATOM     39  N   UNK A  0        7.144  -4.187  -4.560  0.00  0.00    -0.327 N 
ATOM     40  H   UNK A  0        7.187  -3.392  -5.114  0.00  0.00    +0.145 HD
ATOM     41  H   UNK A  0        7.939  -4.727  -4.424  0.00  0.00    +0.145 HD
ENDBRANCH  33  39
ENDBRANCH  25  26
ENDBRANCH  22  25
ENDBRANCH   1  22
TORSDOF 14
