REMARK  Name = ZINC01492250
REMARK                            x       y       z     vdW  Elec       q    Type
REMARK                         _______ _______ _______ _____ _____    ______ ____
ROOT
ATOM      1  C   UNK    1       -0.018   1.481   0.010  0.00  0.00    -0.048 C 
ATOM      2  C   UNK    1        1.470   1.891  -0.002  0.00  0.00    +0.125 C 
ATOM      3  C   UNK    1        2.212   0.687  -0.618  0.00  0.00    +0.129 C 
ATOM      4  C   UNK    1        1.110  -0.349  -0.926  0.00  0.00    -0.014 C 
ATOM      5  N   UNK    1        0.002  -0.004   0.002  0.00  0.00    +0.386 N 
ATOM      6  H   UNK    1       -0.874  -0.367  -0.343  0.00  0.00    -0.085 HD
ATOM      7  H   UNK    1        0.193  -0.359   0.927  0.00  0.00    -0.085 HD
ENDROOT
BRANCH   2   8
ATOM      8  O   UNK    1        1.930   2.131   1.330  0.00  0.00    -0.391 OA
ATOM      9  H   UNK    1        1.467   2.850   1.782  0.00  0.00    +0.210 HD
ENDBRANCH   2   8
BRANCH   3  10
ATOM     10  O   UNK    1        2.880   1.077  -1.820  0.00  0.00    -0.391 OA
ATOM     11  H   UNK    1        3.553   1.758  -1.692  0.00  0.00    +0.210 HD
ENDBRANCH   3  10
BRANCH   4  12
ATOM     12  C   UNK    1        1.617  -1.766  -0.652  0.00  0.00    +0.143 C 
BRANCH  12  13
ATOM     13  O   UNK    1        0.625  -2.713  -1.053  0.00  0.00    -0.397 OA
ATOM     14  H   UNK    1        0.879  -3.635  -0.908  0.00  0.00    +0.209 HD
ENDBRANCH  12  13
ENDBRANCH   4  12
TORSDOF 4
