REMARK  Name = ZINC01493890
REMARK                            x       y       z     vdW  Elec       q    Type
REMARK                         _______ _______ _______ _____ _____    ______ ____
ROOT
ATOM      1  C   LIG    1        0.040  -3.245  -1.680  0.00  0.00    +0.059 C 
ATOM      2  C   LIG    1        1.115  -3.710  -2.425  0.00  0.00    +0.058 C 
ATOM      3  C   LIG    1        0.621  -4.880  -3.175  0.00  0.00    +0.252 C 
ATOM      4  N   LIG    1       -0.674  -5.072  -2.872  0.00  0.00    -0.248 N 
ATOM      5  H   LIG    1       -1.227  -5.780  -3.237  0.00  0.00    +0.158 HD
ATOM      6  O   LIG    1        1.277  -5.558  -3.940  0.00  0.00    -0.270 OA
ATOM      7  C   LIG    1       -1.094  -4.151  -1.988  0.00  0.00    +0.252 C 
ATOM      8  O   LIG    1       -2.213  -4.071  -1.524  0.00  0.00    -0.270 OA
ENDROOT
BRANCH   1  12
ATOM      9  C   LIG    1       -0.018   1.461   0.010  0.00  0.00    +0.149 C 
ATOM     10  N   LIG    1        0.002  -0.004   0.002  0.00  0.00    -0.349 N 
ATOM     11  C   LIG    1        0.008  -0.773  -1.117  0.00  0.00    +0.095 A 
ATOM     12  C   LIG    1        0.028  -2.094  -0.767  0.00  0.00    +0.013 A 
ATOM     13  C   LIG    1        0.035  -2.137   0.706  0.00  0.00    +0.008 A 
ATOM     14  C   LIG    1        0.054  -3.166   1.643  0.00  0.00    +0.010 A 
ATOM     15  C   LIG    1        0.070  -2.865   2.988  0.00  0.00    +0.001 A 
ATOM     16  C   LIG    1        0.055  -1.543   3.409  0.00  0.00    +0.002 A 
ATOM     17  C   LIG    1        0.032  -0.514   2.492  0.00  0.00    +0.026 A 
ATOM     18  C   LIG    1        0.024  -0.798   1.131  0.00  0.00    +0.049 A 
ENDBRANCH   1  12
BRANCH   2  19
ATOM     19  C   LIG    1        2.480  -3.147  -2.460  0.00  0.00    +0.006 A 
ATOM     20  C   LIG    1        3.354  -3.360  -1.391  0.00  0.00    +0.011 A 
ATOM     21  C   LIG    1        4.627  -2.831  -1.430  0.00  0.00    +0.021 A 
ATOM     22  C   LIG    1        5.040  -2.089  -2.525  0.00  0.00    +0.042 A 
ATOM     23 CL   LIG    1        6.644  -1.427  -2.564  0.00  0.00    -0.083 Cl
ATOM     24  C   LIG    1        4.179  -1.873  -3.588  0.00  0.00    +0.040 A 
ATOM     25  C   LIG    1        2.904  -2.402  -3.565  0.00  0.00    +0.050 A 
ATOM     26 CL   LIG    1        1.827  -2.136  -4.901  0.00  0.00    -0.083 Cl
ENDBRANCH   2  19
TORSDOF 2
