REMARK  Name = ZINC01619592
REMARK                            x       y       z     vdW  Elec       q    Type
REMARK                         _______ _______ _______ _____ _____    ______ ____
ROOT
ATOM      1  C   LIG    1       -1.057  -2.120   0.001  0.00  0.00    +0.205 C 
ATOM      2  C   LIG    1       -0.930  -2.552  -1.458  0.00  0.00    +0.064 C 
ATOM      3  C   LIG    1       -1.507  -3.942  -1.616  0.00  0.00    +0.037 C 
ATOM      4  C   LIG    1       -0.790  -4.934  -0.702  0.00  0.00    +0.020 C 
ATOM      5  C   LIG    1       -3.008  -3.824  -1.260  0.00  0.00    +0.037 C 
ATOM      6  C   LIG    1       -3.135  -3.497   0.192  0.00  0.00    +0.011 C 
ATOM      7  C   LIG    1       -4.299  -4.089   0.904  0.00  0.00    +0.225 C 
ATOM      8  O   LIG    1       -5.085  -4.839   0.350  0.00  0.00    -0.284 OA
ATOM      9  C   LIG    1       -4.465  -3.720   2.315  0.00  0.00    +0.179 A 
ATOM     10  O   LIG    1       -5.367  -3.975   3.264  0.00  0.00    -0.459 OA
ATOM     11  C   LIG    1       -5.134  -3.185   4.342  0.00  0.00    +0.211 A 
ATOM     12  C   LIG    1       -4.014  -2.459   4.109  0.00  0.00    +0.101 A 
ATOM     13  C   LIG    1       -3.259  -1.379   4.771  0.00  0.00    +0.343 C 
ATOM     14  O   LIG    1       -2.367  -0.704   4.002  0.00  0.00    -0.454 OA
ATOM     15  C   LIG    1       -2.178  -0.938   2.610  0.00  0.00    +0.217 C 
ATOM     16  C   LIG    1       -2.247  -2.419   2.252  0.00  0.00    +0.061 C 
ATOM     17  C   LIG    1       -1.093  -3.155   2.946  0.00  0.00    +0.025 C 
ATOM     18  O   LIG    1       -3.442  -1.083   5.937  0.00  0.00    -0.245 OA
ATOM     19  C   LIG    1       -3.542  -2.894   2.843  0.00  0.00    +0.029 A 
ATOM     20  C   LIG    1       -3.542  -5.180  -1.724  0.00  0.00    +0.017 C 
ATOM     21  C   LIG    1       -2.763  -5.419  -3.046  0.00  0.00    +0.075 C 
ATOM     22  C   LIG    1       -1.546  -4.500  -3.013  0.00  0.00    +0.140 C 
ATOM     23  O   LIG    1       -0.780  -4.261  -3.913  0.00  0.00    -0.297 OA
ATOM     24  C   LIG    1       -2.216  -2.710   0.768  0.00  0.00    -0.008 C 
ENDROOT
BRANCH   1  25
ATOM     25  O   LIG    1       -1.151  -0.691   0.009  0.00  0.00    -0.457 OA
BRANCH  25  27
ATOM     26  C   LIG    1       -0.018   1.503   0.010  0.00  0.00    +0.136 C 
ATOM     27  C   LIG    1        0.002  -0.004   0.002  0.00  0.00    +0.305 C 
ATOM     28  O   LIG    1        1.056  -0.594  -0.011  0.00  0.00    -0.251 OA
ENDBRANCH  25  27
ENDBRANCH   1  25
BRANCH  15  29
ATOM     29  C   LIG    1       -3.308  -0.206   1.883  0.00  0.00    +0.205 C 
BRANCH  29  30
ATOM     30  O   LIG    1       -3.190   1.200   2.114  0.00  0.00    -0.379 OA
ATOM     31  C   LIG    1       -4.203   1.980   1.475  0.00  0.00    +0.194 C 
ENDBRANCH  29  30
ENDBRANCH  15  29
TORSDOF 4
