REMARK  Name = ZINC01539136
REMARK                            x       y       z     vdW  Elec       q    Type
REMARK                         _______ _______ _______ _____ _____    ______ ____
ROOT
ATOM      1  C   LIG    1        0.627  -2.689  -3.540  0.00  0.00    +0.136 C 
ATOM      2  C   LIG    1        1.211  -3.246  -4.688  0.00  0.00    +0.083 C 
ATOM      3  C   LIG    1        2.557  -3.679  -5.059  0.00  0.00    -0.047 C 
ATOM      4  C   LIG    1        3.789  -3.622  -4.193  0.00  0.00    +0.041 C 
ATOM      5  C   LIG    1        2.486  -4.136  -6.320  0.00  0.00    +0.009 C 
ATOM      6  C   LIG    1        3.646  -4.685  -7.109  0.00  0.00    +0.061 C 
ATOM      7  N   LIG    1        1.197  -4.028  -6.781  0.00  0.00    -0.287 N 
ATOM      8  C   LIG    1        0.396  -3.489  -5.809  0.00  0.00    +0.157 C 
ATOM      9  N   LIG    1       -0.897  -3.179  -5.736  0.00  0.00    -0.283 NA
ATOM     10  H   LIG    1       -1.473  -3.340  -6.500  0.00  0.00    +0.125 HD
ATOM     11  C   LIG    1       -1.402  -2.657  -4.639  0.00  0.00    +0.121 C 
ATOM     12  C   LIG    1       -2.871  -2.324  -4.608  0.00  0.00    +0.041 C 
ATOM     13  N   LIG    1       -0.675  -2.419  -3.562  0.00  0.00    -0.285 NA
ATOM     14  H   LIG    1       -0.768  -1.423  -3.363  0.00  0.00    +0.125 HD
ENDROOT
BRANCH   7  15
ATOM     15  C   LIG    1        0.765  -4.413  -8.057  0.00  0.00    +0.041 A 
ATOM     16  C   LIG    1        0.797  -3.504  -9.106  0.00  0.00    -0.029 A 
ATOM     17  C   LIG    1        1.297  -2.101  -8.873  0.00  0.00    +0.046 C 
ATOM     18  C   LIG    1        0.371  -3.886 -10.363  0.00  0.00    +0.008 A 
ATOM     19  C   LIG    1       -0.088  -5.173 -10.577  0.00  0.00    -0.050 A 
ATOM     20  C   LIG    1       -0.552  -5.587 -11.950  0.00  0.00    +0.044 C 
ATOM     21  C   LIG    1       -0.121  -6.081  -9.534  0.00  0.00    +0.008 A 
ATOM     22  C   LIG    1        0.310  -5.706  -8.277  0.00  0.00    -0.029 A 
ATOM     23  C   LIG    1        0.279  -6.698  -7.143  0.00  0.00    +0.046 C 
ENDBRANCH   7  15
BRANCH   1  24
ATOM     24  N   LIG    1        1.385  -2.431  -2.413  0.00  0.00    -0.287 NA
BRANCH  24  25
ATOM     25  C   LIG    1        1.853  -1.070  -2.139  0.00  0.00    +0.082 C 
ATOM     26  C   LIG    1        3.280  -0.906  -2.665  0.00  0.00    +0.020 C 
ENDBRANCH  24  25
BRANCH  24  27
ATOM     27  C   LIG    1        1.721  -3.520  -1.492  0.00  0.00    +0.086 C 
BRANCH  27  28
ATOM     28  C   LIG    1        0.634  -3.636  -0.421  0.00  0.00    +0.015 C 
BRANCH  28  30
ATOM     29  C   LIG    1       -0.102  -4.888   1.611  0.00  0.00    +0.004 C 
ATOM     30  C   LIG    1        0.985  -4.772   0.541  0.00  0.00    -0.002 C 
ENDBRANCH  28  30
ENDBRANCH  27  28
ENDBRANCH  24  27
ENDBRANCH   1  24
TORSDOF 6
