REMARK  Name = ZINC01490477
REMARK                            x       y       z     vdW  Elec       q    Type
REMARK                         _______ _______ _______ _____ _____    ______ ____
ROOT
ATOM      1  C   LIG    1        0.482  -0.052   4.924  0.00  0.00    +0.034 A 
ATOM      2  C   LIG    1       -0.051   1.223   5.085  0.00  0.00    +0.024 A 
ATOM      3  C   LIG    1       -0.088   1.803   6.333  0.00  0.00    +0.015 A 
ATOM      4  C   LIG    1        0.411   1.108   7.439  0.00  0.00    +0.040 A 
ATOM      5  C   LIG    1        0.946  -0.172   7.274  0.00  0.00    -0.037 A 
ATOM      6  C   LIG    1        1.485  -0.924   8.463  0.00  0.00    +0.044 C 
ATOM      7  C   LIG    1        0.975  -0.748   6.024  0.00  0.00    +0.027 A 
ENDROOT
BRANCH   4   8
ATOM      8  C   LIG    1        0.373   1.726   8.779  0.00  0.00    +0.251 C 
ATOM      9  N   LIG    1        0.723   3.019   8.934  0.00  0.00    -0.267 N 
ATOM     10  C   LIG    1        0.818   3.623  10.274  0.00  0.00    +0.114 C 
ATOM     11  C   LIG    1       -0.461   4.353  10.612  0.00  0.00    +0.022 C 
ATOM     12  C   LIG    1       -0.746   5.539   9.701  0.00  0.00    +0.038 C 
ATOM     13  C   LIG    1       -1.113   5.079   8.294  0.00  0.00    +0.146 C 
ATOM     14  C   LIG    1        0.159   4.867   7.491  0.00  0.00    +0.004 A 
ATOM     15  C   LIG    1        0.456   5.699   6.433  0.00  0.00    +0.028 A 
ATOM     16  C   LIG    1        1.619   5.472   5.688  0.00  0.00    +0.041 A 
ATOM     17 CL   LIG    1        2.012   6.516   4.358  0.00  0.00    -0.084 Cl
ATOM     18  C   LIG    1        2.454   4.416   6.008  0.00  0.00    +0.022 A 
ATOM     19  C   LIG    1        2.157   3.592   7.076  0.00  0.00    +0.025 A 
ATOM     20  C   LIG    1        1.013   3.825   7.830  0.00  0.00    +0.042 A 
ATOM     21  O   LIG    1        0.027   1.070   9.742  0.00  0.00    -0.270 OA
BRANCH  13  22
ATOM     22  O   LIG    1       -1.842   3.852   8.368  0.00  0.00    -0.387 OA
ATOM     23  H   LIG    1       -2.108   3.500   7.507  0.00  0.00    +0.210 HD
ENDBRANCH  13  22
ENDBRANCH   4   8
BRANCH   1  25
ATOM     24  C   LIG    1        0.660   0.138   2.564  0.00  0.00    +0.249 C 
ATOM     25  N   LIG    1        0.519  -0.635   3.659  0.00  0.00    -0.281 N 
ATOM     26  H   LIG    1        0.442  -1.598   3.566  0.00  0.00    +0.155 HD
ATOM     27  O   LIG    1        0.834   1.335   2.684  0.00  0.00    -0.270 OA
BRANCH  24  34
ATOM     28  C   LIG    1        1.084   1.792   0.229  0.00  0.00    +0.044 C 
ATOM     29  C   LIG    1        0.806   0.318   0.084  0.00  0.00    -0.038 A 
ATOM     30  C   LIG    1        0.758  -0.256  -1.169  0.00  0.00    +0.004 A 
ATOM     31  C   LIG    1        0.502  -1.609  -1.304  0.00  0.00    +0.000 A 
ATOM     32  C   LIG    1        0.294  -2.395  -0.184  0.00  0.00    +0.001 A 
ATOM     33  C   LIG    1        0.340  -1.833   1.075  0.00  0.00    +0.013 A 
ATOM     34  C   LIG    1        0.603  -0.470   1.218  0.00  0.00    +0.040 A 
ENDBRANCH  24  34
ENDBRANCH   1  25
TORSDOF 4
