REMARK  Name = ZINC01610264
REMARK                            x       y       z     vdW  Elec       q    Type
REMARK                         _______ _______ _______ _____ _____    ______ ____
ROOT
ATOM      1  C   LIG    1        1.392  -3.078   0.225  0.00  0.00    +0.225 A 
ATOM      2  N   LIG    1        0.075  -2.976   0.253  0.00  0.00    -0.219 NA
ATOM      3  C   LIG    1       -0.524  -1.791   0.214  0.00  0.00    +0.147 A 
ATOM      4  C   LIG    1        0.276  -0.637   0.143  0.00  0.00    +0.147 A 
ATOM      5  C   LIG    1        1.671  -0.799   0.115  0.00  0.00    +0.166 A 
ATOM      6  N   LIG    1        2.197   0.467   0.045  0.00  0.00    -0.311 N 
ATOM      7  C   LIG    1        1.153   1.343   0.031  0.00  0.00    +0.202 A 
ATOM      8  N   LIG    1        0.026   0.693   0.089  0.00  0.00    -0.231 NA
ATOM      9  N   LIG    1        2.180  -2.026   0.158  0.00  0.00    -0.216 NA
ENDROOT
BRANCH   3  10
ATOM     10  N   LIG    1       -1.904  -1.694   0.245  0.00  0.00    -0.341 N 
ATOM     11  H   LIG    1       -2.446  -2.498   0.295  0.00  0.00    +0.144 HD
ATOM     12  H   LIG    1       -2.184  -1.165   1.046  0.00  0.00    +0.144 HD
ENDBRANCH   3  10
BRANCH   6  13
ATOM     13  C   LIG    1        3.619   0.812  -0.007  0.00  0.00    +0.152 C 
BRANCH  13  14
ATOM     14  C   LIG    1        4.101   0.747  -1.434  0.00  0.00    -0.002 C 
ATOM     15  C   LIG    1        4.723   1.771  -1.963  0.00  0.00    -0.022 C 
BRANCH  15  16
ATOM     16  C   LIG    1        5.053   1.775  -3.433  0.00  0.00    +0.188 C 
BRANCH  16  17
ATOM     17  O   LIG    1        4.588   0.562  -4.029  0.00  0.00    -0.391 OA
ATOM     18  H   LIG    1        4.767   0.496  -4.977  0.00  0.00    +0.210 HD
ENDBRANCH  16  17
ENDBRANCH  15  16
BRANCH  15  19
ATOM     19  C   LIG    1        5.110   2.945  -1.100  0.00  0.00    +0.188 C 
BRANCH  19  20
ATOM     20  O   LIG    1        6.505   3.211  -1.254  0.00  0.00    -0.391 OA
ATOM     21  H   LIG    1        6.825   3.956  -0.727  0.00  0.00    +0.210 HD
ENDBRANCH  19  20
ENDBRANCH  15  19
ENDBRANCH  13  14
ENDBRANCH   6  13
TORSDOF 7
