REMARK  Name = ZINC01614326
REMARK                            x       y       z     vdW  Elec       q    Type
REMARK                         _______ _______ _______ _____ _____    ______ ____
ROOT
ATOM      1  C   LIG    1        0.039  -2.779  -0.015  0.00  0.00    -0.021 A 
ATOM      2  C   LIG    1        0.018  -2.067  -1.220  0.00  0.00    +0.012 A 
ATOM      3  C   LIG    1       -0.006  -0.690  -1.206  0.00  0.00    +0.050 A 
ATOM      4  C   LIG    1        0.002  -0.004   0.002  0.00  0.00    +0.158 A 
ATOM      5  C   LIG    1        0.023  -0.706   1.207  0.00  0.00    +0.159 A 
ATOM      6  C   LIG    1        0.041  -2.086   1.202  0.00  0.00    +0.057 A 
ENDROOT
BRANCH   1   8
ATOM      7  C   LIG    1        0.055  -4.914  -1.202  0.00  0.00    +0.092 C 
ATOM      8  C   LIG    1        0.058  -4.248  -0.026  0.00  0.00    +0.015 C 
BRANCH   7   9
ATOM      9  C   LIG    1        0.073  -6.332  -1.213  0.00  0.00    +0.332 C 
ATOM     10  O   LIG    1        0.091  -6.948  -0.165  0.00  0.00    -0.246 OA
BRANCH   9  11
ATOM     11  O   LIG    1        0.071  -6.997  -2.387  0.00  0.00    -0.462 OA
BRANCH  11  13
ATOM     12  C   LIG    1        0.084  -8.998  -3.743  0.00  0.00    +0.048 C 
ATOM     13  C   LIG    1        0.090  -8.424  -2.324  0.00  0.00    +0.229 C 
ENDBRANCH  11  13
ENDBRANCH   9  11
ENDBRANCH   7   9
ENDBRANCH   1   8
BRANCH   4  14
ATOM     14  O   LIG    1       -0.016   1.354   0.009  0.00  0.00    -0.503 OA
ATOM     15  H   LIG    1        0.862   1.759   0.003  0.00  0.00    +0.292 HD
ENDBRANCH   4  14
BRANCH   5  16
ATOM     16  O   LIG    1        0.026  -0.030   2.387  0.00  0.00    -0.503 OA
ATOM     17  H   LIG    1       -0.857   0.154   2.737  0.00  0.00    +0.292 HD
ENDBRANCH   5  16
TORSDOF 6
