REMARK  Name = ZINC01561184
REMARK                            x       y       z     vdW  Elec       q    Type
REMARK                         _______ _______ _______ _____ _____    ______ ____
ROOT
ATOM      1  C   LIG    1       -0.018   1.465   0.010  0.00  0.00    -0.095 C 
ATOM      2  N   LIG    1        0.002  -0.004   0.002  0.00  0.00    +0.383 N 
ATOM      3  H   LIG    1        0.475  -0.329  -0.828  0.00  0.00    -0.081 HD
ATOM      4  C   LIG    1       -1.371  -0.510   0.009  0.00  0.00    -0.074 C 
ATOM      5  C   LIG    1       -1.393  -2.016  -0.193  0.00  0.00    +0.017 C 
ATOM      6  C   LIG    1       -0.277  -2.702   0.543  0.00  0.00    -0.043 A 
ATOM      7  C   LIG    1       -0.262  -4.090   0.566  0.00  0.00    +0.049 A 
ATOM      8  C   LIG    1        0.727  -4.777   1.251  0.00  0.00    +0.118 A 
ATOM      9  C   LIG    1        1.717  -4.073   1.917  0.00  0.00    +0.054 A 
ATOM     10  C   LIG    1        1.718  -2.684   1.878  0.00  0.00    -0.009 A 
ATOM     11  C   LIG    1        2.771  -1.915   2.582  0.00  0.00    +0.031 A 
ATOM     12  C   LIG    1        3.554  -2.515   3.568  0.00  0.00    +0.166 A 
ATOM     13  C   LIG    1        4.523  -1.764   4.226  0.00  0.00    +0.159 A 
ATOM     14  C   LIG    1        4.703  -0.430   3.900  0.00  0.00    +0.049 A 
ATOM     15  C   LIG    1        3.929   0.161   2.916  0.00  0.00    +0.008 A 
ATOM     16  C   LIG    1        2.971  -0.576   2.252  0.00  0.00    -0.037 A 
ATOM     17  C   LIG    1        2.140   0.055   1.169  0.00  0.00    +0.025 C 
ATOM     18  C   LIG    1        0.713  -1.997   1.193  0.00  0.00    -0.049 A 
ATOM     19  C   LIG    1        0.713  -0.490   1.193  0.00  0.00    -0.033 C 
ENDROOT
BRANCH   8  20
ATOM     20  O   LIG    1        0.727  -6.136   1.269  0.00  0.00    -0.507 OA
ATOM     21  H   LIG    1        1.225  -6.539   0.545  0.00  0.00    +0.292 HD
ENDBRANCH   8  20
BRANCH  12  22
ATOM     22  O   LIG    1        3.370  -3.824   3.884  0.00  0.00    -0.503 OA
ATOM     23  H   LIG    1        3.911  -4.434   3.363  0.00  0.00    +0.292 HD
ENDBRANCH  12  22
BRANCH  13  24
ATOM     24  O   LIG    1        5.292  -2.340   5.188  0.00  0.00    -0.503 OA
ATOM     25  H   LIG    1        6.109  -2.737   4.854  0.00  0.00    +0.292 HD
ENDBRANCH  13  24
TORSDOF 3
