REMARK  Name = ZINC01530762
REMARK                            x       y       z     vdW  Elec       q    Type
REMARK                         _______ _______ _______ _____ _____    ______ ____
ROOT
ATOM      1  C   LIG    1       -2.301  -3.265  -1.799  0.00  0.00    +0.141 A 
ATOM      2  C   LIG    1       -3.377  -2.470  -1.431  0.00  0.00    +0.048 A 
ATOM      3  C   LIG    1       -4.608  -3.039  -1.188  0.00  0.00    +0.018 A 
ATOM      4  C   LIG    1       -4.777  -4.421  -1.313  0.00  0.00    +0.061 A 
ATOM      5  C   LIG    1       -3.694  -5.223  -1.684  0.00  0.00    +0.041 A 
ATOM      6  C   LIG    1       -2.462  -4.645  -1.931  0.00  0.00    +0.068 A 
ENDROOT
BRANCH   6   7
ATOM      7  N   LIG    1       -1.377  -5.444  -2.309  0.00  0.00    -0.355 N 
ATOM      8  H   LIG    1       -1.489  -6.403  -2.401  0.00  0.00    +0.142 HD
ATOM      9  H   LIG    1       -0.512  -5.039  -2.479  0.00  0.00    +0.142 HD
ENDBRANCH   6   7
BRANCH   4  10
ATOM     10  C   LIG    1       -6.094  -5.031  -1.053  0.00  0.00    +0.339 C 
ATOM     11  O   LIG    1       -6.239  -6.232  -1.162  0.00  0.00    -0.245 OA
BRANCH  10  12
ATOM     12  O   LIG    1       -7.136  -4.256  -0.695  0.00  0.00    -0.463 OA
BRANCH  12  13
ATOM     13  C   LIG    1       -8.383  -4.914  -0.459  0.00  0.00    +0.214 C 
BRANCH  13  14
ATOM     14  C   LIG    1       -9.439  -3.880  -0.066  0.00  0.00    -0.037 C 
BRANCH  14  15
ATOM     15  N   LIG    1       -9.685  -2.976  -1.198  0.00  0.00    +0.382 N 
ATOM     16  H   LIG    1       -8.813  -2.567  -1.497  0.00  0.00    -0.082 HD
BRANCH  15  17
ATOM     17  C   LIG    1      -10.609  -1.912  -0.783  0.00  0.00    -0.082 C 
ATOM     18  C   LIG    1       -9.936  -1.036   0.275  0.00  0.00    -0.017 C 
ENDBRANCH  15  17
BRANCH  15  19
ATOM     19  C   LIG    1      -10.277  -3.733  -2.309  0.00  0.00    -0.082 C 
ATOM     20  C   LIG    1      -10.403  -2.826  -3.534  0.00  0.00    -0.017 C 
ENDBRANCH  15  19
ENDBRANCH  14  15
ENDBRANCH  13  14
ENDBRANCH  12  13
ENDBRANCH  10  12
ENDBRANCH   4  10
BRANCH   1  21
ATOM     21  O   LIG    1       -1.089  -2.699  -2.036  0.00  0.00    -0.490 OA
BRANCH  21  22
ATOM     22  C   LIG    1       -0.995  -1.281  -1.882  0.00  0.00    +0.229 C 
BRANCH  22  24
ATOM     23  C   LIG    1        0.536   0.688  -2.025  0.00  0.00    +0.007 C 
ATOM     24  C   LIG    1        0.434  -0.830  -2.189  0.00  0.00    +0.038 C 
ENDBRANCH  22  24
ENDBRANCH  21  22
ENDBRANCH   1  21
TORSDOF 11
