REMARK  Name = ZINC01557545
REMARK                            x       y       z     vdW  Elec       q    Type
REMARK                         _______ _______ _______ _____ _____    ______ ____
ROOT
ATOM      1  C   LIG    1        0.002  -0.004   0.002  0.00  0.00    +0.128 A 
ATOM      2  C   LIG    1       -0.017   1.391   0.010  0.00  0.00    +0.047 A 
ATOM      3  C   LIG    1        1.139   2.110   0.003  0.00  0.00    +0.012 A 
ATOM      4  C   LIG    1        2.381   1.451  -0.013  0.00  0.00    -0.017 A 
ATOM      5  C   LIG    1        3.587   2.174  -0.021  0.00  0.00    +0.008 A 
ATOM      6  C   LIG    1        4.773   1.507  -0.035  0.00  0.00    +0.001 A 
ATOM      7  C   LIG    1        4.812   0.114  -0.042  0.00  0.00    +0.001 A 
ATOM      8  C   LIG    1        3.663  -0.618  -0.036  0.00  0.00    +0.009 A 
ATOM      9  C   LIG    1        2.423   0.035  -0.020  0.00  0.00    -0.007 A 
ATOM     10  C   LIG    1        1.209  -0.694  -0.013  0.00  0.00    +0.036 A 
ENDROOT
BRANCH  10  11
ATOM     11  C   LIG    1        1.225  -2.171  -0.020  0.00  0.00    +0.035 A 
ATOM     12  C   LIG    1        1.250  -2.893   1.198  0.00  0.00    -0.007 A 
ATOM     13  C   LIG    1        1.261  -2.232   2.434  0.00  0.00    +0.009 A 
ATOM     14  C   LIG    1        1.285  -2.957   3.588  0.00  0.00    +0.001 A 
ATOM     15  C   LIG    1        1.300  -4.350   3.557  0.00  0.00    +0.001 A 
ATOM     16  C   LIG    1        1.281  -5.024   2.375  0.00  0.00    +0.008 A 
ATOM     17  C   LIG    1        1.260  -4.309   1.165  0.00  0.00    -0.017 A 
ATOM     18  C   LIG    1        1.255  -4.975  -0.073  0.00  0.00    +0.012 A 
ATOM     19  C   LIG    1        1.236  -4.264  -1.233  0.00  0.00    +0.046 A 
ATOM     20  C   LIG    1        1.221  -2.869  -1.223  0.00  0.00    +0.125 A 
BRANCH  20  21
ATOM     21  O   LIG    1        1.203  -2.187  -2.397  0.00  0.00    -0.506 OA
ATOM     22  H   LIG    1        2.081  -1.979  -2.745  0.00  0.00    +0.292 HD
ENDBRANCH  20  21
ENDBRANCH  10  11
BRANCH   1  24
ATOM     23  C   LIG    1       -2.373   0.074   0.025  0.00  0.00    +0.277 C 
ATOM     24  O   LIG    1       -1.168  -0.694   0.009  0.00  0.00    -0.494 OA
ENDBRANCH   1  24
TORSDOF 3
