REMARK  Name = ZINC01509539
REMARK                            x       y       z     vdW  Elec       q    Type
REMARK                         _______ _______ _______ _____ _____    ______ ____
ROOT
ATOM      1  C   LIG    1       -1.284   1.552   3.622  0.00  0.00    +0.085 A 
ATOM      2  C   LIG    1       -0.559   0.998   2.575  0.00  0.00    +0.068 A 
ATOM      3  C   LIG    1       -0.732   1.580   1.257  0.00  0.00    -0.023 A 
ATOM      4  C   LIG    1       -1.601   2.615   1.194  0.00  0.00    -0.004 A 
ATOM      5  C   LIG    1       -1.980   3.405  -0.021  0.00  0.00    +0.043 C 
ATOM      6  C   LIG    1       -0.956   3.111  -1.127  0.00  0.00    +0.005 C 
ATOM      7  C   LIG    1       -0.758   1.595  -1.227  0.00  0.00    +0.005 C 
ATOM      8  C   LIG    1       -0.013   1.086   0.008  0.00  0.00    +0.037 C 
ATOM      9  S   LIG    1       -2.179   2.821   2.854  0.00  0.00    -0.077 S 
ENDROOT
BRANCH   2  10
ATOM     10  C   LIG    1        0.351  -0.131   2.793  0.00  0.00    +0.244 C 
ATOM     11  N   LIG    1        1.643   0.095   3.104  0.00  0.00    -0.325 N 
ATOM     12  H   LIG    1        2.244  -0.652   3.249  0.00  0.00    +0.145 HD
ATOM     13  H   LIG    1        1.970   1.004   3.184  0.00  0.00    +0.145 HD
ATOM     14  O   LIG    1       -0.061  -1.272   2.693  0.00  0.00    -0.270 OA
ENDBRANCH   2  10
BRANCH   1  16
ATOM     15  C   LIG    1       -2.065   1.841   5.837  0.00  0.00    +0.249 C 
ATOM     16  N   LIG    1       -1.289   1.179   4.956  0.00  0.00    -0.275 N 
ATOM     17  H   LIG    1       -0.735   0.442   5.256  0.00  0.00    +0.156 HD
ATOM     18  O   LIG    1       -2.760   2.764   5.461  0.00  0.00    -0.270 OA
BRANCH  15  22
ATOM     19  C   LIG    1       -2.082   0.698   9.935  0.00  0.00    +0.017 A 
ATOM     20  C   LIG    1       -2.881   1.760   9.502  0.00  0.00    +0.012 A 
ATOM     21  C   LIG    1       -2.875   2.129   8.175  0.00  0.00    +0.014 A 
ATOM     22  C   LIG    1       -2.071   1.443   7.263  0.00  0.00    +0.037 A 
ATOM     23  C   LIG    1       -1.277   0.379   7.693  0.00  0.00    +0.014 A 
ATOM     24  C   LIG    1       -1.278   0.012   9.021  0.00  0.00    +0.012 A 
BRANCH  19  26
ATOM     25  C   LIG    1       -1.226  -0.842  11.821  0.00  0.00    +0.091 C 
ATOM     26  C   LIG    1       -2.087   0.303  11.355  0.00  0.00    +0.160 C 
ATOM     27  O   LIG    1       -2.785   0.899  12.148  0.00  0.00    -0.292 OA
ENDBRANCH  19  26
ENDBRANCH  15  22
ENDBRANCH   1  16
TORSDOF 4
