REMARK  Name = ZINC01594725
REMARK                            x       y       z     vdW  Elec       q    Type
REMARK                         _______ _______ _______ _____ _____    ______ ____
ROOT
ATOM      1  C   LIG    1       -0.018   1.503   0.010  0.00  0.00    +0.047 C 
ATOM      2  C   LIG    1        0.002  -0.004   0.002  0.00  0.00    -0.008 A 
ATOM      3  C   LIG    1        0.005  -0.684  -1.213  0.00  0.00    +0.007 A 
ATOM      4  C   LIG    1        0.024  -2.045  -1.257  0.00  0.00    +0.009 A 
ATOM      5  C   LIG    1        0.040  -2.781  -0.060  0.00  0.00    -0.014 A 
ATOM      6  C   LIG    1        0.059  -4.186  -0.068  0.00  0.00    +0.008 A 
ATOM      7  C   LIG    1        0.074  -4.866   1.111  0.00  0.00    +0.001 A 
ATOM      8  C   LIG    1        0.071  -4.190   2.329  0.00  0.00    +0.001 A 
ATOM      9  C   LIG    1        0.052  -2.829   2.375  0.00  0.00    +0.012 A 
ATOM     10  C   LIG    1        0.036  -2.094   1.179  0.00  0.00    +0.024 A 
ATOM     11  C   LIG    1        0.023  -0.684   1.187  0.00  0.00    +0.127 A 
ENDROOT
BRANCH  11  12
ATOM     12  O   LIG    1        0.024  -0.007   2.364  0.00  0.00    -0.506 OA
ATOM     13  H   LIG    1       -0.858   0.177   2.713  0.00  0.00    +0.292 HD
ENDBRANCH  11  12
TORSDOF 1
