REMARK  Name = ZINC01604330
REMARK                            x       y       z     vdW  Elec       q    Type
REMARK                         _______ _______ _______ _____ _____    ______ ____
ROOT
ATOM      1  C   LIG    1       -2.885   1.584   0.214  0.00  0.00    -0.047 A 
ATOM      2  C   LIG    1       -3.562   2.788   0.147  0.00  0.00    +0.005 A 
ATOM      3  C   LIG    1       -4.159   3.310   1.279  0.00  0.00    +0.022 A 
ATOM      4  C   LIG    1       -4.080   2.628   2.480  0.00  0.00    +0.059 A 
ATOM      5 CL   LIG    1       -4.830   3.283   3.902  0.00  0.00    -0.082 Cl
ATOM      6  C   LIG    1       -3.402   1.423   2.547  0.00  0.00    +0.059 A 
ATOM      7 CL   LIG    1       -3.302   0.566   4.054  0.00  0.00    -0.082 Cl
ATOM      8  C   LIG    1       -2.809   0.899   1.412  0.00  0.00    +0.025 A 
ENDROOT
BRANCH   1   9
ATOM      9  C   LIG    1       -2.234   1.016  -1.020  0.00  0.00    +0.019 C 
BRANCH   9  11
ATOM     10  C   LIG    1       -0.175   1.052  -2.435  0.00  0.00    -0.014 C 
ATOM     11  C   LIG    1       -0.795   1.527  -1.120  0.00  0.00    -0.074 C 
BRANCH  11  12
ATOM     12  N   LIG    1       -0.025   1.014   0.027  0.00  0.00    +0.380 N 
ATOM     13  H   LIG    1       -0.476   1.316   0.899  0.00  0.00    -0.090 HD
ATOM     14  H   LIG    1        0.925   1.379   0.001  0.00  0.00    -0.090 HD
ATOM     15  H   LIG    1        0.002  -0.004   0.002  0.00  0.00    -0.090 HD
ENDBRANCH  11  12
ENDBRANCH   9  11
ENDBRANCH   1   9
TORSDOF 3
