REMARK  Name = ZINC01656421
REMARK                            x       y       z     vdW  Elec       q    Type
REMARK                         _______ _______ _______ _____ _____    ______ ____
ROOT
ATOM      1  C   LIG    1        1.417   2.032  -0.001  0.00  0.00    +0.208 C 
ENDROOT
BRANCH   1   2
ATOM      2  O   LIG    1        2.049   1.670  -1.230  0.00  0.00    -0.375 OA
ATOM      3  H   LIG    1        1.610   2.020  -2.017  0.00  0.00    +0.211 HD
ENDBRANCH   1   2
BRANCH   1   4
ATOM      4  C   LIG    1        2.181   1.435   1.153  0.00  0.00    +0.341 C 
ATOM      5  O   LIG    1        3.175   0.762   0.942  0.00  0.00    -0.248 OA
BRANCH   4   6
ATOM      6  O   LIG    1        1.806   1.626   2.297  0.00  0.00    -0.479 OA
ATOM      7  H   LIG    1        1.042   2.144   2.459  0.00  0.00    +0.295 HD
ENDBRANCH   4   6
ENDBRANCH   1   4
BRANCH   1   8
ATOM      8  C   LIG    1       -0.018   1.503   0.010  0.00  0.00    +0.170 C 
BRANCH   8   9
ATOM      9  C   LIG    1        0.002  -0.004   0.002  0.00  0.00    +0.308 C 
ATOM     10  O   LIG    1        1.066  -0.599  -0.011  0.00  0.00    -0.251 OA
BRANCH   9  11
ATOM     11  O   LIG    1       -1.045  -0.628   0.009  0.00  0.00    -0.481 OA
ATOM     12  H   LIG    1       -1.863  -0.171   0.019  0.00  0.00    +0.295 HD
ENDBRANCH   9  11
ENDBRANCH   8   9
ENDBRANCH   1   8
BRANCH   1  13
ATOM     13  C   LIG    1        1.399   3.556   0.134  0.00  0.00    +0.266 C 
BRANCH  13  14
ATOM     14  O   LIG    1        0.674   4.122  -0.960  0.00  0.00    -0.378 OA
ATOM     15  H   LIG    1        1.048   3.917  -1.828  0.00  0.00    +0.211 HD
ENDBRANCH  13  14
BRANCH  13  16
ATOM     16  C   LIG    1        2.813   4.078   0.123  0.00  0.00    +0.337 C 
ATOM     17  O   LIG    1        3.194   4.789  -0.791  0.00  0.00    -0.248 OA
BRANCH  16  18
ATOM     18  O   LIG    1        3.576   3.789   1.028  0.00  0.00    -0.479 OA
ATOM     19  H   LIG    1        3.284   3.242   1.731  0.00  0.00    +0.295 HD
ENDBRANCH  16  18
ENDBRANCH  13  16
ENDBRANCH   1  13
TORSDOF 10
