REMARK  Name = ZINC01590445
REMARK                            x       y       z     vdW  Elec       q    Type
REMARK                         _______ _______ _______ _____ _____    ______ ____
ROOT
ATOM      1  N   LIG    1        2.253  -3.463   6.558  0.00  0.00    -0.308 N 
ATOM      2  H   LIG    1        3.201  -3.665   6.505  0.00  0.00    +0.149 HD
ATOM      3  C   LIG    1        1.557  -3.788   7.665  0.00  0.00    +0.285 C 
ATOM      4  O   LIG    1        0.371  -3.535   7.733  0.00  0.00    -0.267 OA
ENDROOT
BRANCH   3   5
ATOM      5  C   LIG    1        2.242  -4.459   8.808  0.00  0.00    +0.249 C 
ATOM      6  O   LIG    1        3.429  -4.712   8.740  0.00  0.00    -0.282 OA
BRANCH   5   7
ATOM      7  C   LIG    1        1.486  -4.811  10.009  0.00  0.00    +0.052 A 
ATOM      8  C   LIG    1        0.140  -4.597  10.235  0.00  0.00    +0.095 A 
ATOM      9  N   LIG    1       -0.191  -5.058  11.455  0.00  0.00    -0.360 N 
ATOM     10  C   LIG    1        0.911  -5.595  12.091  0.00  0.00    +0.047 A 
ATOM     11  C   LIG    1        1.093  -6.186  13.336  0.00  0.00    +0.026 A 
ATOM     12  C   LIG    1        2.338  -6.653  13.701  0.00  0.00    +0.002 A 
ATOM     13  C   LIG    1        3.419  -6.529  12.842  0.00  0.00    +0.001 A 
ATOM     14  C   LIG    1        3.259  -5.942  11.604  0.00  0.00    +0.011 A 
ATOM     15  H   LIG    1       -1.082  -5.018  11.836  0.00  0.00    +0.165 HD
ATOM     16  C   LIG    1        2.006  -5.473  11.221  0.00  0.00    +0.011 A 
ENDBRANCH   5   7
ENDBRANCH   3   5
BRANCH   1  17
ATOM     17  C   LIG    1        1.580  -2.804   5.436  0.00  0.00    +0.109 C 
BRANCH  17  18
ATOM     18  C   LIG    1        2.590  -2.548   4.315  0.00  0.00    +0.054 C 
BRANCH  18  22
ATOM     19  C   LIG    1        0.626  -0.619   1.042  0.00  0.00    +0.161 A 
ATOM     20  C   LIG    1        1.202   0.137   2.051  0.00  0.00    +0.049 A 
ATOM     21  C   LIG    1        1.836  -0.490   3.108  0.00  0.00    +0.007 A 
ATOM     22  C   LIG    1        1.897  -1.870   3.161  0.00  0.00    -0.042 A 
ATOM     23  C   LIG    1        1.325  -2.630   2.158  0.00  0.00    +0.053 A 
ATOM     24  C   LIG    1        0.683  -2.008   1.099  0.00  0.00    +0.162 A 
BRANCH  19  26
ATOM     25  C   LIG    1       -0.017   1.425   0.010  0.00  0.00    +0.277 C 
ATOM     26  O   LIG    1        0.002  -0.004   0.002  0.00  0.00    -0.491 OA
ENDBRANCH  19  26
BRANCH  24  27
ATOM     27  O   LIG    1        0.115  -2.754   0.114  0.00  0.00    -0.491 OA
ATOM     28  C   LIG    1        0.211  -4.174   0.238  0.00  0.00    +0.277 C 
ENDBRANCH  24  27
ENDBRANCH  18  22
ENDBRANCH  17  18
ENDBRANCH   1  17
TORSDOF 7
