REMARK  Name = ZINC01550221
REMARK                            x       y       z     vdW  Elec       q    Type
REMARK                         _______ _______ _______ _____ _____    ______ ____
ROOT
ATOM      1  C   LIG    1        5.080  -0.413   2.866  0.00  0.00    +0.052 A 
ATOM      2  C   LIG    1        4.910   0.243   4.078  0.00  0.00    +0.025 A 
ATOM      3  C   LIG    1        5.817   1.206   4.474  0.00  0.00    +0.009 A 
ATOM      4  C   LIG    1        6.894   1.517   3.665  0.00  0.00    +0.002 A 
ATOM      5  C   LIG    1        7.067   0.866   2.457  0.00  0.00    +0.009 A 
ATOM      6  C   LIG    1        6.166  -0.102   2.058  0.00  0.00    +0.025 A 
ENDROOT
BRANCH   1   7
ATOM      7  N   LIG    1        4.165  -1.388   2.462  0.00  0.00    -0.194 N 
BRANCH   7   8
ATOM      8  S   LIG    1        3.308  -1.190   1.059  0.00  0.00    +0.075 S 
ATOM      9  O   LIG    1        4.028  -0.249   0.274  0.00  0.00    -0.150 OA
ATOM     10  O   LIG    1        2.993  -2.493   0.588  0.00  0.00    -0.150 OA
BRANCH   8  14
ATOM     11  C   LIG    1       -0.621   0.774   2.152  0.00  0.00    +0.000 A 
ATOM     12  C   LIG    1        0.476   1.553   1.835  0.00  0.00    +0.002 A 
ATOM     13  C   LIG    1        1.676   0.953   1.502  0.00  0.00    +0.029 A 
ATOM     14  C   LIG    1        1.779  -0.425   1.485  0.00  0.00    +0.109 A 
ATOM     15  C   LIG    1        0.682  -1.204   1.803  0.00  0.00    +0.029 A 
ATOM     16  C   LIG    1       -0.518  -0.604   2.135  0.00  0.00    +0.002 A 
ENDBRANCH   8  14
ENDBRANCH   7   8
BRANCH   7  17
ATOM     17  C   LIG    1        3.962  -2.586   3.281  0.00  0.00    +0.244 C 
BRANCH  17  18
ATOM     18  C   LIG    1        5.015  -3.635   2.920  0.00  0.00    +0.407 C 
ATOM     19  F   LIG    1        4.895  -3.969   1.567  0.00  0.00    -0.169 F 
ATOM     20  F   LIG    1        4.822  -4.779   3.702  0.00  0.00    -0.169 F 
ATOM     21  F   LIG    1        6.292  -3.116   3.160  0.00  0.00    -0.169 F 
ENDBRANCH  17  18
ENDBRANCH   7  17
ENDBRANCH   1   7
BRANCH   4  22
ATOM     22  C   LIG    1        7.881   2.570   4.099  0.00  0.00    +0.282 C 
BRANCH  22  23
ATOM     23  C   LIG    1        7.910   3.700   3.068  0.00  0.00    +0.431 C 
ATOM     24  F   LIG    1        8.292   3.187   1.824  0.00  0.00    -0.167 F 
ATOM     25  F   LIG    1        8.826   4.676   3.472  0.00  0.00    -0.167 F 
ATOM     26  F   LIG    1        6.636   4.269   2.966  0.00  0.00    -0.167 F 
ENDBRANCH  22  23
BRANCH  22  27
ATOM     27  C   LIG    1        9.274   1.946   4.211  0.00  0.00    +0.431 C 
ATOM     28  F   LIG    1        9.220   0.831   5.054  0.00  0.00    -0.167 F 
ATOM     29  F   LIG    1       10.165   2.887   4.739  0.00  0.00    -0.167 F 
ATOM     30  F   LIG    1        9.711   1.551   2.943  0.00  0.00    -0.167 F 
ENDBRANCH  22  27
BRANCH  22  31
ATOM     31  O   LIG    1        7.490   3.094   5.370  0.00  0.00    -0.369 OA
ATOM     32  H   LIG    1        7.473   2.377   6.024  0.00  0.00    +0.211 HD
ENDBRANCH  22  31
ENDBRANCH   4  22
TORSDOF 9
