REMARK  Name = ZINC01532620
REMARK                            x       y       z     vdW  Elec       q    Type
REMARK                         _______ _______ _______ _____ _____    ______ ____
ROOT
ATOM      1  C   LIG    1       -0.019   1.526   0.010  0.00  0.00    -0.008 C 
ENDROOT
BRANCH   1   2
ATOM      2  C   LIG    1        1.417   2.055  -0.000  0.00  0.00    -0.086 C 
BRANCH   2   3
ATOM      3  N   LIG    1        1.397   3.524   0.008  0.00  0.00    +0.378 N 
ATOM      4  H   LIG    1        0.924   3.850   0.838  0.00  0.00    -0.090 HD
ATOM      5  H   LIG    1        0.909   3.858  -0.810  0.00  0.00    -0.090 HD
ATOM      6  H   LIG    1        2.343   3.873   0.001  0.00  0.00    -0.090 HD
ENDBRANCH   2   3
ENDBRANCH   1   2
BRANCH   1   7
ATOM      7  C   LIG    1        0.002  -0.004   0.002  0.00  0.00    +0.118 C 
BRANCH   7   8
ATOM      8  C   LIG    1       -1.412  -0.526   0.013  0.00  0.00    +0.305 C 
ATOM      9  O   LIG    1       -2.349   0.254   0.026  0.00  0.00    -0.251 OA
BRANCH   8  10
ATOM     10  O   LIG    1       -1.618  -1.727   0.008  0.00  0.00    -0.481 OA
ATOM     11  H   LIG    1       -0.898  -2.326  -0.002  0.00  0.00    +0.295 HD
ENDBRANCH   8  10
ENDBRANCH   7   8
ENDBRANCH   1   7
TORSDOF 5
