REMARK  Name = ZINC01482030
REMARK                            x       y       z     vdW  Elec       q    Type
REMARK                         _______ _______ _______ _____ _____    ______ ____
ROOT
ATOM      1  C   LIG    1        0.133   1.198   0.672  0.00  0.00    +0.179 C 
ATOM      2  C   LIG    1        0.271   1.756   2.032  0.00  0.00    -0.011 A 
ATOM      3  C   LIG    1        1.474   1.360   2.656  0.00  0.00    +0.007 A 
ATOM      4  C   LIG    1        1.841   1.843   3.886  0.00  0.00    +0.000 A 
ATOM      5  C   LIG    1        1.009   2.748   4.521  0.00  0.00    +0.000 A 
ATOM      6  C   LIG    1       -0.172   3.093   3.926  0.00  0.00    +0.004 A 
ATOM      7  C   LIG    1       -0.567   2.563   2.676  0.00  0.00    -0.041 A 
ATOM      8  C   LIG    1       -1.962   3.045   2.336  0.00  0.00    +0.040 C 
ATOM      9  C   LIG    1       -2.145   3.501   0.922  0.00  0.00    +0.040 C 
ATOM     10  C   LIG    1       -1.912   2.434  -0.126  0.00  0.00    -0.041 A 
ATOM     11  C   LIG    1       -2.929   2.507  -1.107  0.00  0.00    +0.004 A 
ATOM     12  C   LIG    1       -2.901   1.738  -2.240  0.00  0.00    +0.000 A 
ATOM     13  C   LIG    1       -1.851   0.857  -2.430  0.00  0.00    +0.000 A 
ATOM     14  C   LIG    1       -0.892   0.755  -1.453  0.00  0.00    +0.007 A 
ATOM     15  C   LIG    1       -0.948   1.532  -0.277  0.00  0.00    -0.011 A 
ENDROOT
BRANCH   1  16
ATOM     16  O   LIG    1        1.360   1.483  -0.003  0.00  0.00    -0.364 OA
BRANCH  16  22
ATOM     17  C   LIG    1        3.862   6.053  -2.062  0.00  0.00    -0.095 C 
ATOM     18  N   LIG    1        3.296   4.758  -1.562  0.00  0.00    +0.382 N 
ATOM     19  H   LIG    1        3.908   3.988  -1.855  0.00  0.00    -0.081 HD
ATOM     20  C   LIG    1        3.169   4.772  -0.109  0.00  0.00    -0.066 C 
ATOM     21  C   LIG    1        2.894   3.322   0.322  0.00  0.00    +0.016 C 
ATOM     22  C   LIG    1        1.561   2.870  -0.281  0.00  0.00    +0.117 C 
ATOM     23  C   LIG    1        1.579   3.089  -1.796  0.00  0.00    +0.016 C 
ATOM     24  C   LIG    1        1.880   5.590   0.134  0.00  0.00    -0.017 C 
ATOM     25  C   LIG    1        1.069   5.447  -1.171  0.00  0.00    -0.017 C 
ATOM     26  C   LIG    1        1.942   4.555  -2.083  0.00  0.00    -0.066 C 
ENDBRANCH  16  22
ENDBRANCH   1  16
TORSDOF 2
