REMARK  Name = ZINC01486389
REMARK                            x       y       z     vdW  Elec       q    Type
REMARK                         _______ _______ _______ _____ _____    ______ ____
ROOT
ATOM      1  C   LIG    1        1.164   3.165   0.008  0.00  0.00    +0.132 A 
ATOM      2  C   LIG    1        1.176   1.778   0.000  0.00  0.00    +0.046 A 
ATOM      3  C   LIG    1       -0.013   1.076   0.008  0.00  0.00    +0.007 A 
ATOM      4  C   LIG    1       -1.224   1.748   0.017  0.00  0.00    -0.045 A 
ATOM      5  C   LIG    1       -1.255   3.126   0.031  0.00  0.00    +0.020 A 
ATOM      6  C   LIG    1       -0.059   3.849   0.024  0.00  0.00    +0.078 A 
ENDROOT
BRANCH   6   7
ATOM      7  C   LIG    1       -0.085   5.324   0.032  0.00  0.00    +0.248 C 
ATOM      8  N   LIG    1       -1.263   5.978   0.047  0.00  0.00    -0.307 N 
ATOM      9  H   LIG    1       -2.095   5.478   0.052  0.00  0.00    +0.149 HD
ATOM     10  O   LIG    1        0.958   5.950   0.025  0.00  0.00    -0.270 OA
BRANCH   8  11
ATOM     11  C   LIG    1       -1.289   7.442   0.055  0.00  0.00    +0.139 C 
BRANCH  11  12
ATOM     12  C   LIG    1       -2.718   7.920   0.071  0.00  0.00    -0.030 A 
ATOM     13  C   LIG    1       -3.383   8.151  -1.119  0.00  0.00    +0.006 A 
ATOM     14  C   LIG    1       -4.696   8.584  -1.104  0.00  0.00    +0.013 A 
ATOM     15  C   LIG    1       -5.340   8.797   0.101  0.00  0.00    +0.055 A 
ATOM     16  C   LIG    1       -4.673   8.571   1.290  0.00  0.00    +0.013 A 
ATOM     17  C   LIG    1       -3.362   8.133   1.276  0.00  0.00    +0.006 A 
BRANCH  15  18
ATOM     18  C   LIG    1       -6.769   9.276   0.117  0.00  0.00    +0.417 C 
ATOM     19  F   LIG    1       -7.409   8.792   1.263  0.00  0.00    -0.166 F 
ATOM     20  F   LIG    1       -7.431   8.805  -1.022  0.00  0.00    -0.166 F 
ATOM     21  F   LIG    1       -6.792  10.674   0.125  0.00  0.00    -0.166 F 
ENDBRANCH  15  18
ENDBRANCH  11  12
ENDBRANCH   8  11
ENDBRANCH   6   7
BRANCH   1  23
ATOM     22  C   LIG    1        3.538   3.092  -0.015  0.00  0.00    +0.277 C 
ATOM     23  O   LIG    1        2.331   3.857   0.001  0.00  0.00    -0.494 OA
ENDBRANCH   1  23
BRANCH   4  24
ATOM     24  C   LIG    1       -2.514   0.969   0.019  0.00  0.00    +0.059 C 
BRANCH  24  25
ATOM     25  C   LIG    1       -2.944   0.698   1.462  0.00  0.00    +0.146 C 
ATOM     26  C   LIG    1       -4.205  -0.153   1.514  0.00  0.00    +0.234 C 
ATOM     27  N   LIG    1       -4.070  -1.331   2.098  0.00  0.00    -0.246 N 
ATOM     28  H   LIG    1       -4.848  -1.909   2.155  0.00  0.00    +0.158 HD
ATOM     29  C   LIG    1       -2.910  -1.770   2.619  0.00  0.00    +0.279 C 
ATOM     30  O   LIG    1       -2.690  -2.830   3.173  0.00  0.00    -0.263 OA
ATOM     31  O   LIG    1       -5.260   0.224   1.051  0.00  0.00    -0.274 OA
ATOM     32  S   LIG    1       -1.768  -0.432   2.309  0.00  0.00    -0.054 S 
ENDBRANCH  24  25
ENDBRANCH   4  24
TORSDOF 7
