REMARK  Name = ZINC01542393
REMARK                            x       y       z     vdW  Elec       q    Type
REMARK                         _______ _______ _______ _____ _____    ______ ____
ROOT
ATOM      1  C   LIG    1       -5.704  -6.724  -0.003  0.00  0.00    -0.011 A 
ATOM      2  C   LIG    1       -6.525  -6.913   1.050  0.00  0.00    +0.016 A 
ATOM      3  C   LIG    1       -7.839  -7.408   0.881  0.00  0.00    +0.001 A 
ATOM      4  C   LIG    1       -8.313  -7.716  -0.414  0.00  0.00    -0.007 A 
ATOM      5  C   LIG    1       -7.421  -7.510  -1.558  0.00  0.00    -0.009 A 
ATOM      6  C   LIG    1       -7.830  -7.794  -2.863  0.00  0.00    +0.021 A 
ATOM      7  C   LIG    1       -6.973  -7.573  -3.903  0.00  0.00    +0.055 A 
ATOM      8  C   LIG    1       -5.691  -7.085  -3.676  0.00  0.00    +0.013 A 
ATOM      9  C   LIG    1       -5.262  -6.803  -2.413  0.00  0.00    +0.009 A 
ATOM     10  C   LIG    1       -9.610  -8.206  -0.579  0.00  0.00    +0.029 A 
ATOM     11  C   LIG    1      -10.415  -8.385   0.524  0.00  0.00    +0.043 A 
ATOM     12 CL   LIG    1      -12.028  -8.995   0.322  0.00  0.00    -0.083 Cl
ATOM     13  C   LIG    1       -9.947  -8.082   1.798  0.00  0.00    +0.040 A 
ATOM     14  C   LIG    1       -8.684  -7.601   1.985  0.00  0.00    +0.050 A 
ATOM     15 CL   LIG    1       -8.122  -7.231   3.585  0.00  0.00    -0.083 Cl
ATOM     16  C   LIG    1       -6.121  -7.008  -1.324  0.00  0.00    -0.012 A 
ENDROOT
BRANCH   7  17
ATOM     17  C   LIG    1       -7.417  -7.874  -5.311  0.00  0.00    +0.417 C 
ATOM     18  F   LIG    1       -8.533  -7.090  -5.625  0.00  0.00    -0.166 F 
ATOM     19  F   LIG    1       -7.754  -9.228  -5.415  0.00  0.00    -0.166 F 
ATOM     20  F   LIG    1       -6.377  -7.583  -6.201  0.00  0.00    -0.166 F 
ENDBRANCH   7  17
BRANCH   1  21
ATOM     21  C   LIG    1       -4.313  -6.193   0.232  0.00  0.00    +0.143 C 
BRANCH  21  22
ATOM     22  O   LIG    1       -3.898  -6.518   1.561  0.00  0.00    -0.387 OA
ATOM     23  H   LIG    1       -4.465  -6.149   2.251  0.00  0.00    +0.210 HD
ENDBRANCH  21  22
BRANCH  21  24
ATOM     24  C   LIG    1       -4.311  -4.674   0.055  0.00  0.00    +0.017 C 
BRANCH  24  25
ATOM     25  C   LIG    1       -2.878  -4.149   0.171  0.00  0.00    -0.076 C 
BRANCH  25  26
ATOM     26  N   LIG    1       -2.859  -2.709  -0.117  0.00  0.00    +0.380 N 
ATOM     27  H   LIG    1       -3.279  -2.540  -1.018  0.00  0.00    -0.082 HD
BRANCH  26  28
ATOM     28  C   LIG    1       -3.616  -1.993   0.918  0.00  0.00    -0.079 C 
BRANCH  28  29
ATOM     29  C   LIG    1       -3.702  -0.509   0.553  0.00  0.00    -0.019 C 
BRANCH  29  31
ATOM     30  C   LIG    1       -4.577   1.720   1.266  0.00  0.00    +0.004 C 
ATOM     31  C   LIG    1       -4.491   0.236   1.631  0.00  0.00    -0.005 C 
ENDBRANCH  29  31
ENDBRANCH  28  29
ENDBRANCH  26  28
BRANCH  26  32
ATOM     32  C   LIG    1       -1.470  -2.230  -0.127  0.00  0.00    -0.079 C 
BRANCH  32  33
ATOM     33  C   LIG    1       -0.723  -2.857  -1.306  0.00  0.00    -0.019 C 
BRANCH  33  34
ATOM     34  C   LIG    1        0.741  -2.412  -1.277  0.00  0.00    -0.005 C 
ATOM     35  C   LIG    1        1.488  -3.040  -2.455  0.00  0.00    +0.004 C 
ENDBRANCH  33  34
ENDBRANCH  32  33
ENDBRANCH  26  32
ENDBRANCH  25  26
ENDBRANCH  24  25
ENDBRANCH  21  24
ENDBRANCH   1  21
TORSDOF 12
