REMARK  Name = ZINC01608615
REMARK                            x       y       z     vdW  Elec       q    Type
REMARK                         _______ _______ _______ _____ _____    ______ ____
ROOT
ATOM      1  C   LIG    1        1.468  -2.353  -2.550  0.00  0.00    +0.089 C 
ATOM      2  C   LIG    1        0.736  -1.893  -3.814  0.00  0.00    +0.004 C 
ATOM      3  C   LIG    1       -0.687  -2.457  -3.806  0.00  0.00    -0.081 C 
ATOM      4  N   LIG    1       -0.636  -3.923  -3.775  0.00  0.00    +0.379 N 
ATOM      5  H   LIG    1       -0.103  -4.257  -4.564  0.00  0.00    -0.086 HD
ATOM      6  H   LIG    1       -1.574  -4.293  -3.824  0.00  0.00    -0.086 HD
ATOM      7  C   LIG    1        0.001  -4.373  -2.531  0.00  0.00    -0.081 C 
ATOM      8  C   LIG    1        1.450  -3.884  -2.490  0.00  0.00    +0.004 C 
ENDROOT
BRANCH   1   9
ATOM      9  C   LIG    1        2.894  -1.867  -2.586  0.00  0.00    -0.031 A 
ATOM     10  C   LIG    1        3.935  -2.776  -2.566  0.00  0.00    +0.005 A 
ATOM     11  C   LIG    1        5.243  -2.330  -2.599  0.00  0.00    +0.000 A 
ATOM     12  C   LIG    1        5.510  -0.975  -2.654  0.00  0.00    +0.000 A 
ATOM     13  C   LIG    1        4.469  -0.066  -2.675  0.00  0.00    +0.000 A 
ATOM     14  C   LIG    1        3.161  -0.512  -2.646  0.00  0.00    +0.005 A 
ENDBRANCH   1   9
BRANCH   1  15
ATOM     15  C   LIG    1        0.775  -1.794  -1.334  0.00  0.00    +0.318 C 
ATOM     16  O   LIG    1        0.314  -2.540  -0.504  0.00  0.00    -0.250 OA
BRANCH  15  17
ATOM     17  O   LIG    1        0.671  -0.465  -1.174  0.00  0.00    -0.464 OA
BRANCH  17  19
ATOM     18  C   LIG    1       -0.019   1.526   0.010  0.00  0.00    +0.048 C 
ATOM     19  C   LIG    1        0.002  -0.004   0.002  0.00  0.00    +0.229 C 
ENDBRANCH  17  19
ENDBRANCH  15  17
ENDBRANCH   1  15
TORSDOF 4
