REMARK  Name = ZINC01575001
REMARK                            x       y       z     vdW  Elec       q    Type
REMARK                         _______ _______ _______ _____ _____    ______ ____
ROOT
ATOM      1  C   LIG    1        0.280   3.832  -0.197  0.00  0.00    +0.026 C 
ATOM      2  C   LIG    1        1.356   3.121   0.311  0.00  0.00    +0.096 C 
ATOM      3  C   LIG    1        1.165   1.943   1.169  0.00  0.00    +0.255 C 
ATOM      4  O   LIG    1       -0.074   1.513   1.493  0.00  0.00    -0.270 OA
ATOM      5  N   LIG    1        2.240   1.320   1.620  0.00  0.00    -0.262 N 
ATOM      6  H   LIG    1        2.133   0.440   2.272  0.00  0.00    +0.157 HD
ATOM      7  C   LIG    1        3.468   1.723   1.311  0.00  0.00    +0.164 C 
ATOM      8  S   LIG    1        4.827   0.811   1.962  0.00  0.00    -0.016 S 
ATOM      9  N   LIG    1        3.731   2.769   0.548  0.00  0.00    -0.158 NA
ATOM     10  C   LIG    1        2.752   3.510   0.017  0.00  0.00    +0.216 C 
ENDROOT
BRANCH   1  17
ATOM     11  C   LIG    1       -1.327   1.950  -0.407  0.00  0.00    +0.011 A 
ATOM     12  C   LIG    1       -2.603   1.447  -0.291  0.00  0.00    +0.039 A 
ATOM     13  C   LIG    1       -3.640   2.267   0.133  0.00  0.00    +0.123 A 
ATOM     14  F   LIG    1       -4.891   1.767   0.238  0.00  0.00    -0.205 F 
ATOM     15  C   LIG    1       -3.399   3.597   0.450  0.00  0.00    +0.039 A 
ATOM     16  C   LIG    1       -2.128   4.113   0.345  0.00  0.00    +0.011 A 
ATOM     17  C   LIG    1       -1.074   3.292  -0.083  0.00  0.00    -0.024 A 
ENDBRANCH   1  17
BRANCH  10  18
ATOM     18  O   LIG    1        3.003   4.475  -0.688  0.00  0.00    -0.494 OA
ATOM     19  H   LIG    1        2.305   4.983  -1.052  0.00  0.00    +0.294 HD
ENDBRANCH  10  18
TORSDOF 2
