REMARK  Name = ZINC01551920
REMARK                            x       y       z     vdW  Elec       q    Type
REMARK                         _______ _______ _______ _____ _____    ______ ____
ROOT
ATOM      1  C   LIG    1       -1.117   3.006  -0.900  0.00  0.00    +0.018 C 
ATOM      2  C   LIG    1       -0.789   1.527  -1.125  0.00  0.00    -0.077 C 
ATOM      3  N   LIG    1       -0.015   0.999   0.014  0.00  0.00    +0.382 N 
ATOM      4  H   LIG    1       -0.477   1.265   0.891  0.00  0.00    -0.085 HD
ATOM      5  H   LIG    1        0.031  -0.024  -0.053  0.00  0.00    -0.085 HD
ATOM      6  C   LIG    1        1.358   1.552  -0.003  0.00  0.00    -0.039 C 
ATOM      7  C   LIG    1        1.267   3.037  -0.169  0.00  0.00    -0.021 A 
ATOM      8  S   LIG    1        2.516   4.261   0.100  0.00  0.00    -0.079 S 
ATOM      9  C   LIG    1        1.608   5.680  -0.307  0.00  0.00    +0.087 A 
ATOM     10  C   LIG    1        0.358   5.172  -0.643  0.00  0.00    +0.091 A 
ATOM     11  C   LIG    1        0.179   3.735  -0.567  0.00  0.00    -0.025 A 
ENDROOT
BRANCH   9  12
ATOM     12  N   LIG    1        2.027   6.999  -0.299  0.00  0.00    -0.270 N 
ATOM     13  H   LIG    1        1.411   7.704  -0.552  0.00  0.00    +0.156 HD
ATOM     14  C   LIG    1        3.290   7.303   0.059  0.00  0.00    +0.326 C 
ATOM     15  O   LIG    1        4.060   6.420   0.375  0.00  0.00    -0.263 OA
BRANCH  14  16
ATOM     16  C   LIG    1        3.741   8.726   0.067  0.00  0.00    +0.393 C 
ATOM     17  O   LIG    1        2.971   9.608  -0.249  0.00  0.00    -0.240 OA
BRANCH  16  18
ATOM     18  O   LIG    1        5.002   9.030   0.425  0.00  0.00    -0.474 OA
ATOM     19  H   LIG    1        5.597   8.348   0.669  0.00  0.00    +0.296 HD
ENDBRANCH  16  18
ENDBRANCH  14  16
ENDBRANCH   9  12
BRANCH  10  20
ATOM     20  C   LIG    1       -0.735   6.055  -1.057  0.00  0.00    +0.339 C 
ATOM     21  O   LIG    1       -1.496   6.512  -0.225  0.00  0.00    -0.245 OA
BRANCH  20  22
ATOM     22  O   LIG    1       -0.899   6.359  -2.361  0.00  0.00    -0.477 OA
ATOM     23  H   LIG    1       -0.313   6.007  -3.001  0.00  0.00    +0.295 HD
ENDBRANCH  20  22
ENDBRANCH  10  20
TORSDOF 5
