REMARK  Name = ZINC01555311
REMARK                            x       y       z     vdW  Elec       q    Type
REMARK                         _______ _______ _______ _____ _____    ______ ____
ROOT
ATOM      1  C   LIG    1       -0.017   1.378   0.010  0.00  0.00    +0.000 A 
ATOM      2  C   LIG    1        1.171   2.086   0.002  0.00  0.00    +0.001 A 
ATOM      3  C   LIG    1        2.377   1.411  -0.013  0.00  0.00    +0.016 A 
ATOM      4  C   LIG    1        2.396   0.029  -0.020  0.00  0.00    +0.063 A 
ATOM      5  C   LIG    1        1.208  -0.679  -0.012  0.00  0.00    +0.016 A 
ATOM      6  C   LIG    1        0.002  -0.004   0.002  0.00  0.00    +0.001 A 
ENDROOT
BRANCH   4   7
ATOM      7  P   LIG    1        3.979  -0.857  -0.041  0.00  0.00    +0.358 P 
ATOM      8  O   LIG    1        4.743  -0.578   1.272  0.00  0.00    -0.253 OA
BRANCH   7   9
ATOM      9  O   LIG    1        4.824  -0.373  -1.241  0.00  0.00    -0.321 OA
ATOM     10  H   LIG    1        4.987   0.579  -1.158  0.00  0.00    +0.220 HD
ENDBRANCH   7   9
BRANCH   7  11
ATOM     11  O   LIG    1        3.708  -2.438  -0.178  0.00  0.00    -0.321 OA
ATOM     12  H   LIG    1        4.512  -2.975  -0.196  0.00  0.00    +0.220 HD
ENDBRANCH   7  11
ENDBRANCH   4   7
TORSDOF 3
