REMARK  Name = ZINC01505598
REMARK                            x       y       z     vdW  Elec       q    Type
REMARK                         _______ _______ _______ _____ _____    ______ ____
ROOT
ATOM      1  N   LIG    1       -2.407   6.097   0.059  0.00  0.00    -0.280 N 
ATOM      2  H   LIG    1       -2.366   5.260  -0.429  0.00  0.00    +0.155 HD
ATOM      3  C   LIG    1       -1.296   6.596   0.635  0.00  0.00    +0.250 C 
ATOM      4  O   LIG    1       -1.327   7.686   1.174  0.00  0.00    -0.270 OA
ENDROOT
BRANCH   1  11
ATOM      5  C   LIG    1       -6.199  10.805   0.392  0.00  0.00    +0.001 A 
ATOM      6  C   LIG    1       -7.357  10.037   0.491  0.00  0.00    +0.002 A 
ATOM      7  C   LIG    1       -7.301   8.677   0.485  0.00  0.00    +0.028 A 
ATOM      8  C   LIG    1       -6.057   8.030   0.377  0.00  0.00    +0.071 A 
ATOM      9  C   LIG    1       -4.880   8.814   0.276  0.00  0.00    +0.002 A 
ATOM     10  C   LIG    1       -3.636   8.168   0.168  0.00  0.00    +0.035 A 
ATOM     11  C   LIG    1       -3.620   6.786   0.165  0.00  0.00    +0.053 A 
ATOM     12  C   LIG    1       -4.824   6.080   0.263  0.00  0.00    +0.134 A 
ATOM     13  N   LIG    1       -5.975   6.696   0.369  0.00  0.00    -0.253 NA
ATOM     14  C   LIG    1       -4.976  10.215   0.286  0.00  0.00    +0.010 A 
ENDBRANCH   1  11
BRANCH   3  15
ATOM     15  C   LIG    1       -0.039   5.819   0.612  0.00  0.00    +0.056 A 
ATOM     16  C   LIG    1        1.121   6.324   1.212  0.00  0.00    +0.031 A 
ATOM     17  C   LIG    1        2.274   5.560   1.157  0.00  0.00    +0.037 A 
ATOM     18 BR   LIG    1        3.876   6.189   1.941  0.00  0.00    -0.049 Br
ATOM     19  C   LIG    1        2.240   4.327   0.527  0.00  0.00    +0.126 A 
ATOM     20  N   LIG    1        1.130   3.875  -0.024  0.00  0.00    -0.261 NA
ATOM     21  C   LIG    1        0.011   4.568  -0.003  0.00  0.00    +0.123 A 
ENDBRANCH   3  15
TORSDOF 2
