REMARK  Name = ZINC01532612
REMARK                            x       y       z     vdW  Elec       q    Type
REMARK                         _______ _______ _______ _____ _____    ______ ____
ROOT
ATOM      1  N   LIG    1       -1.413  -2.002   0.005  0.00  0.00    +0.379 N 
ATOM      2  H   LIG    1       -0.925  -2.337   0.822  0.00  0.00    -0.086 HD
ATOM      3  H   LIG    1       -0.941  -2.328  -0.825  0.00  0.00    -0.086 HD
ENDROOT
BRANCH   1   4
ATOM      4  C   LIG    1       -1.433  -0.534   0.013  0.00  0.00    -0.083 C 
BRANCH   4   5
ATOM      5  C   LIG    1        0.002  -0.004   0.002  0.00  0.00    -0.021 C 
BRANCH   5   6
ATOM      6  C   LIG    1       -0.019   1.526   0.010  0.00  0.00    -0.021 C 
BRANCH   6   7
ATOM      7  C   LIG    1        1.417   2.055  -0.000  0.00  0.00    -0.087 C 
BRANCH   7   8
ATOM      8  N   LIG    1        1.397   3.524   0.008  0.00  0.00    +0.378 N 
ATOM      9  H   LIG    1        2.343   3.873   0.001  0.00  0.00    -0.090 HD
ATOM     10  H   LIG    1        0.924   3.850   0.838  0.00  0.00    -0.090 HD
ATOM     11  H   LIG    1        0.909   3.858  -0.810  0.00  0.00    -0.090 HD
ENDBRANCH   7   8
ENDBRANCH   6   7
ENDBRANCH   5   6
ENDBRANCH   4   5
ENDBRANCH   1   4
BRANCH   1  12
ATOM     12  C   LIG    1       -2.792  -2.511   0.015  0.00  0.00    -0.084 C 
BRANCH  12  13
ATOM     13  C   LIG    1       -2.771  -4.041   0.007  0.00  0.00    -0.039 C 
BRANCH  13  14
ATOM     14  C   LIG    1       -4.206  -4.570   0.018  0.00  0.00    -0.088 C 
BRANCH  14  15
ATOM     15  N   LIG    1       -4.186  -6.039   0.010  0.00  0.00    +0.378 N 
ATOM     16  H   LIG    1       -5.133  -6.388   0.017  0.00  0.00    -0.090 HD
ATOM     17  H   LIG    1       -3.698  -6.373   0.827  0.00  0.00    -0.090 HD
ATOM     18  H   LIG    1       -3.714  -6.365  -0.821  0.00  0.00    -0.090 HD
ENDBRANCH  14  15
ENDBRANCH  13  14
ENDBRANCH  12  13
ENDBRANCH   1  12
TORSDOF 9
