REMARK  Name = ZINC01650601
REMARK                            x       y       z     vdW  Elec       q    Type
REMARK                         _______ _______ _______ _____ _____    ______ ____
ROOT
ATOM      1  C   LIG    1        1.133   1.775   0.489  0.00  0.00    +0.001 A 
ATOM      2  C   LIG    1       -0.035   1.074   0.257  0.00  0.00    +0.001 A 
ATOM      3  C   LIG    1       -1.225   1.748   0.028  0.00  0.00    +0.012 A 
ATOM      4  C   LIG    1       -1.246   3.137   0.043  0.00  0.00    +0.034 A 
ATOM      5  C   LIG    1       -0.057   3.850   0.279  0.00  0.00    +0.034 A 
ATOM      6  C   LIG    1       -0.087   5.328   0.286  0.00  0.00    +0.210 C 
ATOM      7  C   LIG    1       -1.365   6.036   0.046  0.00  0.00    +0.113 C 
ATOM      8  C   LIG    1       -2.504   5.346  -0.180  0.00  0.00    +0.114 C 
ATOM      9 CL   LIG    1       -3.985   6.207  -0.459  0.00  0.00    -0.077 Cl
ATOM     10  O   LIG    1        0.931   5.959   0.489  0.00  0.00    -0.285 OA
ATOM     11  C   LIG    1       -2.505   3.878  -0.193  0.00  0.00    +0.207 C 
ATOM     12  O   LIG    1       -3.539   3.272  -0.398  0.00  0.00    -0.286 OA
ATOM     13  C   LIG    1        1.129   3.161   0.501  0.00  0.00    +0.012 A 
ENDROOT
BRANCH   7  14
ATOM     14  N   LIG    1       -1.392   7.427   0.054  0.00  0.00    -0.205 N 
ATOM     15  C   LIG    1       -0.765   8.169  -0.867  0.00  0.00    +0.227 C 
ATOM     16  C   LIG    1       -1.000   9.634  -0.570  0.00  0.00    +0.106 C 
ATOM     17  C   LIG    1       -1.873   9.610   0.702  0.00  0.00    +0.106 C 
ATOM     18  O   LIG    1       -0.115   7.736  -1.794  0.00  0.00    -0.275 OA
ATOM     19  C   LIG    1       -2.044   8.133   0.986  0.00  0.00    +0.227 C 
ATOM     20  O   LIG    1       -2.671   7.665   1.911  0.00  0.00    -0.275 OA
ENDBRANCH   7  14
TORSDOF 1
