REMARK  Name = ZINC01536875
REMARK                            x       y       z     vdW  Elec       q    Type
REMARK                         _______ _______ _______ _____ _____    ______ ____
ROOT
ATOM      1  C   LIG    1        3.244  -0.256  -0.745  0.00  0.00    -0.044 A 
ATOM      2  C   LIG    1        4.460  -0.666  -0.214  0.00  0.00    +0.006 A 
ATOM      3  C   LIG    1        4.531  -1.183   1.060  0.00  0.00    +0.027 A 
ATOM      4  C   LIG    1        3.375  -1.297   1.826  0.00  0.00    +0.051 A 
ATOM      5  C   LIG    1        2.146  -0.881   1.283  0.00  0.00    +0.014 A 
ATOM      6  C   LIG    1        1.137  -1.127   2.321  0.00  0.00    +0.037 A 
ATOM      7  C   LIG    1        1.782  -1.653   3.379  0.00  0.00    +0.035 A 
ATOM      8  N   LIG    1        3.125  -1.761   3.098  0.00  0.00    -0.338 N 
ATOM      9  C   LIG    1        2.097  -0.354  -0.009  0.00  0.00    +0.015 A 
ENDROOT
BRANCH   1  11
ATOM     10  C   LIG    1        4.077   1.550  -2.225  0.00  0.00    +0.012 C 
ATOM     11  C   LIG    1        3.189   0.307  -2.142  0.00  0.00    +0.013 C 
ATOM     12  C   LIG    1        3.689  -0.744  -3.135  0.00  0.00    +0.012 C 
ENDBRANCH   1  11
BRANCH   6  13
ATOM     13  S   LIG    1       -0.590  -0.798   2.203  0.00  0.00    -0.117 S 
BRANCH  13  14
ATOM     14  C   LIG    1       -1.286  -2.333   1.532  0.00  0.00    +0.013 C 
ATOM     15  C   LIG    1       -0.660  -2.622   0.166  0.00  0.00    +0.022 C 
ATOM     16  C   LIG    1       -2.800  -2.182   1.378  0.00  0.00    +0.022 C 
ATOM     17  C   LIG    1       -0.983  -3.490   2.487  0.00  0.00    +0.022 C 
ENDBRANCH  13  14
ENDBRANCH   6  13
BRANCH   7  18
ATOM     18  C   LIG    1        1.132  -2.062   4.676  0.00  0.00    +0.072 C 
BRANCH  18  19
ATOM     19  C   LIG    1        0.815  -0.814   5.502  0.00  0.00    +0.067 C 
ATOM     20  C   LIG    1       -0.162   0.075   4.730  0.00  0.00    +0.023 C 
ATOM     21  C   LIG    1        2.106  -0.038   5.772  0.00  0.00    +0.023 C 
BRANCH  19  22
ATOM     22  C   LIG    1        0.192  -1.224   6.812  0.00  0.00    +0.311 C 
ATOM     23  O   LIG    1        0.352  -0.535   7.805  0.00  0.00    -0.250 OA
BRANCH  22  24
ATOM     24  O   LIG    1       -0.471  -2.245   6.879  0.00  0.00    -0.480 OA
ATOM     25  H   LIG    1       -0.594  -2.774   6.116  0.00  0.00    +0.295 HD
ENDBRANCH  22  24
ENDBRANCH  19  22
ENDBRANCH  18  19
ENDBRANCH   7  18
BRANCH   8  26
ATOM     26  C   LIG    1        4.137  -2.291   4.014  0.00  0.00    +0.157 C 
BRANCH  26  27
ATOM     27  C   LIG    1        4.767  -1.155   4.779  0.00  0.00    -0.028 A 
ATOM     28  C   LIG    1        5.082   0.024   4.129  0.00  0.00    +0.007 A 
ATOM     29  C   LIG    1        5.659   1.066   4.830  0.00  0.00    +0.020 A 
ATOM     30  C   LIG    1        5.922   0.929   6.181  0.00  0.00    +0.041 A 
ATOM     31 CL   LIG    1        6.648   2.237   7.061  0.00  0.00    -0.084 Cl
ATOM     32  C   LIG    1        5.606  -0.251   6.831  0.00  0.00    +0.020 A 
ATOM     33  C   LIG    1        5.024  -1.290   6.130  0.00  0.00    +0.007 A 
ENDBRANCH  26  27
ENDBRANCH   8  26
TORSDOF 9
