REMARK  Name = ZINC01492396
REMARK                            x       y       z     vdW  Elec       q    Type
REMARK                         _______ _______ _______ _____ _____    ______ ____
ROOT
ATOM      1  C   LIG    1        3.479  -2.527  -0.045  0.00  0.00    +0.052 A 
ATOM      2  C   LIG    1        3.256  -3.378   1.127  0.00  0.00    +0.016 A 
ATOM      3  C   LIG    1        3.326  -3.152   2.505  0.00  0.00    +0.031 A 
ATOM      4  C   LIG    1        3.057  -4.170   3.376  0.00  0.00    +0.042 A 
ATOM      5 CL   LIG    1        3.145  -3.888   5.086  0.00  0.00    -0.084 Cl
ATOM      6  C   LIG    1        2.712  -5.430   2.901  0.00  0.00    +0.022 A 
ATOM      7  C   LIG    1        2.637  -5.675   1.548  0.00  0.00    +0.028 A 
ATOM      8  C   LIG    1        2.907  -4.652   0.642  0.00  0.00    +0.051 A 
ATOM      9  N   LIG    1        2.912  -4.601  -0.733  0.00  0.00    -0.329 N 
ATOM     10  C   LIG    1        3.251  -3.321  -1.158  0.00  0.00    +0.142 A 
ENDROOT
BRANCH  10  11
ATOM     11  C   LIG    1        3.349  -2.900  -2.500  0.00  0.00    +0.355 C 
ATOM     12  O   LIG    1        3.104  -3.761  -3.487  0.00  0.00    -0.243 OA
BRANCH  11  13
ATOM     13  O   LIG    1        3.687  -1.641  -2.781  0.00  0.00    -0.476 OA
ATOM     14  H   LIG    1        3.859  -1.036  -2.086  0.00  0.00    +0.295 HD
ENDBRANCH  11  13
ENDBRANCH  10  11
BRANCH   1  15
ATOM     15  S   LIG    1        3.939  -0.827  -0.041  0.00  0.00    -0.086 S 
BRANCH  15  19
ATOM     16  C   LIG    1       -0.017   1.379   0.010  0.00  0.00    +0.000 A 
ATOM     17  C   LIG    1        1.170   2.090   0.002  0.00  0.00    +0.001 A 
ATOM     18  C   LIG    1        2.377   1.421  -0.013  0.00  0.00    +0.015 A 
ATOM     19  C   LIG    1        2.400   0.031  -0.021  0.00  0.00    +0.013 A 
ATOM     20  C   LIG    1        1.206  -0.680  -0.013  0.00  0.00    +0.015 A 
ATOM     21  C   LIG    1        0.002  -0.004   0.002  0.00  0.00    +0.001 A 
ENDBRANCH  15  19
ENDBRANCH   1  15
BRANCH   9  22
ATOM     22  C   LIG    1        2.602  -5.726  -1.618  0.00  0.00    +0.157 C 
BRANCH  22  23
ATOM     23  C   LIG    1        1.124  -5.741  -1.913  0.00  0.00    -0.028 A 
ATOM     24  C   LIG    1        0.263  -6.443  -1.090  0.00  0.00    +0.007 A 
ATOM     25  C   LIG    1       -1.093  -6.457  -1.360  0.00  0.00    +0.020 A 
ATOM     26  C   LIG    1       -1.588  -5.769  -2.453  0.00  0.00    +0.041 A 
ATOM     27 CL   LIG    1       -3.290  -5.787  -2.792  0.00  0.00    -0.084 Cl
ATOM     28  C   LIG    1       -0.725  -5.066  -3.276  0.00  0.00    +0.020 A 
ATOM     29  C   LIG    1        0.629  -5.048  -3.002  0.00  0.00    +0.007 A 
ENDBRANCH  22  23
ENDBRANCH   9  22
TORSDOF 6
