REMARK  Name = ZINC01665662
REMARK                            x       y       z     vdW  Elec       q    Type
REMARK                         _______ _______ _______ _____ _____    ______ ____
ROOT
ATOM      1  C   LIG    1        7.248  -2.750   2.790  0.00  0.00    +0.000 C 
ENDROOT
BRANCH   1   2
ATOM      2  C   LIG    1        5.944  -1.949   2.808  0.00  0.00    +0.000 C 
BRANCH   2   3
ATOM      3  C   LIG    1        5.430  -1.781   1.377  0.00  0.00    +0.001 C 
BRANCH   3   4
ATOM      4  C   LIG    1        4.127  -0.980   1.394  0.00  0.00    +0.015 C 
BRANCH   4   5
ATOM      5  C   LIG    1        3.612  -0.812  -0.037  0.00  0.00    +0.084 C 
BRANCH   5  14
ATOM      6  C   LIG    1        2.487   4.067   0.001  0.00  0.00    +0.000 C 
ATOM      7  C   LIG    1        3.669   3.329  -0.014  0.00  0.00    +0.002 C 
ATOM      8  C   LIG    1        3.647   1.969  -0.022  0.00  0.00    +0.019 C 
ATOM      9  C   LIG    1        2.416   1.290  -0.014  0.00  0.00    +0.060 C 
ATOM     10  C   LIG    1        1.215   2.043   0.001  0.00  0.00    +0.006 C 
ATOM     11  C   LIG    1       -0.017   1.362   0.009  0.00  0.00    +0.006 C 
ATOM     12  C   LIG    1        0.002  -0.004   0.002  0.00  0.00    +0.016 C 
ATOM     13  C   LIG    1        1.218  -0.683  -0.013  0.00  0.00    +0.085 C 
ATOM     14  N   LIG    1        2.364  -0.045  -0.021  0.00  0.00    -0.299 NA
ATOM     15  C   LIG    1        1.275   3.446   0.009  0.00  0.00    +0.005 C 
ENDBRANCH   5  14
ENDBRANCH   4   5
ENDBRANCH   3   4
ENDBRANCH   2   3
ENDBRANCH   1   2
BRANCH   1  16
ATOM     16  C   LIG    1        7.762  -2.918   4.221  0.00  0.00    +0.000 C 
BRANCH  16  17
ATOM     17  C   LIG    1        9.066  -3.719   4.204  0.00  0.00    +0.000 C 
BRANCH  17  18
ATOM     18  C   LIG    1        9.580  -3.887   5.635  0.00  0.00    +0.001 C 
BRANCH  18  19
ATOM     19  C   LIG    1       10.883  -4.688   5.618  0.00  0.00    +0.015 C 
BRANCH  19  20
ATOM     20  C   LIG    1       11.398  -4.856   7.049  0.00  0.00    +0.084 C 
BRANCH  20  21
ATOM     21  N   LIG    1       12.646  -5.623   7.033  0.00  0.00    -0.299 NA
ATOM     22  C   LIG    1       12.607  -6.919   7.229  0.00  0.00    +0.085 C 
ATOM     23  C   LIG    1       13.761  -7.697   7.218  0.00  0.00    +0.016 C 
ATOM     24  C   LIG    1       14.977  -7.111   7.009  0.00  0.00    +0.006 C 
ATOM     25  C   LIG    1       15.016  -5.719   6.804  0.00  0.00    +0.006 C 
ATOM     26  C   LIG    1       16.229  -5.045   6.585  0.00  0.00    +0.005 C 
ATOM     27  C   LIG    1       16.225  -3.698   6.390  0.00  0.00    +0.000 C 
ATOM     28  C   LIG    1       15.032  -2.977   6.407  0.00  0.00    +0.002 C 
ATOM     29  C   LIG    1       13.839  -3.597   6.619  0.00  0.00    +0.019 C 
ATOM     30  C   LIG    1       13.803  -4.987   6.823  0.00  0.00    +0.060 C 
ENDBRANCH  20  21
ENDBRANCH  19  20
ENDBRANCH  18  19
ENDBRANCH  17  18
ENDBRANCH  16  17
ENDBRANCH   1  16
TORSDOF 11
