REMARK  Name = ZINC01531764
REMARK                            x       y       z     vdW  Elec       q    Type
REMARK                         _______ _______ _______ _____ _____    ______ ____
ROOT
ATOM      1  C   LIG    1       -1.255  -2.230   0.001  0.00  0.00    +0.048 C 
ATOM      2  C   LIG    1       -1.275  -0.764   0.010  0.00  0.00    +0.165 C 
ATOM      3  C   LIG    1        0.002  -0.004   0.002  0.00  0.00    +0.162 C 
ATOM      4  C   LIG    1        1.180  -0.663  -0.019  0.00  0.00    +0.104 C 
ATOM      5  C   LIG    1        1.200  -2.129  -0.022  0.00  0.00    +0.229 C 
ATOM      6  O   LIG    1        2.260  -2.722  -0.036  0.00  0.00    -0.284 OA
ATOM      7  C   LIG    1       -0.077  -2.889  -0.014  0.00  0.00    +0.232 C 
ATOM      8  O   LIG    1       -0.059  -4.242  -0.022  0.00  0.00    -0.283 OA
ENDROOT
BRANCH   2   9
ATOM      9  O   LIG    1       -2.335  -0.171   0.024  0.00  0.00    -0.503 OA
ATOM     10  H   LIG    1       -3.086  -0.832   0.028  0.00  0.00    +0.292 HD
ENDBRANCH   2   9
BRANCH   3  11
ATOM     11  O   LIG    1       -0.016   1.349   0.009  0.00  0.00    -0.503 OA
ATOM     12  H   LIG    1       -0.964   1.669   0.025  0.00  0.00    +0.292 HD
ENDBRANCH   3  11
BRANCH   1  13
ATOM     13  C   LIG    1       -2.550  -3.001   0.009  0.00  0.00    +0.043 C 
BRANCH  13  14
ATOM     14  C   LIG    1       -3.038  -3.163   1.450  0.00  0.00    +0.005 C 
BRANCH  14  15
ATOM     15  C   LIG    1       -4.353  -3.946   1.457  0.00  0.00    +0.000 C 
BRANCH  15  16
ATOM     16  C   LIG    1       -4.842  -4.107   2.898  0.00  0.00    +0.000 C 
BRANCH  16  17
ATOM     17  C   LIG    1       -6.156  -4.890   2.906  0.00  0.00    +0.000 C 
BRANCH  17  18
ATOM     18  C   LIG    1       -6.645  -5.052   4.347  0.00  0.00    +0.000 C 
BRANCH  18  19
ATOM     19  C   LIG    1       -7.959  -5.835   4.355  0.00  0.00    -0.000 C 
BRANCH  19  20
ATOM     20  C   LIG    1       -8.448  -5.997   5.795  0.00  0.00    -0.000 C 
BRANCH  20  21
ATOM     21  C   LIG    1       -9.762  -6.779   5.803  0.00  0.00    -0.000 C 
BRANCH  21  23
ATOM     22  C   LIG    1      -11.566  -7.724   7.252  0.00  0.00    +0.004 C 
ATOM     23  C   LIG    1      -10.251  -6.941   7.244  0.00  0.00    -0.003 C 
ENDBRANCH  21  23
ENDBRANCH  20  21
ENDBRANCH  19  20
ENDBRANCH  18  19
ENDBRANCH  17  18
ENDBRANCH  16  17
ENDBRANCH  15  16
ENDBRANCH  14  15
ENDBRANCH  13  14
ENDBRANCH   1  13
TORSDOF 12
