REMARK  Name = ZINC01587126
REMARK                            x       y       z     vdW  Elec       q    Type
REMARK                         _______ _______ _______ _____ _____    ______ ____
ROOT
ATOM      1  C   LIG    1       -3.342   3.333   4.077  0.00  0.00    +0.188 C 
ATOM      2  C   LIG    1       -2.393   2.708   3.086  0.00  0.00    +0.008 A 
ATOM      3  C   LIG    1       -2.647   2.872   1.718  0.00  0.00    +0.035 A 
ATOM      4  C   LIG    1       -1.807   2.305   0.784  0.00  0.00    +0.071 A 
ATOM      5  N   LIG    1       -0.728   1.573   1.195  0.00  0.00    -0.302 N 
ATOM      6  C   LIG    1       -0.013   1.086   0.008  0.00  0.00    +0.162 C 
ATOM      7  C   LIG    1       -0.769   1.599  -1.190  0.00  0.00    +0.000 A 
ATOM      8  C   LIG    1       -0.577   1.466  -2.530  0.00  0.00    +0.017 A 
ATOM      9  C   LIG    1       -1.496   2.089  -3.398  0.00  0.00    +0.003 A 
ATOM     10  C   LIG    1       -1.362   1.994  -4.792  0.00  0.00    +0.042 A 
ATOM     11  C   LIG    1       -2.270   2.608  -5.599  0.00  0.00    +0.122 A 
ATOM     12  C   LIG    1       -3.333   3.332  -5.061  0.00  0.00    +0.034 A 
ATOM     13  C   LIG    1       -3.493   3.446  -3.715  0.00  0.00    +0.030 A 
ATOM     14  C   LIG    1       -2.576   2.824  -2.846  0.00  0.00    +0.072 A 
ATOM     15  N   LIG    1       -2.713   2.921  -1.523  0.00  0.00    -0.245 NA
ATOM     16  C   LIG    1       -0.478   1.403   2.506  0.00  0.00    +0.259 A 
ATOM     17  O   LIG    1        0.483   0.736   2.855  0.00  0.00    -0.267 OA
ATOM     18  C   LIG    1       -1.857   2.339  -0.697  0.00  0.00    +0.093 A 
ATOM     19  C   LIG    1       -1.312   1.985   3.484  0.00  0.00    +0.061 A 
ATOM     20  C   LIG    1       -0.964   1.785   4.935  0.00  0.00    +0.273 C 
ATOM     21  O   LIG    1       -2.095   2.115   5.783  0.00  0.00    -0.457 OA
ATOM     22  C   LIG    1       -2.731   3.263   5.458  0.00  0.00    +0.344 C 
ATOM     23  O   LIG    1       -2.808   4.187   6.232  0.00  0.00    -0.247 OA
ENDROOT
BRANCH   1  25
ATOM     24  C   LIG    1       -5.632   3.207   5.071  0.00  0.00    +0.007 C 
ATOM     25  C   LIG    1       -4.670   2.571   4.065  0.00  0.00    +0.048 C 
ENDBRANCH   1  25
BRANCH   1  26
ATOM     26  O   LIG    1       -3.571   4.698   3.724  0.00  0.00    -0.373 OA
ATOM     27  H   LIG    1       -4.174   5.163   4.320  0.00  0.00    +0.211 HD
ENDBRANCH   1  26
BRANCH  11  28
ATOM     28  N   LIG    1       -2.127   2.507  -7.069  0.00  0.00    +0.006 N 
ATOM     29  O   LIG    1       -1.202   1.877  -7.549  0.00  0.00    -0.130 OA
BRANCH  28  30
ATOM     30  O   LIG    1       -2.935   3.053  -7.799  0.00  0.00    -0.396 OA
ATOM     31  H   LIG    1       -3.647   3.538  -7.430  0.00  0.00    +0.329 HD
ENDBRANCH  28  30
ENDBRANCH  11  28
TORSDOF 4
