REMARK  Name = ZINC01530571
REMARK                            x       y       z     vdW  Elec       q    Type
REMARK                         _______ _______ _______ _____ _____    ______ ____
ROOT
ATOM      1  C   LIG    1        6.912  -3.967  -1.802  0.00  0.00    -0.017 C 
ENDROOT
BRANCH   1   2
ATOM      2  C   LIG    1        6.691  -2.472  -2.035  0.00  0.00    -0.079 C 
BRANCH   2   6
ATOM      3  N   LIG    1        3.502  -0.645  -0.035  0.00  0.00    -0.303 N 
ATOM      4  C   LIG    1        4.787   0.071  -0.037  0.00  0.00    +0.089 C 
ATOM      5  C   LIG    1        5.654  -0.492  -1.168  0.00  0.00    -0.060 C 
ATOM      6  N   LIG    1        5.772  -1.947  -1.016  0.00  0.00    +0.382 N 
ATOM      7  H   LIG    1        6.133  -2.160  -0.099  0.00  0.00    -0.082 HD
ATOM      8  C   LIG    1        4.454  -2.575  -1.179  0.00  0.00    -0.060 C 
ATOM      9  C   LIG    1        3.528  -2.116  -0.043  0.00  0.00    +0.089 C 
BRANCH   3  13
ATOM     10  C   LIG    1       -0.017   1.382   0.010  0.00  0.00    +0.039 A 
ATOM     11  C   LIG    1        1.192   2.061   0.002  0.00  0.00    +0.116 A 
ATOM     12  N   LIG    1        2.320   1.371  -0.013  0.00  0.00    -0.223 NA
ATOM     13  C   LIG    1        2.303   0.046  -0.020  0.00  0.00    +0.218 A 
ATOM     14  N   LIG    1        1.165  -0.633  -0.013  0.00  0.00    -0.223 NA
ATOM     15  C   LIG    1        0.002  -0.004   0.002  0.00  0.00    +0.116 A 
ENDBRANCH   3  13
ENDBRANCH   2   6
ENDBRANCH   1   2
BRANCH   1  16
ATOM     16  C   LIG    1        7.870  -4.513  -2.863  0.00  0.00    +0.018 C 
BRANCH  16  17
ATOM     17  C   LIG    1        8.091  -6.009  -2.629  0.00  0.00    +0.116 C 
BRANCH  17  18
ATOM     18  N   LIG    1        9.007  -6.532  -3.645  0.00  0.00    -0.242 N 
ATOM     19  C   LIG    1        8.494  -7.000  -4.792  0.00  0.00    +0.222 C 
ATOM     20  C   LIG    1        9.380  -7.569  -5.871  0.00  0.00    +0.103 C 
ATOM     21  C   LIG    1       10.754  -6.907  -5.793  0.00  0.00    -0.013 C 
ATOM     22  C   LIG    1       11.319  -7.061  -4.381  0.00  0.00    +0.103 C 
ATOM     23  C   LIG    1       11.707  -7.541  -6.816  0.00  0.00    +0.008 C 
ATOM     24  C   LIG    1       12.141  -6.408  -7.770  0.00  0.00    +0.001 C 
ATOM     25  C   LIG    1       11.938  -5.115  -6.942  0.00  0.00    +0.001 C 
ATOM     26  C   LIG    1       10.639  -5.414  -6.151  0.00  0.00    +0.008 C 
ATOM     27  O   LIG    1        7.295  -6.966  -4.965  0.00  0.00    -0.275 OA
ATOM     28  C   LIG    1       10.324  -6.517  -3.390  0.00  0.00    +0.222 C 
ATOM     29  O   LIG    1       10.720  -6.060  -2.339  0.00  0.00    -0.275 OA
ENDBRANCH  17  18
ENDBRANCH  16  17
ENDBRANCH   1  16
TORSDOF 6
