REMARK  Name = ZINC01485058
REMARK                            x       y       z     vdW  Elec       q    Type
REMARK                         _______ _______ _______ _____ _____    ______ ____
ROOT
ATOM      1  C   LIG    1        1.071   5.944   0.022  0.00  0.00    -0.001 A 
ATOM      2  C   LIG    1        2.289   5.271   0.007  0.00  0.00    +0.008 A 
ATOM      3  C   LIG    1        2.340   3.911   0.000  0.00  0.00    +0.009 A 
ATOM      4  C   LIG    1        1.147   3.168   0.008  0.00  0.00    -0.014 A 
ATOM      5  C   LIG    1        1.163   1.762   0.000  0.00  0.00    +0.008 A 
ATOM      6  C   LIG    1       -0.013   1.076   0.008  0.00  0.00    +0.001 A 
ATOM      7  C   LIG    1       -1.234   1.746   0.018  0.00  0.00    +0.001 A 
ATOM      8  C   LIG    1       -1.288   3.106   0.031  0.00  0.00    +0.012 A 
ATOM      9  C   LIG    1       -0.096   3.848   0.024  0.00  0.00    +0.024 A 
ATOM     10  C   LIG    1       -0.111   5.258   0.031  0.00  0.00    +0.128 A 
ENDROOT
BRANCH  10  11
ATOM     11  O   LIG    1       -1.291   5.929   0.046  0.00  0.00    -0.506 OA
ATOM     12  H   LIG    1       -1.642   6.128  -0.833  0.00  0.00    +0.292 HD
ENDBRANCH  10  11
BRANCH   1  13
ATOM     13  C   LIG    1        1.054   7.451   0.030  0.00  0.00    +0.074 C 
BRANCH  13  17
ATOM     14  C   LIG    1        0.726   8.851   4.053  0.00  0.00    +0.000 A 
ATOM     15  C   LIG    1        1.972   8.637   3.495  0.00  0.00    +0.000 A 
ATOM     16  C   LIG    1        2.079   8.184   2.193  0.00  0.00    +0.004 A 
ATOM     17  C   LIG    1        0.938   7.945   1.449  0.00  0.00    -0.043 A 
ATOM     18  C   LIG    1       -0.308   8.164   2.005  0.00  0.00    +0.004 A 
ATOM     19  C   LIG    1       -0.415   8.613   3.309  0.00  0.00    +0.000 A 
ENDBRANCH  13  17
ENDBRANCH   1  13
TORSDOF 3
