REMARK  Name = ZINC01550770
REMARK                            x       y       z     vdW  Elec       q    Type
REMARK                         _______ _______ _______ _____ _____    ______ ____
ROOT
ATOM      1  C   LIG    1       -0.889   6.474   1.431  0.00  0.00    -0.041 A 
ATOM      2  C   LIG    1        0.175   5.606   1.589  0.00  0.00    +0.004 A 
ATOM      3  C   LIG    1       -0.020   4.248   1.439  0.00  0.00    +0.005 A 
ATOM      4  C   LIG    1       -1.278   3.746   1.131  0.00  0.00    -0.038 A 
ATOM      5  C   LIG    1       -2.338   4.610   0.978  0.00  0.00    -0.038 A 
ATOM      6  C   LIG    1       -3.731   4.136   0.653  0.00  0.00    -0.010 C 
ATOM      7  C   LIG    1       -4.348   5.064  -0.395  0.00  0.00    +0.016 C 
ATOM      8  C   LIG    1       -4.584   4.170   1.922  0.00  0.00    +0.016 C 
ATOM      9  C   LIG    1       -3.698   2.710   0.106  0.00  0.00    +0.012 C 
ATOM     10  C   LIG    1       -2.886   1.841   1.072  0.00  0.00    +0.012 C 
ATOM     11  C   LIG    1       -1.419   2.254   0.977  0.00  0.00    -0.010 C 
ATOM     12  C   LIG    1       -0.625   1.555   2.082  0.00  0.00    +0.016 C 
ATOM     13  C   LIG    1       -0.864   1.834  -0.386  0.00  0.00    +0.016 C 
ATOM     14  C   LIG    1       -2.139   5.977   1.128  0.00  0.00    +0.008 A 
ENDROOT
BRANCH   1  17
ATOM     15  C   LIG    1       -0.125   8.455   2.926  0.00  0.00    +0.023 C 
ATOM     16  C   LIG    1       -1.595   8.696   2.573  0.00  0.00    +0.020 C 
ATOM     17  C   LIG    1       -0.684   7.958   1.591  0.00  0.00    -0.000 C 
ATOM     18  C   LIG    1       -0.258   8.705   0.325  0.00  0.00    +0.017 C 
BRANCH  15  20
ATOM     19  C   LIG    1        1.395   7.360   4.523  0.00  0.00    -0.001 C 
ATOM     20  C   LIG    1        0.177   7.423   3.981  0.00  0.00    -0.022 C 
BRANCH  19  22
ATOM     21  C   LIG    1        0.615   5.396   5.990  0.00  0.00    +0.044 C 
ATOM     22  C   LIG    1        1.688   6.357   5.548  0.00  0.00    -0.044 C 
ATOM     23  C   LIG    1        2.923   6.293   6.097  0.00  0.00    +0.094 C 
BRANCH  23  24
ATOM     24  C   LIG    1        3.263   5.214   6.951  0.00  0.00    +0.330 C 
ATOM     25  O   LIG    1        2.465   4.318   7.147  0.00  0.00    -0.246 OA
BRANCH  24  26
ATOM     26  O   LIG    1        4.474   5.181   7.546  0.00  0.00    -0.478 OA
ATOM     27  H   LIG    1        5.089   5.871   7.395  0.00  0.00    +0.295 HD
ENDBRANCH  24  26
ENDBRANCH  23  24
ENDBRANCH  19  22
ENDBRANCH  15  20
ENDBRANCH   1  17
TORSDOF 5
