REMARK  Name = ZINC01569733
REMARK                            x       y       z     vdW  Elec       q    Type
REMARK                         _______ _______ _______ _____ _____    ______ ____
ROOT
ATOM      1  CA  PHE A  1       -2.945   0.711   1.462  0.00  0.00    +0.017 C 
ENDROOT
BRANCH   1   2
ATOM      2  N   PHE A  1       -1.945  -0.159   2.107  0.00  0.00    +0.386 N 
ATOM      3  H1  PHE A  1       -1.025   0.296   2.064  0.00  0.00    -0.089 HD
ATOM      4  H2  PHE A  1       -1.897  -1.054   1.623  0.00  0.00    -0.089 HD
ATOM      5  H3  PHE A  1       -2.193  -0.313   3.083  0.00  0.00    -0.089 HD
ENDBRANCH   1   2
BRANCH   1   6
ATOM      6  C   PHE A  1       -4.299   0.049   1.467  0.00  0.00    +0.199 C 
ATOM      7  N   GLY A  2       -5.412   0.791   1.308  0.00  0.00    -0.306 N 
ATOM      8  H   GLY A  2       -5.343   1.751   1.190  0.00  0.00    +0.149 HD
ATOM      9  O   PHE A  1       -4.386  -1.152   1.614  0.00  0.00    -0.278 OA
BRANCH   7  10
ATOM     10  CA  GLY A  2       -6.729   0.147   1.312  0.00  0.00    +0.224 C 
BRANCH  10  11
ATOM     11  C   GLY A  2       -7.799   1.190   1.118  0.00  0.00    +0.322 C 
ATOM     12  O   GLY A  2       -7.493   2.352   0.989  0.00  0.00    -0.249 OA
BRANCH  11  13
ATOM     13  OXT GLY A  2       -9.091   0.828   1.088  0.00  0.00    -0.480 OA
ATOM     14  HXT GLY A  2       -9.328  -0.073   1.188  0.00  0.00    +0.295 HD
ENDBRANCH  11  13
ENDBRANCH  10  11
ENDBRANCH   7  10
ENDBRANCH   1   6
BRANCH   1  15
ATOM     15  CB  PHE A  1       -2.514   0.980   0.019  0.00  0.00    +0.028 C 
BRANCH  15  19
ATOM     16  CZ  PHE A  1        1.156   3.165   0.008  0.00  0.00    +0.000 A 
ATOM     17  CE1 PHE A  1        1.175   1.783   0.000  0.00  0.00    +0.000 A 
ATOM     18  CD1 PHE A  1       -0.013   1.076   0.008  0.00  0.00    +0.003 A 
ATOM     19  CG  PHE A  1       -1.219   1.751   0.017  0.00  0.00    -0.048 A 
ATOM     20  CD2 PHE A  1       -1.238   3.133   0.030  0.00  0.00    +0.003 A 
ATOM     21  CE2 PHE A  1       -0.050   3.840   0.022  0.00  0.00    +0.000 A 
ENDBRANCH  15  19
ENDBRANCH   1  15
TORSDOF 7
