REMARK  Name = ZINC01433057
REMARK                            x       y       z     vdW  Elec       q    Type
REMARK                         _______ _______ _______ _____ _____    ______ ____
ROOT
ATOM      1  C   LIG    1        0.856   1.954   0.004  0.00  0.00    +0.237 C 
ATOM      2  N   LIG    1       -0.063   1.014   0.008  0.00  0.00    -0.292 N 
ATOM      3  H   LIG    1       -1.057   1.268   0.019  0.00  0.00    +0.301 HD
ATOM      4  H   LIG    1        0.212   0.032   0.000  0.00  0.00    +0.301 HD
ENDROOT
BRANCH   1   7
ATOM      5  C   LIG    1        2.823   0.561  -0.960  0.00  0.00    +0.016 C 
ATOM      6  C   LIG    1        2.788   0.307   0.549  0.00  0.00    +0.016 C 
ATOM      7  C   LIG    1        2.333   1.657  -0.011  0.00  0.00    +0.100 C 
ENDBRANCH   1   7
BRANCH   1   8
ATOM      8  N   LIG    1        0.419   3.252   0.016  0.00  0.00    -0.254 N 
ATOM      9  H   LIG    1        1.061   3.980   0.013  0.00  0.00    +0.288 HD
ATOM     10  H   LIG    1       -0.532   3.444   0.026  0.00  0.00    +0.288 HD
ENDBRANCH   1   8
TORSDOF 2
