REMARK  Name = ZINC01481877
REMARK                            x       y       z     vdW  Elec       q    Type
REMARK                         _______ _______ _______ _____ _____    ______ ____
ROOT
ATOM      1  C   LIG    1        1.724  -4.021   2.161  0.00  0.00    +0.051 C 
ATOM      2  C   LIG    1        0.379  -4.617   1.912  0.00  0.00    -0.026 A 
ATOM      3  C   LIG    1       -0.089  -4.629   0.601  0.00  0.00    +0.005 A 
ATOM      4  C   LIG    1       -1.330  -5.147   0.299  0.00  0.00    +0.000 A 
ATOM      5  C   LIG    1       -2.132  -5.661   1.301  0.00  0.00    +0.001 A 
ATOM      6  C   LIG    1       -1.678  -5.661   2.603  0.00  0.00    +0.015 A 
ATOM      7  C   LIG    1       -0.420  -5.147   2.909  0.00  0.00    +0.016 A 
ATOM      8  S   LIG    1        0.139  -5.206   4.578  0.00  0.00    -0.089 S 
ATOM      9  C   LIG    1        1.892  -5.115   4.442  0.00  0.00    +0.016 A 
ATOM     10  C   LIG    1        2.672  -5.597   5.490  0.00  0.00    +0.015 A 
ATOM     11  C   LIG    1        4.048  -5.553   5.411  0.00  0.00    +0.001 A 
ATOM     12  C   LIG    1        4.650  -5.027   4.282  0.00  0.00    +0.000 A 
ATOM     13  C   LIG    1        3.879  -4.545   3.246  0.00  0.00    +0.005 A 
ATOM     14  C   LIG    1        2.489  -4.578   3.316  0.00  0.00    -0.026 A 
ENDROOT
BRANCH   1  15
ATOM     15  C   LIG    1        1.545  -2.519   2.389  0.00  0.00    +0.014 C 
BRANCH  15  22
ATOM     16  C   LIG    1        3.913   1.715   3.055  0.00  0.00    -0.096 C 
ATOM     17  N   LIG    1        4.058   0.315   2.631  0.00  0.00    +0.378 N 
ATOM     18  H   LIG    1        4.702  -0.157   3.248  0.00  0.00    -0.082 HD
ATOM     19  C   LIG    1        4.577   0.272   1.259  0.00  0.00    -0.079 C 
ATOM     20  C   LIG    1        4.806  -1.182   0.842  0.00  0.00    -0.018 C 
ATOM     21  C   LIG    1        3.478  -1.943   0.912  0.00  0.00    -0.000 C 
ATOM     22  C   LIG    1        2.909  -1.828   2.329  0.00  0.00    -0.027 C 
ATOM     23  C   LIG    1        2.750  -0.350   2.691  0.00  0.00    -0.076 C 
ENDBRANCH  15  22
ENDBRANCH   1  15
TORSDOF 2
