REMARK  Name = ZINC01530695
REMARK                            x       y       z     vdW  Elec       q    Type
REMARK                         _______ _______ _______ _____ _____    ______ ____
ROOT
ATOM      1  N   LIG    1        3.420   2.565   1.222  0.00  0.00    -0.298 N 
ATOM      2  C   LIG    1        4.014   2.609   2.481  0.00  0.00    +0.048 A 
ATOM      3  C   LIG    1        3.203   2.526   3.609  0.00  0.00    +0.024 A 
ATOM      4  C   LIG    1        3.760   2.561   4.873  0.00  0.00    +0.002 A 
ATOM      5  C   LIG    1        5.128   2.679   5.028  0.00  0.00    +0.001 A 
ATOM      6  C   LIG    1        5.944   2.765   3.914  0.00  0.00    +0.017 A 
ATOM      7  C   LIG    1        5.391   2.733   2.642  0.00  0.00    +0.034 A 
ATOM      8  S   LIG    1        6.445   2.854   1.235  0.00  0.00    -0.086 S 
ATOM      9  C   LIG    1        5.351   3.271  -0.082  0.00  0.00    +0.034 A 
ATOM     10  C   LIG    1        5.870   3.787  -1.260  0.00  0.00    +0.018 A 
ATOM     11  C   LIG    1        5.034   4.109  -2.307  0.00  0.00    +0.016 A 
ATOM     12  C   LIG    1        3.664   3.931  -2.175  0.00  0.00    +0.009 A 
ATOM     13  C   LIG    1        3.139   3.418  -0.997  0.00  0.00    +0.039 A 
ATOM     14  C   LIG    1        3.981   3.081   0.057  0.00  0.00    +0.049 A 
ENDROOT
BRANCH  12  15
ATOM     15  S   LIG    1        2.589   4.355  -3.506  0.00  0.00    -0.129 S 
ATOM     16  C   LIG    1        3.709   4.967  -4.796  0.00  0.00    +0.090 C 
ENDBRANCH  12  15
BRANCH   1  17
ATOM     17  C   LIG    1        2.109   1.920   1.115  0.00  0.00    +0.109 C 
BRANCH  17  18
ATOM     18  C   LIG    1        1.009   2.966   1.309  0.00  0.00    +0.004 C 
BRANCH  18  26
ATOM     19  C   LIG    1       -1.143   3.853   2.878  0.00  0.00    -0.096 C 
ATOM     20  N   LIG    1       -1.407   3.263   1.559  0.00  0.00    +0.380 N 
ATOM     21  H   LIG    1       -1.408   3.991   0.861  0.00  0.00    -0.082 HD
ATOM     22  C   LIG    1       -2.718   2.602   1.573  0.00  0.00    -0.079 C 
ATOM     23  C   LIG    1       -3.033   2.056   0.179  0.00  0.00    -0.019 C 
ATOM     24  C   LIG    1       -1.954   1.047  -0.224  0.00  0.00    -0.003 C 
ATOM     25  C   LIG    1       -0.584   1.727  -0.164  0.00  0.00    -0.015 C 
ATOM     26  C   LIG    1       -0.359   2.285   1.243  0.00  0.00    -0.067 C 
ENDBRANCH  18  26
ENDBRANCH  17  18
ENDBRANCH   1  17
TORSDOF 4
