REMARK  Name = ZINC01530568
REMARK                            x       y       z     vdW  Elec       q    Type
REMARK                         _______ _______ _______ _____ _____    ______ ____
ROOT
ATOM      1  C   LIG    1        6.341  -0.622  -3.490  0.00  0.00    +0.121 A 
ATOM      2  C   LIG    1        6.987   0.087  -2.487  0.00  0.00    +0.046 A 
ATOM      3  C   LIG    1        8.353   0.278  -2.549  0.00  0.00    +0.007 A 
ATOM      4  C   LIG    1        9.077  -0.236  -3.609  0.00  0.00    -0.045 A 
ATOM      5  C   LIG    1        8.436  -0.942  -4.610  0.00  0.00    +0.007 A 
ATOM      6  C   LIG    1        7.070  -1.141  -4.550  0.00  0.00    +0.046 A 
ENDROOT
BRANCH   1   7
ATOM      7  O   LIG    1        4.996  -0.812  -3.431  0.00  0.00    -0.489 OA
BRANCH   7   8
ATOM      8  C   LIG    1        4.310  -0.249  -2.312  0.00  0.00    +0.258 C 
BRANCH   8   9
ATOM      9  C   LIG    1        2.816  -0.564  -2.418  0.00  0.00    +0.135 C 
BRANCH   9  10
ATOM     10  O   LIG    1        2.272   0.093  -3.564  0.00  0.00    -0.390 OA
ATOM     11  H   LIG    1        2.360   1.056  -3.545  0.00  0.00    +0.210 HD
ENDBRANCH   9  10
BRANCH   9  12
ATOM     12  C   LIG    1        2.100  -0.070  -1.159  0.00  0.00    -0.047 C 
BRANCH  12  13
ATOM     13  N   LIG    1        0.690  -0.478  -1.207  0.00  0.00    +0.382 N 
ATOM     14  H   LIG    1        0.251  -0.077  -2.022  0.00  0.00    -0.085 HD
ATOM     15  H   LIG    1        0.632  -1.484  -1.254  0.00  0.00    -0.085 HD
BRANCH  13  17
ATOM     16  C   LIG    1       -0.019   1.526   0.010  0.00  0.00    -0.014 C 
ATOM     17  C   LIG    1        0.002  -0.004   0.002  0.00  0.00    -0.078 C 
ATOM     18  C   LIG    1       -1.433  -0.534   0.013  0.00  0.00    -0.014 C 
ENDBRANCH  13  17
ENDBRANCH  12  13
ENDBRANCH   9  12
ENDBRANCH   8   9
ENDBRANCH   7   8
ENDBRANCH   1   7
BRANCH   4  19
ATOM     19  C   LIG    1       10.568  -0.025  -3.675  0.00  0.00    +0.063 C 
BRANCH  19  20
ATOM     20  C   LIG    1       11.278  -1.179  -2.963  0.00  0.00    +0.164 C 
BRANCH  20  21
ATOM     21  O   LIG    1       12.691  -0.979  -3.025  0.00  0.00    -0.379 OA
BRANCH  21  22
ATOM     22  C   LIG    1       13.452  -2.007  -2.386  0.00  0.00    +0.163 C 
BRANCH  22  23
ATOM     23  C   LIG    1       14.944  -1.691  -2.514  0.00  0.00    +0.015 C 
ATOM     24  C   LIG    1       15.807  -2.668  -3.314  0.00  0.00    +0.006 C 
ATOM     25  C   LIG    1       15.925  -2.615  -1.790  0.00  0.00    +0.006 C 
ENDBRANCH  22  23
ENDBRANCH  21  22
ENDBRANCH  20  21
ENDBRANCH  19  20
ENDBRANCH   4  19
TORSDOF 12
