REMARK  Name = ZINC01590838
REMARK                            x       y       z     vdW  Elec       q    Type
REMARK                         _______ _______ _______ _____ _____    ______ ____
ROOT
ATOM      1  C   LIG    1        6.257  -0.808  -0.507  0.00  0.00    +0.026 A 
ATOM      2  C   LIG    1        6.184  -2.196  -0.660  0.00  0.00    +0.012 A 
ATOM      3  C   LIG    1        7.334  -2.953  -0.631  0.00  0.00    +0.012 A 
ATOM      4  C   LIG    1        8.574  -2.334  -0.441  0.00  0.00    +0.026 A 
ATOM      5  C   LIG    1        8.646  -0.947  -0.282  0.00  0.00    +0.012 A 
ATOM      6  C   LIG    1        7.497  -0.189  -0.315  0.00  0.00    +0.012 A 
ENDROOT
BRANCH   1   7
ATOM      7  C   LIG    1        5.024   0.005  -0.542  0.00  0.00    +0.233 C 
ATOM      8  O   LIG    1        5.094   1.215  -0.501  0.00  0.00    -0.283 OA
BRANCH   7   9
ATOM      9  C   LIG    1        3.693  -0.663  -0.628  0.00  0.00    +0.233 C 
ATOM     10  O   LIG    1        3.221  -1.203   0.350  0.00  0.00    -0.283 OA
BRANCH   9  14
ATOM     11  C   LIG    1        1.559  -0.676  -4.297  0.00  0.00    +0.000 A 
ATOM     12  C   LIG    1        2.743   0.034  -4.192  0.00  0.00    +0.001 A 
ATOM     13  C   LIG    1        3.442   0.043  -3.004  0.00  0.00    +0.012 A 
ATOM     14  C   LIG    1        2.952  -0.667  -1.903  0.00  0.00    +0.026 A 
ATOM     15  C   LIG    1        1.754  -1.381  -2.017  0.00  0.00    +0.012 A 
ATOM     16  C   LIG    1        1.067  -1.381  -3.212  0.00  0.00    +0.001 A 
ENDBRANCH   9  14
ENDBRANCH   7   9
ENDBRANCH   1   7
BRANCH   4  17
ATOM     17  C   LIG    1        9.807  -3.147  -0.406  0.00  0.00    +0.233 C 
ATOM     18  O   LIG    1       10.889  -2.603  -0.337  0.00  0.00    -0.283 OA
BRANCH  17  19
ATOM     19  C   LIG    1        9.721  -4.635  -0.455  0.00  0.00    +0.233 C 
ATOM     20  O   LIG    1        9.373  -5.256   0.528  0.00  0.00    -0.283 OA
BRANCH  19  21
ATOM     21  C   LIG    1       10.059  -5.352  -1.699  0.00  0.00    +0.026 A 
ATOM     22  C   LIG    1       10.555  -4.650  -2.803  0.00  0.00    +0.012 A 
ATOM     23  C   LIG    1       10.873  -5.328  -3.959  0.00  0.00    +0.001 A 
ATOM     24  C   LIG    1       10.693  -6.699  -4.035  0.00  0.00    +0.000 A 
ATOM     25  C   LIG    1       10.197  -7.400  -2.949  0.00  0.00    +0.001 A 
ATOM     26  C   LIG    1        9.879  -6.737  -1.783  0.00  0.00    +0.012 A 
ENDBRANCH  19  21
ENDBRANCH  17  19
ENDBRANCH   4  17
TORSDOF 6
