REMARK  Name = ZINC01531911
REMARK                            x       y       z     vdW  Elec       q    Type
REMARK                         _______ _______ _______ _____ _____    ______ ____
ROOT
ATOM      1  C   LIG    1        0.040   1.550  -0.647  0.00  0.00    +0.008 C 
ATOM      2  C   LIG    1        0.032   0.024  -0.538  0.00  0.00    -0.007 C 
ATOM      3  C   LIG    1        0.837  -0.567  -1.694  0.00  0.00    +0.039 C 
ATOM      4  C   LIG    1        1.900   0.421  -2.128  0.00  0.00    -0.032 A 
ATOM      5  C   LIG    1        1.571   1.516  -2.893  0.00  0.00    +0.054 A 
ATOM      6  C   LIG    1        2.563   2.395  -3.308  0.00  0.00    +0.170 A 
ATOM      7  C   LIG    1        3.888   2.168  -2.947  0.00  0.00    +0.208 A 
ATOM      8  O   LIG    1        4.662   3.161  -3.481  0.00  0.00    -0.449 OA
ATOM      9  C   LIG    1        3.853   3.767  -4.507  0.00  0.00    +0.467 C 
ATOM     10  C   LIG    1        4.219   1.070  -2.167  0.00  0.00    +0.173 A 
ATOM     11  O   LIG    1        2.504   3.531  -4.062  0.00  0.00    -0.452 OA
ATOM     12  C   LIG    1        3.218   0.189  -1.741  0.00  0.00    +0.035 A 
ATOM     13  C   LIG    1        3.559  -0.945  -0.860  0.00  0.00    +0.035 A 
ATOM     14  C   LIG    1        2.988  -1.069   0.405  0.00  0.00    -0.032 A 
ATOM     15  C   LIG    1        2.093   0.049   0.901  0.00  0.00    +0.039 C 
ATOM     16  C   LIG    1        3.265  -2.154   1.203  0.00  0.00    +0.054 A 
ATOM     17  C   LIG    1        4.152  -3.128   0.763  0.00  0.00    +0.165 A 
ATOM     18  C   LIG    1        4.757  -3.004  -0.483  0.00  0.00    +0.204 A 
ATOM     19  C   LIG    1        4.465  -1.920  -1.297  0.00  0.00    +0.173 A 
ATOM     20  C   LIG    1        0.632  -0.387   0.804  0.00  0.00    -0.007 C 
ATOM     21  C   LIG    1       -0.164   0.269   1.934  0.00  0.00    +0.008 C 
ENDROOT
BRANCH  10  22
ATOM     22  O   LIG    1        5.514   0.849  -1.816  0.00  0.00    -0.491 OA
ATOM     23  C   LIG    1        5.966   1.441  -0.597  0.00  0.00    +0.277 C 
ENDBRANCH  10  22
BRANCH  17  24
ATOM     24  O   LIG    1        4.428  -4.202   1.550  0.00  0.00    -0.491 OA
ATOM     25  C   LIG    1        3.771  -4.265   2.817  0.00  0.00    +0.277 C 
ENDBRANCH  17  24
BRANCH  18  26
ATOM     26  O   LIG    1        5.640  -3.950  -0.905  0.00  0.00    -0.488 OA
ATOM     27  C   LIG    1        5.093  -5.117  -1.523  0.00  0.00    +0.277 C 
ENDBRANCH  18  26
BRANCH  19  28
ATOM     28  O   LIG    1        5.056  -1.804  -2.516  0.00  0.00    -0.491 OA
ATOM     29  C   LIG    1        4.322  -2.291  -3.642  0.00  0.00    +0.277 C 
ENDBRANCH  19  28
TORSDOF 4
