REMARK  Name = ZINC01444852
REMARK                            x       y       z     vdW  Elec       q    Type
REMARK                         _______ _______ _______ _____ _____    ______ ____
ROOT
ATOM      1  C   LIG    1        3.711  -0.707  -0.038  0.00  0.00    -0.041 C 
ATOM      2  C   LIG    1        4.010  -1.214  -1.464  0.00  0.00    -0.013 C 
ATOM      3  C   LIG    1        4.650  -2.605  -1.214  0.00  0.00    -0.020 C 
ATOM      4  C   LIG    1        3.850  -3.100   0.017  0.00  0.00    -0.082 C 
ATOM      5  N   LIG    1        3.637  -1.888   0.842  0.00  0.00    +0.384 N 
ATOM      6  H   LIG    1        2.729  -1.929   1.280  0.00  0.00    -0.085 HD
ATOM      7  H   LIG    1        4.352  -1.828   1.552  0.00  0.00    -0.085 HD
ENDROOT
BRANCH   1  11
ATOM      8  C   LIG    1       -0.017   1.378   0.010  0.00  0.00    +0.000 A 
ATOM      9  C   LIG    1        1.171   2.086   0.002  0.00  0.00    +0.000 A 
ATOM     10  C   LIG    1        2.377   1.411  -0.013  0.00  0.00    +0.002 A 
ATOM     11  C   LIG    1        2.396   0.029  -0.020  0.00  0.00    -0.061 A 
ATOM     12  C   LIG    1        1.208  -0.679  -0.012  0.00  0.00    +0.002 A 
ATOM     13  C   LIG    1        0.002  -0.004   0.002  0.00  0.00    +0.000 A 
ENDBRANCH   1  11
TORSDOF 1
