REMARK  Name = ZINC01486281
REMARK                            x       y       z     vdW  Elec       q    Type
REMARK                         _______ _______ _______ _____ _____    ______ ____
ROOT
ATOM      1  C   LIG    1       -0.018   1.466   0.010  0.00  0.00    -0.096 C 
ATOM      2  N   LIG    1        0.002  -0.004   0.002  0.00  0.00    +0.378 N 
ATOM      3  H   LIG    1       -0.946  -0.350   0.009  0.00  0.00    -0.082 HD
ATOM      4  C   LIG    1        0.687  -0.475  -1.209  0.00  0.00    -0.075 C 
ATOM      5  C   LIG    1        0.338  -1.946  -1.455  0.00  0.00    +0.017 C 
ATOM      6  C   LIG    1        1.602  -2.764  -1.458  0.00  0.00    -0.046 A 
ATOM      7  C   LIG    1        2.591  -2.454  -2.379  0.00  0.00    +0.004 A 
ATOM      8  C   LIG    1        3.765  -3.180  -2.413  0.00  0.00    +0.000 A 
ATOM      9  C   LIG    1        3.956  -4.221  -1.524  0.00  0.00    +0.000 A 
ATOM     10  C   LIG    1        2.973  -4.532  -0.607  0.00  0.00    +0.004 A 
ATOM     11  C   LIG    1        1.791  -3.806  -0.574  0.00  0.00    -0.039 A 
ATOM     12  C   LIG    1        0.740  -4.186   0.434  0.00  0.00    +0.088 C 
ATOM     13  C   LIG    1        1.162  -3.760   1.815  0.00  0.00    +0.024 A 
ATOM     14  C   LIG    1        0.781  -2.632   2.435  0.00  0.00    -0.021 A 
ATOM     15  C   LIG    1       -0.128  -1.559   1.891  0.00  0.00    +0.019 C 
ATOM     16  C   LIG    1        1.419  -2.631   3.754  0.00  0.00    +0.003 A 
ATOM     17  C   LIG    1        1.403  -1.749   4.837  0.00  0.00    +0.010 A 
ATOM     18  C   LIG    1        2.120  -2.043   5.962  0.00  0.00    +0.001 A 
ATOM     19  C   LIG    1        2.866  -3.212   6.035  0.00  0.00    +0.002 A 
ATOM     20  C   LIG    1        2.897  -4.095   4.978  0.00  0.00    +0.026 A 
ATOM     21  C   LIG    1        2.174  -3.816   3.823  0.00  0.00    +0.047 A 
ATOM     22  N   LIG    1        2.001  -4.475   2.628  0.00  0.00    -0.357 N 
ATOM     23  H   LIG    1        2.413  -5.322   2.394  0.00  0.00    +0.166 HD
ATOM     24  C   LIG    1        0.713  -0.489   1.192  0.00  0.00    -0.074 C 
ENDROOT
TORSDOF 0
