REMARK  Name = ZINC01537820
REMARK                            x       y       z     vdW  Elec       q    Type
REMARK                         _______ _______ _______ _____ _____    ______ ____
ROOT
ATOM      1  C   LIG    1       -0.831   2.733   1.396  0.00  0.00    +0.166 A 
ATOM      2  C   LIG    1       -0.348   3.509   0.378  0.00  0.00    +0.063 A 
ATOM      3  C   LIG    1       -0.413   4.904   0.477  0.00  0.00    +0.047 A 
ATOM      4  C   LIG    1       -0.968   5.505   1.633  0.00  0.00    +0.121 A 
ATOM      5  N   LIG    1       -1.013   6.845   1.705  0.00  0.00    -0.231 NA
ATOM      6  C   LIG    1       -0.551   7.579   0.722  0.00  0.00    +0.224 A 
ATOM      7  N   LIG    1       -0.025   7.061  -0.378  0.00  0.00    -0.220 NA
ATOM      8  C   LIG    1       -1.453   4.691   2.669  0.00  0.00    +0.191 A 
ATOM      9  C   LIG    1        0.068   5.750  -0.551  0.00  0.00    +0.130 A 
ATOM     10  C   LIG    1       -1.381   3.317   2.542  0.00  0.00    +0.206 A 
ENDROOT
BRANCH   1  12
ATOM     11  C   LIG    1       -0.199   0.842   0.100  0.00  0.00    +0.277 C 
ATOM     12  O   LIG    1       -0.771   1.379   1.294  0.00  0.00    -0.491 OA
ENDBRANCH   1  12
BRANCH   8  13
ATOM     13  O   LIG    1       -1.989   5.250   3.787  0.00  0.00    -0.489 OA
ATOM     14  C   LIG    1       -1.093   5.537   4.863  0.00  0.00    +0.277 C 
ENDBRANCH   8  13
BRANCH   9  15
ATOM     15  N   LIG    1        0.619   5.224  -1.702  0.00  0.00    -0.324 N 
ATOM     16  H   LIG    1        0.680   4.263  -1.815  0.00  0.00    +0.148 HD
BRANCH  15  17
ATOM     17  C   LIG    1        1.111   6.119  -2.753  0.00  0.00    +0.138 C 
BRANCH  17  18
ATOM     18  C   LIG    1        1.659   5.300  -3.893  0.00  0.00    -0.027 A 
ATOM     19  C   LIG    1        2.993   4.938  -3.904  0.00  0.00    +0.009 A 
ATOM     20  C   LIG    1        3.499   4.182  -4.945  0.00  0.00    +0.050 A 
ATOM     21  C   LIG    1        2.672   3.795  -5.987  0.00  0.00    +0.166 A 
ATOM     22  C   LIG    1        1.329   4.164  -5.978  0.00  0.00    +0.167 A 
ATOM     23  O   LIG    1        0.733   3.667  -7.101  0.00  0.00    -0.453 OA
ATOM     24  C   LIG    1        1.812   3.339  -7.996  0.00  0.00    +0.466 C 
ATOM     25  O   LIG    1        2.917   3.067  -7.114  0.00  0.00    -0.453 OA
ATOM     26  C   LIG    1        0.827   4.917  -4.929  0.00  0.00    +0.054 A 
ENDBRANCH  17  18
ENDBRANCH  15  17
ENDBRANCH   9  15
BRANCH  10  27
ATOM     27  O   LIG    1       -1.850   2.524   3.543  0.00  0.00    -0.488 OA
ATOM     28  C   LIG    1       -3.223   2.133   3.472  0.00  0.00    +0.277 C 
ENDBRANCH  10  27
TORSDOF 6
