REMARK  Name = ZINC01543563
REMARK                            x       y       z     vdW  Elec       q    Type
REMARK                         _______ _______ _______ _____ _____    ______ ____
ROOT
ATOM      1  C   LIG    1       -3.428   1.385   2.627  0.00  0.00    +0.051 A 
ATOM      2  C   LIG    1       -2.625   2.027   3.556  0.00  0.00    -0.012 A 
ATOM      3  C   LIG    1       -1.180   2.316   3.240  0.00  0.00    +0.047 C 
ATOM      4  C   LIG    1       -3.167   2.406   4.794  0.00  0.00    +0.075 A 
ATOM      5  N   LIG    1       -4.427   2.166   5.099  0.00  0.00    -0.246 NA
ATOM      6  C   LIG    1       -5.251   1.552   4.248  0.00  0.00    +0.072 A 
ATOM      7  C   LIG    1       -6.593   1.306   4.594  0.00  0.00    +0.028 A 
ATOM      8  C   LIG    1       -7.418   0.694   3.702  0.00  0.00    +0.002 A 
ATOM      9  C   LIG    1       -6.952   0.288   2.453  0.00  0.00    +0.001 A 
ATOM     10  C   LIG    1       -5.658   0.505   2.086  0.00  0.00    +0.011 A 
ATOM     11  C   LIG    1       -4.783   1.143   2.974  0.00  0.00    +0.013 A 
ENDROOT
BRANCH   4  12
ATOM     12  C   LIG    1       -2.301   3.091   5.784  0.00  0.00    +0.001 A 
ATOM     13  C   LIG    1       -1.453   4.120   5.377  0.00  0.00    +0.010 A 
ATOM     14  C   LIG    1       -0.649   4.754   6.302  0.00  0.00    +0.001 A 
ATOM     15  C   LIG    1       -0.684   4.372   7.631  0.00  0.00    +0.000 A 
ATOM     16  C   LIG    1       -1.524   3.352   8.040  0.00  0.00    +0.001 A 
ATOM     17  C   LIG    1       -2.337   2.714   7.125  0.00  0.00    +0.010 A 
ENDBRANCH   4  12
BRANCH   1  20
ATOM     18  N   LIG    1       -2.348  -0.252   1.161  0.00  0.00    -0.305 N 
ATOM     19  H   LIG    1       -2.308  -0.862   1.915  0.00  0.00    +0.150 HD
ATOM     20  C   LIG    1       -2.892   0.972   1.312  0.00  0.00    +0.245 C 
ATOM     21  O   LIG    1       -2.943   1.735   0.367  0.00  0.00    -0.270 OA
BRANCH  18  22
ATOM     22  C   LIG    1       -1.817  -0.662  -0.141  0.00  0.00    +0.103 C 
BRANCH  22  23
ATOM     23  C   LIG    1       -1.842  -2.166  -0.243  0.00  0.00    -0.027 A 
ATOM     24  C   LIG    1       -1.508  -2.938   0.853  0.00  0.00    +0.005 A 
ATOM     25  C   LIG    1       -1.531  -4.317   0.760  0.00  0.00    +0.000 A 
ATOM     26  C   LIG    1       -1.888  -4.924  -0.430  0.00  0.00    +0.000 A 
ATOM     27  C   LIG    1       -2.223  -4.151  -1.527  0.00  0.00    +0.000 A 
ATOM     28  C   LIG    1       -2.204  -2.772  -1.432  0.00  0.00    +0.005 A 
ENDBRANCH  22  23
BRANCH  22  30
ATOM     29  C   LIG    1       -0.366   1.365  -0.306  0.00  0.00    +0.006 C 
ATOM     30  C   LIG    1       -0.377  -0.165  -0.285  0.00  0.00    +0.024 C 
ENDBRANCH  22  30
ENDBRANCH  18  22
ENDBRANCH   1  20
TORSDOF 5
