REMARK  Name = ZINC01532157
REMARK                            x       y       z     vdW  Elec       q    Type
REMARK                         _______ _______ _______ _____ _____    ______ ____
ROOT
ATOM      1  N   LIG    1        1.241  -2.082   0.003  0.00  0.00    -0.214 N 
ATOM      2  C   LIG    1        0.154  -2.900   0.074  0.00  0.00    +0.137 A 
ATOM      3  C   LIG    1        0.595  -4.183   0.002  0.00  0.00    +0.124 A 
ATOM      4  C   LIG    1        2.001  -4.149  -0.117  0.00  0.00    +0.180 A 
ATOM      5  N   LIG    1        2.381  -2.885  -0.122  0.00  0.00    -0.153 NA
ENDROOT
BRANCH   1  11
ATOM      6  C   LIG    1        0.624   1.358   1.157  0.00  0.00    +0.034 A 
ATOM      7  C   LIG    1        1.180   2.086   0.120  0.00  0.00    +0.058 A 
ATOM      8  C   LIG    1        1.756   1.434  -0.955  0.00  0.00    +0.034 A 
ATOM      9  C   LIG    1        1.778   0.053  -0.997  0.00  0.00    +0.068 A 
ATOM     10 CL   LIG    1        2.500  -0.764  -2.348  0.00  0.00    -0.081 Cl
ATOM     11  C   LIG    1        1.221  -0.681   0.043  0.00  0.00    +0.104 A 
ATOM     12  C   LIG    1        0.643  -0.024   1.122  0.00  0.00    +0.068 A 
ATOM     13 CL   LIG    1       -0.055  -0.936   2.424  0.00  0.00    -0.081 Cl
BRANCH   7  14
ATOM     14  C   LIG    1        1.157   3.592   0.162  0.00  0.00    +0.418 C 
ATOM     15  F   LIG    1        0.029   4.021   0.870  0.00  0.00    -0.166 F 
ATOM     16  F   LIG    1        1.108   4.094  -1.143  0.00  0.00    -0.166 F 
ATOM     17  F   LIG    1        2.312   4.058   0.798  0.00  0.00    -0.166 F 
ENDBRANCH   7  14
ENDBRANCH   1  11
BRANCH   2  18
ATOM     18  N   LIG    1       -1.172  -2.495   0.199  0.00  0.00    -0.342 N 
ATOM     19  H   LIG    1       -1.871  -3.154   0.334  0.00  0.00    +0.144 HD
ATOM     20  H   LIG    1       -1.398  -1.552   0.151  0.00  0.00    +0.144 HD
ENDBRANCH   2  18
BRANCH   3  21
ATOM     21  S   LIG    1       -0.408  -5.630   0.049  0.00  0.00    +0.163 S 
ATOM     22  O   LIG    1        0.470  -6.642   0.522  0.00  0.00    -0.243 OA
BRANCH  21  23
ATOM     23  C   LIG    1       -0.808  -5.944  -1.693  0.00  0.00    +0.477 C 
ATOM     24  F   LIG    1       -1.494  -4.844  -2.219  0.00  0.00    -0.158 F 
ATOM     25  F   LIG    1       -1.613  -7.084  -1.788  0.00  0.00    -0.158 F 
ATOM     26  F   LIG    1        0.374  -6.145  -2.414  0.00  0.00    -0.158 F 
ENDBRANCH  21  23
ENDBRANCH   3  21
BRANCH   4  27
ATOM     27  C   LIG    1        2.863  -5.287  -0.222  0.00  0.00    +0.122 C 
ATOM     28  N   LIG    1        3.547  -6.190  -0.304  0.00  0.00    -0.189 NA
ENDBRANCH   4  27
TORSDOF 6
