REMARK  Name = ZINC01442764
REMARK                            x       y       z     vdW  Elec       q    Type
REMARK                         _______ _______ _______ _____ _____    ______ ____
ROOT
ATOM      1  C   LIG    1       -3.141  -0.657   0.028  0.00  0.00    +0.001 A 
ATOM      2  C   LIG    1       -2.696  -1.978   0.016  0.00  0.00    +0.001 A 
ATOM      3  C   LIG    1       -1.367  -2.269   0.002  0.00  0.00    +0.008 A 
ATOM      4  C   LIG    1       -0.426  -1.225  -0.001  0.00  0.00    -0.017 A 
ATOM      5  C   LIG    1        0.952  -1.490  -0.015  0.00  0.00    +0.024 A 
ATOM      6  C   LIG    1        1.848  -0.435  -0.017  0.00  0.00    +0.061 A 
ATOM      7  C   LIG    1        1.387   0.893  -0.006  0.00  0.00    +0.016 A 
ATOM      8  C   LIG    1        0.058   1.169   0.007  0.00  0.00    +0.009 A 
ATOM      9  C   LIG    1       -0.878   0.119   0.010  0.00  0.00    -0.018 A 
ATOM     10  C   LIG    1       -2.259   0.379   0.030  0.00  0.00    +0.008 A 
ENDROOT
BRANCH   6  11
ATOM     11  C   LIG    1        3.303  -0.708  -0.032  0.00  0.00    +0.266 C 
ATOM     12  N   LIG    1        3.678  -1.978  -0.043  0.00  0.00    -0.288 N 
ATOM     13  H   LIG    1        2.970  -2.722  -0.041  0.00  0.00    +0.301 HD
ATOM     14  H   LIG    1        4.669  -2.217  -0.054  0.00  0.00    +0.301 HD
BRANCH  11  15
ATOM     15  N   LIG    1        4.200   0.339  -0.035  0.00  0.00    -0.250 N 
ATOM     16  H   LIG    1        5.153   0.160  -0.045  0.00  0.00    +0.288 HD
ATOM     17  H   LIG    1        3.877   1.254  -0.027  0.00  0.00    +0.288 HD
ENDBRANCH  11  15
ENDBRANCH   6  11
TORSDOF 2
