REMARK  Name = ZINC01548806
REMARK                            x       y       z     vdW  Elec       q    Type
REMARK                         _______ _______ _______ _____ _____    ______ ____
ROOT
ATOM      1  C   LIG    1       -4.570   5.383   1.183  0.00  0.00    +0.122 A 
ATOM      2  C   LIG    1       -5.213   5.339   2.414  0.00  0.00    +0.046 A 
ATOM      3  C   LIG    1       -6.542   4.983   2.488  0.00  0.00    +0.013 A 
ATOM      4  C   LIG    1       -7.244   4.665   1.322  0.00  0.00    -0.006 A 
ATOM      5  C   LIG    1       -6.593   4.710   0.085  0.00  0.00    +0.052 A 
ATOM      6 CL   LIG    1       -7.458   4.317  -1.369  0.00  0.00    -0.083 Cl
ATOM      7  C   LIG    1       -5.264   5.073   0.021  0.00  0.00    +0.066 A 
ENDROOT
BRANCH   4   8
ATOM      8  C   LIG    1       -8.666   4.284   1.395  0.00  0.00    +0.010 C 
ATOM      9  C   LIG    1       -9.289   4.241   2.584  0.00  0.00    +0.008 C 
BRANCH   9  10
ATOM     10  C   LIG    1      -10.711   3.860   2.657  0.00  0.00    -0.024 A 
ATOM     11  C   LIG    1      -11.413   3.542   1.490  0.00  0.00    +0.008 A 
ATOM     12  C   LIG    1      -12.744   3.186   1.558  0.00  0.00    +0.001 A 
ATOM     13  C   LIG    1      -13.393   3.139   2.776  0.00  0.00    +0.015 A 
ATOM     14  C   LIG    1      -12.704   3.453   3.950  0.00  0.00    +0.059 A 
ATOM     15  C   LIG    1      -11.358   3.810   3.891  0.00  0.00    +0.023 A 
BRANCH  14  16
ATOM     16  C   LIG    1      -13.400   3.402   5.253  0.00  0.00    +0.337 C 
ATOM     17  O   LIG    1      -12.800   3.675   6.273  0.00  0.00    -0.245 OA
BRANCH  16  18
ATOM     18  O   LIG    1      -14.700   3.053   5.309  0.00  0.00    -0.477 OA
ATOM     19  H   LIG    1      -15.163   2.842   4.522  0.00  0.00    +0.295 HD
ENDBRANCH  16  18
ENDBRANCH  14  16
ENDBRANCH   9  10
ENDBRANCH   4   8
BRANCH   1  20
ATOM     20  O   LIG    1       -3.260   5.735   1.117  0.00  0.00    -0.487 OA
BRANCH  20  21
ATOM     21  C   LIG    1       -2.660   5.760  -0.180  0.00  0.00    +0.270 C 
BRANCH  21  23
ATOM     22  C   LIG    1       -0.707   7.421   0.013  0.00  0.00    +0.147 A 
ATOM     23  C   LIG    1       -1.215   6.170  -0.058  0.00  0.00    +0.060 A 
ATOM     24  C   LIG    1       -0.069   5.330   0.014  0.00  0.00    +0.123 A 
ATOM     25  N   LIG    1        0.964   6.130   0.108  0.00  0.00    -0.078 NA
ATOM     26  O   LIG    1        0.624   7.291   0.108  0.00  0.00    -0.358 OA
BRANCH  24  27
ATOM     27  C   LIG    1       -0.047   3.846  -0.017  0.00  0.00    +0.041 A 
ATOM     28  C   LIG    1       -0.584   3.161  -1.106  0.00  0.00    +0.052 A 
ATOM     29 CL   LIG    1       -1.281   4.041  -2.430  0.00  0.00    -0.083 Cl
ATOM     30  C   LIG    1       -0.560   1.780  -1.129  0.00  0.00    +0.021 A 
ATOM     31  C   LIG    1       -0.005   1.077  -0.075  0.00  0.00    +0.003 A 
ATOM     32  C   LIG    1        0.524   1.751   1.010  0.00  0.00    +0.021 A 
ATOM     33  C   LIG    1        0.512   3.132   1.042  0.00  0.00    +0.052 A 
ATOM     34 CL   LIG    1        1.183   3.976   2.402  0.00  0.00    -0.083 Cl
ENDBRANCH  24  27
BRANCH  22  36
ATOM     35  C   LIG    1       -1.225   9.493   1.273  0.00  0.00    +0.015 C 
ATOM     36  C   LIG    1       -1.485   8.711  -0.016  0.00  0.00    +0.052 C 
ATOM     37  C   LIG    1       -1.041   9.547  -1.218  0.00  0.00    +0.015 C 
ENDBRANCH  22  36
ENDBRANCH  21  23
ENDBRANCH  20  21
ENDBRANCH   1  20
TORSDOF 9
