REMARK  Name = ZINC01536109
REMARK                            x       y       z     vdW  Elec       q    Type
REMARK                         _______ _______ _______ _____ _____    ______ ____
ROOT
ATOM      1  C   UNK A  0        1.102  -6.549   0.658  0.00  0.00    +0.032 C 
ENDROOT
BRANCH   1   2
ATOM      2  C   UNK A  0        0.964  -5.048   0.671  0.00  0.00    -0.043 A 
ATOM      3  C   UNK A  0        1.940  -4.272   1.270  0.00  0.00    +0.004 A 
ATOM      4  C   UNK A  0        1.818  -2.898   1.286  0.00  0.00    +0.013 A 
ATOM      5  C   UNK A  0        0.708  -2.291   0.696  0.00  0.00    +0.037 A 
ATOM      6  C   UNK A  0       -0.276  -3.081   0.099  0.00  0.00    +0.013 A 
ATOM      7  C   UNK A  0       -0.140  -4.454   0.085  0.00  0.00    +0.004 A 
BRANCH   5   8
ATOM      8  C   UNK A  0        0.571  -0.819   0.710  0.00  0.00    +0.245 C 
ATOM      9  N   GLU A  1       -0.502  -0.237   0.140  0.00  0.00    -0.298 N 
ATOM     10  H   GLU A  1       -1.185  -0.783  -0.279  0.00  0.00    +0.150 HD
ATOM     11  O   UNK A  0        1.427  -0.134   1.236  0.00  0.00    -0.270 OA
BRANCH   9  12
ATOM     12  CA  GLU A  1       -0.638   1.222   0.154  0.00  0.00    +0.182 C 
BRANCH  12  13
ATOM     13  C   GLU A  1       -1.272   1.655   1.451  0.00  0.00    +0.325 C 
ATOM     14  O   GLU A  1       -1.579   0.830   2.279  0.00  0.00    -0.249 OA
BRANCH  13  15
ATOM     15  OXT GLU A  1       -1.495   2.958   1.686  0.00  0.00    -0.479 OA
ATOM     16  HXT GLU A  1       -1.257   3.597   1.045  0.00  0.00    +0.295 HD
ENDBRANCH  13  15
ENDBRANCH  12  13
BRANCH  12  17
ATOM     17  CB  GLU A  1       -1.518   1.663  -1.016  0.00  0.00    +0.045 C 
BRANCH  17  18
ATOM     18  CG  GLU A  1       -0.816   1.335  -2.335  0.00  0.00    +0.123 C 
BRANCH  18  19
ATOM     19  CD  GLU A  1       -1.683   1.770  -3.489  0.00  0.00    +0.305 C 
ATOM     20  OE1 GLU A  1       -2.753   2.289  -3.277  0.00  0.00    -0.251 OA
BRANCH  19  21
ATOM     21  OE2 GLU A  1       -1.266   1.580  -4.750  0.00  0.00    -0.481 OA
ATOM     22  HE2 GLU A  1       -0.436   1.177  -4.914  0.00  0.00    +0.295 HD
ENDBRANCH  19  21
ENDBRANCH  18  19
ENDBRANCH  17  18
ENDBRANCH  12  17
ENDBRANCH   9  12
ENDBRANCH   5   8
ENDBRANCH   1   2
BRANCH   1  23
ATOM     23  C   UNK A  0       -0.089  -7.178   1.384  0.00  0.00    +0.096 C 
BRANCH  23  25
ATOM     24  C   UNK A  0        0.271  -9.793   1.570  0.00  0.00    +0.004 C 
ATOM     25  C   UNK A  0        0.111  -8.632   1.488  0.00  0.00    -0.105 C 
ENDBRANCH  23  25
ENDBRANCH   1  23
BRANCH   1  26
ATOM     26  C   UNK A  0        1.137  -7.045  -0.788  0.00  0.00    +0.029 C 
BRANCH  26  27
ATOM     27  C   UNK A  0        2.385  -6.536  -1.464  0.00  0.00    +0.068 C 
ATOM     28  C   UNK A  0        3.583  -7.235  -1.319  0.00  0.00    +0.101 C 
ATOM     29  N   UNK A  0        4.684  -6.813  -1.903  0.00  0.00    -0.298 NA
ATOM     30  H   UNK A  0        4.999  -7.562  -2.519  0.00  0.00    +0.123 HD
ATOM     31  C   UNK A  0        4.655  -5.696  -2.635  0.00  0.00    +0.144 C 
ATOM     32  N   UNK A  0        5.813  -5.258  -3.239  0.00  0.00    -0.272 NA
ATOM     33  H   UNK A  0        6.662  -5.774  -3.127  0.00  0.00    +0.126 HD
ATOM     34  C   UNK A  0        5.699  -4.117  -3.965  0.00  0.00    +0.194 C 
ATOM     35  N   UNK A  0        4.591  -3.403  -4.138  0.00  0.00    -0.273 NA
ATOM     36  H   UNK A  0        4.794  -2.466  -3.791  0.00  0.00    +0.126 HD
ATOM     37  C   UNK A  0        3.443  -3.768  -3.585  0.00  0.00    +0.141 C 
ATOM     38  C   UNK A  0        3.436  -4.987  -2.775  0.00  0.00    +0.117 C 
ATOM     39  N   UNK A  0        2.334  -5.434  -2.180  0.00  0.00    -0.304 NA
ATOM     40  H   UNK A  0        2.010  -4.692  -1.560  0.00  0.00    +0.123 HD
BRANCH  34  41
ATOM     41  N   UNK A  0        6.861  -3.679  -4.570  0.00  0.00    -0.303 NA
ATOM     42  H   UNK A  0        6.854  -2.869  -5.105  0.00  0.00    +0.121 HD
ATOM     43  H   UNK A  0        7.684  -4.181  -4.460  0.00  0.00    +0.121 HD
ENDBRANCH  34  41
BRANCH  37  44
ATOM     44  N   UNK A  0        2.296  -3.026  -3.766  0.00  0.00    -0.314 NA
ATOM     45  H   UNK A  0        2.320  -2.220  -4.307  0.00  0.00    +0.120 HD
ATOM     46  H   UNK A  0        1.465  -3.309  -3.354  0.00  0.00    +0.120 HD
ENDBRANCH  37  44
ENDBRANCH  26  27
ENDBRANCH   1  26
TORSDOF 15
