REMARK  Name = ZINC01532942
REMARK                            x       y       z     vdW  Elec       q    Type
REMARK                         _______ _______ _______ _____ _____    ______ ____
ROOT
ATOM      1  C   LIG    1       -0.282  -2.375  -0.489  0.00  0.00    -0.032 C 
ATOM      2  C   LIG    1        0.093  -1.520  -1.473  0.00  0.00    -0.007 C 
ENDROOT
BRANCH   2   3
ATOM      3  C   LIG    1       -0.399  -0.125  -1.469  0.00  0.00    -0.017 A 
ATOM      4  C   LIG    1       -1.757   0.139  -1.650  0.00  0.00    +0.009 A 
ATOM      5  C   LIG    1       -2.211   1.442  -1.639  0.00  0.00    +0.015 A 
ATOM      6  C   LIG    1       -1.321   2.486  -1.461  0.00  0.00    +0.013 A 
ATOM      7  I   LIG    1       -2.018   4.462  -1.455  0.00  0.00    -0.044 I 
ATOM      8  C   LIG    1        0.029   2.231  -1.287  0.00  0.00    +0.015 A 
ATOM      9  C   LIG    1        0.494   0.932  -1.290  0.00  0.00    +0.009 A 
ENDBRANCH   2   3
BRANCH   1  10
ATOM     10  C   LIG    1        0.091  -3.795  -0.568  0.00  0.00    -0.021 A 
ATOM     11  C   LIG    1       -0.428  -4.603  -1.585  0.00  0.00    +0.008 A 
ATOM     12  C   LIG    1       -0.070  -5.933  -1.655  0.00  0.00    +0.001 A 
ATOM     13  C   LIG    1        0.791  -6.471  -0.714  0.00  0.00    +0.000 A 
ATOM     14  C   LIG    1        1.304  -5.680   0.299  0.00  0.00    +0.001 A 
ATOM     15  C   LIG    1        0.960  -4.347   0.379  0.00  0.00    +0.008 A 
ENDBRANCH   1  10
BRANCH   2  16
ATOM     16  C   LIG    1        0.995  -1.983  -2.551  0.00  0.00    -0.017 A 
ATOM     17  C   LIG    1        2.307  -2.356  -2.254  0.00  0.00    +0.012 A 
ATOM     18  C   LIG    1        3.142  -2.793  -3.260  0.00  0.00    +0.046 A 
ATOM     19  C   LIG    1        2.683  -2.851  -4.569  0.00  0.00    +0.120 A 
ATOM     20  C   LIG    1        1.380  -2.475  -4.870  0.00  0.00    +0.046 A 
ATOM     21  C   LIG    1        0.537  -2.043  -3.868  0.00  0.00    +0.012 A 
BRANCH  19  22
ATOM     22  O   LIG    1        3.511  -3.277  -5.559  0.00  0.00    -0.494 OA
BRANCH  22  23
ATOM     23  C   LIG    1        4.838  -3.648  -5.180  0.00  0.00    +0.210 C 
BRANCH  23  24
ATOM     24  C   LIG    1        5.615  -4.097  -6.419  0.00  0.00    -0.038 C 
BRANCH  24  25
ATOM     25  N   LIG    1        5.708  -2.959  -7.358  0.00  0.00    +0.378 N 
ATOM     26  H   LIG    1        4.801  -2.478  -7.390  0.00  0.00    -0.082 HD
ATOM     27  C   LIG    1        6.041  -3.447  -8.713  0.00  0.00    -0.096 C 
ATOM     28  C   LIG    1        6.740  -2.006  -6.896  0.00  0.00    -0.096 C 
ENDBRANCH  24  25
ENDBRANCH  23  24
ENDBRANCH  22  23
ENDBRANCH  19  22
ENDBRANCH   2  16
BRANCH   1  30
ATOM     29  C   LIG    1       -0.129  -1.468   1.814  0.00  0.00    +0.009 C 
ATOM     30  C   LIG    1       -1.080  -1.868   0.684  0.00  0.00    +0.033 C 
ENDBRANCH   1  30
TORSDOF 8
