REMARK  Name = ZINC01536780
REMARK                            x       y       z     vdW  Elec       q    Type
REMARK                         _______ _______ _______ _____ _____    ______ ____
ROOT
ATOM      1  C   LIG    1       -0.175   4.080  -0.086  0.00  0.00    +0.208 C 
ENDROOT
BRANCH   1   2
ATOM      2  C   LIG    1       -0.683   4.398   1.296  0.00  0.00    +0.030 A 
ATOM      3  C   LIG    1       -1.940   4.284   1.790  0.00  0.00    +0.015 A 
ATOM      4  C   LIG    1       -2.178   4.635   3.106  0.00  0.00    +0.008 A 
ATOM      5  C   LIG    1       -1.149   5.093   3.860  0.00  0.00    +0.045 A 
ATOM      6  S   LIG    1        0.211   5.031   2.706  0.00  0.00    -0.098 S 
ENDBRANCH   1   2
BRANCH   1   7
ATOM      7  C   LIG    1       -0.061   5.372  -0.898  0.00  0.00    +0.031 C 
BRANCH   7   8
ATOM      8  C   LIG    1        0.335   5.037  -2.337  0.00  0.00    -0.079 C 
BRANCH   8  10
ATOM      9  C   LIG    1        0.824   5.994  -4.507  0.00  0.00    -0.101 C 
ATOM     10  N   LIG    1        0.442   6.287  -3.112  0.00  0.00    +0.377 N 
ATOM     11  H   LIG    1        1.155   6.891  -2.686  0.00  0.00    -0.086 HD
ATOM     12  H   LIG    1       -0.464   6.770  -3.104  0.00  0.00    -0.086 HD
ENDBRANCH   8  10
ENDBRANCH   7   8
ENDBRANCH   1   7
BRANCH   1  13
ATOM     13  O   LIG    1        1.111   3.463   0.010  0.00  0.00    -0.483 OA
BRANCH  13  14
ATOM     14  C   LIG    1        1.137   2.124   0.230  0.00  0.00    +0.129 A 
ATOM     15  C   LIG    1       -0.024   1.441   0.460  0.00  0.00    +0.046 A 
ATOM     16  C   LIG    1       -0.014   0.068   0.687  0.00  0.00    +0.004 A 
ATOM     17  C   LIG    1        1.152  -0.636   0.687  0.00  0.00    +0.009 A 
ATOM     18  C   LIG    1        2.368   0.029   0.454  0.00  0.00    -0.014 A 
ATOM     19  C   LIG    1        3.590  -0.665   0.446  0.00  0.00    +0.008 A 
ATOM     20  C   LIG    1        4.748   0.012   0.217  0.00  0.00    +0.001 A 
ATOM     21  C   LIG    1        4.742   1.386  -0.011  0.00  0.00    +0.001 A 
ATOM     22  C   LIG    1        3.578   2.092  -0.011  0.00  0.00    +0.012 A 
ATOM     23  C   LIG    1        2.363   1.427   0.222  0.00  0.00    +0.024 A 
ENDBRANCH  13  14
ENDBRANCH   1  13
TORSDOF 6
