REMARK  Name = ZINC01632635
REMARK                            x       y       z     vdW  Elec       q    Type
REMARK                         _______ _______ _______ _____ _____    ______ ____
ROOT
ATOM      1  C   LIG    1       -1.232   1.759   0.017  0.00  0.00    +0.066 A 
ATOM      2  C   LIG    1       -0.013   1.076   0.008  0.00  0.00    +0.064 A 
ATOM      3  C   LIG    1        1.174   1.784   0.000  0.00  0.00    +0.163 A 
ATOM      4  C   LIG    1        1.156   3.176   0.007  0.00  0.00    +0.201 A 
ATOM      5  C   LIG    1       -0.057   3.859   0.022  0.00  0.00    +0.163 A 
ATOM      6  C   LIG    1       -1.247   3.156   0.030  0.00  0.00    +0.064 A 
ENDROOT
BRANCH   1   7
ATOM      7  C   LIG    1       -2.500   1.006   0.020  0.00  0.00    +0.339 C 
ATOM      8  O   LIG    1       -2.486  -0.209   0.014  0.00  0.00    -0.245 OA
BRANCH   7   9
ATOM      9  O   LIG    1       -3.675   1.666   0.029  0.00  0.00    -0.461 OA
BRANCH   9  10
ATOM     10  C   LIG    1       -4.883   0.861   0.031  0.00  0.00    +0.232 C 
BRANCH  10  11
ATOM     11  C   LIG    1       -6.108   1.778   0.042  0.00  0.00    +0.041 C 
BRANCH  11  12
ATOM     12  C   LIG    1       -7.381   0.929   0.043  0.00  0.00    +0.003 C 
BRANCH  12  13
ATOM     13  C   LIG    1       -8.605   1.847   0.054  0.00  0.00    +0.000 C 
BRANCH  13  14
ATOM     14  C   LIG    1       -9.878   0.998   0.056  0.00  0.00    -0.000 C 
BRANCH  14  15
ATOM     15  C   LIG    1      -11.103   1.915   0.067  0.00  0.00    -0.000 C 
BRANCH  15  17
ATOM     16  C   LIG    1      -13.600   1.984   0.079  0.00  0.00    +0.004 C 
ATOM     17  C   LIG    1      -12.376   1.067   0.069  0.00  0.00    -0.003 C 
ENDBRANCH  15  17
ENDBRANCH  14  15
ENDBRANCH  13  14
ENDBRANCH  12  13
ENDBRANCH  11  12
ENDBRANCH  10  11
ENDBRANCH   9  10
ENDBRANCH   7   9
ENDBRANCH   1   7
BRANCH   3  18
ATOM     18  O   LIG    1        2.361   1.120  -0.014  0.00  0.00    -0.503 OA
ATOM     19  H   LIG    1        2.696   0.932  -0.901  0.00  0.00    +0.292 HD
ENDBRANCH   3  18
BRANCH   4  20
ATOM     20  O   LIG    1        2.325   3.869  -0.000  0.00  0.00    -0.501 OA
ATOM     21  H   LIG    1        2.655   4.074  -0.886  0.00  0.00    +0.292 HD
ENDBRANCH   4  20
BRANCH   5  22
ATOM     22  O   LIG    1       -0.071   5.219   0.028  0.00  0.00    -0.503 OA
ATOM     23  H   LIG    1       -0.084   5.616  -0.853  0.00  0.00    +0.292 HD
ENDBRANCH   5  22
TORSDOF 12
