REMARK  Name = ZINC01614356
REMARK                            x       y       z     vdW  Elec       q    Type
REMARK                         _______ _______ _______ _____ _____    ______ ____
ROOT
ATOM      1  N   LIG    1        2.569  -6.092   3.625  0.00  0.00    -0.309 N 
ATOM      2  C   LIG    1        1.700  -7.139   3.545  0.00  0.00    +0.202 A 
ATOM      3  N   LIG    1        2.359  -8.261   3.504  0.00  0.00    -0.231 NA
ATOM      4  C   LIG    1        3.688  -8.006   3.554  0.00  0.00    +0.147 A 
ATOM      5  C   LIG    1        4.848  -8.800   3.545  0.00  0.00    +0.147 A 
ATOM      6  N   LIG    1        6.030  -8.194   3.595  0.00  0.00    -0.219 NA
ATOM      7  C   LIG    1        6.122  -6.878   3.665  0.00  0.00    +0.225 A 
ATOM      8  N   LIG    1        5.064  -6.096   3.682  0.00  0.00    -0.216 NA
ATOM      9  C   LIG    1        3.840  -6.611   3.627  0.00  0.00    +0.166 A 
ENDROOT
BRANCH   5  10
ATOM     10  N   LIG    1        4.761 -10.179   3.471  0.00  0.00    -0.341 N 
ATOM     11  H   LIG    1        5.569 -10.716   3.465  0.00  0.00    +0.144 HD
ATOM     12  H   LIG    1        3.893 -10.608   3.424  0.00  0.00    +0.144 HD
ENDBRANCH   5  10
BRANCH   1  13
ATOM     13  C   LIG    1        2.213  -4.673   3.689  0.00  0.00    +0.118 C 
BRANCH  13  14
ATOM     14  C   LIG    1        1.361  -4.417   4.934  0.00  0.00    +0.134 C 
ATOM     15  C   LIG    1        2.152  -4.810   6.183  0.00  0.00    +0.040 C 
BRANCH  14  16
ATOM     16  O   LIG    1        0.166  -5.198   4.862  0.00  0.00    -0.390 OA
ATOM     17  H   LIG    1       -0.386  -5.002   4.093  0.00  0.00    +0.210 HD
ENDBRANCH  14  16
ENDBRANCH  13  14
BRANCH  13  18
ATOM     18  C   LIG    1        1.417  -4.289   2.440  0.00  0.00    +0.028 C 
BRANCH  18  19
ATOM     19  C   LIG    1        2.315  -4.411   1.207  0.00  0.00    +0.002 C 
BRANCH  19  20
ATOM     20  C   LIG    1        1.500  -4.100  -0.050  0.00  0.00    +0.000 C 
BRANCH  20  21
ATOM     21  C   LIG    1        2.398  -4.221  -1.283  0.00  0.00    -0.000 C 
BRANCH  21  23
ATOM     22  C   LIG    1        2.481  -4.032  -3.773  0.00  0.00    +0.004 C 
ATOM     23  C   LIG    1        1.583  -3.910  -2.540  0.00  0.00    -0.003 C 
ENDBRANCH  21  23
ENDBRANCH  20  21
ENDBRANCH  19  20
ENDBRANCH  18  19
ENDBRANCH  13  18
ENDBRANCH   1  13
TORSDOF 9
