REMARK  Name = ZINC01664886
REMARK                            x       y       z     vdW  Elec       q    Type
REMARK                         _______ _______ _______ _____ _____    ______ ____
ROOT
ATOM      1  C   LIG    1        0.011   1.072   2.506  0.00  0.00    +0.007 C 
ATOM      2  C   LIG    1       -0.729   1.579   1.267  0.00  0.00    -0.014 C 
ATOM      3  C   LIG    1       -0.013   1.086   0.008  0.00  0.00    +0.002 C 
ATOM      4  C   LIG    1       -0.753   1.593  -1.232  0.00  0.00    -0.016 C 
ATOM      5  C   LIG    1       -0.773   3.123  -1.223  0.00  0.00    -0.075 C 
ATOM      6  C   LIG    1       -1.490   3.616   0.036  0.00  0.00    -0.016 C 
ATOM      7  C   LIG    1       -0.750   3.109   1.275  0.00  0.00    +0.002 C 
ENDROOT
BRANCH   5   8
ATOM      8  N   LIG    1       -1.484   3.609  -2.413  0.00  0.00    +0.380 N 
ATOM      9  H   LIG    1       -0.969   3.254  -3.318  0.00  0.00    -0.090 HD
ATOM     10  H   LIG    1       -2.516   3.228  -2.405  0.00  0.00    -0.090 HD
ATOM     11  H   LIG    1       -1.499   4.709  -2.407  0.00  0.00    -0.090 HD
ENDBRANCH   5   8
TORSDOF 1
