REMARK  Name = ZINC01540632
REMARK                            x       y       z     vdW  Elec       q    Type
REMARK                         _______ _______ _______ _____ _____    ______ ____
ROOT
ATOM      1  C   LIG    1       -5.036   4.019   0.047  0.00  0.00    +0.224 C 
ATOM      2  O   LIG    1       -4.881   5.275   0.729  0.00  0.00    -0.339 OA
ATOM      3  C   LIG    1       -6.133   5.473   1.429  0.00  0.00    +0.192 C 
ATOM      4  C   LIG    1       -6.491   4.025   1.849  0.00  0.00    +0.192 C 
ATOM      5  O   LIG    1       -6.020   3.237   0.737  0.00  0.00    -0.339 OA
ENDROOT
BRANCH   1  16
ATOM      6  C   LIG    1       -5.573   5.612  -6.152  0.00  0.00    +0.016 C 
ATOM      7  C   LIG    1       -6.758   5.024  -5.382  0.00  0.00    -0.010 C 
ATOM      8  C   LIG    1       -7.896   6.047  -5.351  0.00  0.00    +0.016 C 
ATOM      9  C   LIG    1       -7.239   3.757  -6.087  0.00  0.00    +0.012 C 
ATOM     10  C   LIG    1       -8.275   3.069  -5.191  0.00  0.00    +0.012 C 
ATOM     11  C   LIG    1       -7.555   2.503  -3.969  0.00  0.00    -0.010 C 
ATOM     12  C   LIG    1       -8.591   2.002  -2.960  0.00  0.00    +0.016 C 
ATOM     13  C   LIG    1       -6.668   1.334  -4.403  0.00  0.00    +0.016 C 
ATOM     14  C   LIG    1       -6.700   3.560  -3.320  0.00  0.00    -0.038 A 
ATOM     15  C   LIG    1       -6.277   3.340  -2.016  0.00  0.00    +0.013 A 
ATOM     16  C   LIG    1       -5.487   4.267  -1.369  0.00  0.00    +0.016 A 
ATOM     17  C   LIG    1       -5.116   5.428  -2.022  0.00  0.00    +0.009 A 
ATOM     18  C   LIG    1       -5.532   5.647  -3.320  0.00  0.00    +0.005 A 
ATOM     19  C   LIG    1       -6.329   4.715  -3.972  0.00  0.00    -0.038 A 
ENDBRANCH   1  16
BRANCH   1  20
ATOM     20  C   LIG    1       -3.720   3.284   0.037  0.00  0.00    +0.016 A 
ATOM     21  C   LIG    1       -3.705   1.900   0.030  0.00  0.00    +0.010 A 
ATOM     22  C   LIG    1       -2.505   1.220   0.021  0.00  0.00    +0.015 A 
ATOM     23  C   LIG    1       -1.304   1.932   0.019  0.00  0.00    +0.059 A 
ATOM     24  C   LIG    1       -1.326   3.328   0.032  0.00  0.00    +0.015 A 
ATOM     25  C   LIG    1       -2.534   3.995   0.036  0.00  0.00    +0.010 A 
BRANCH  23  26
ATOM     26  C   LIG    1       -0.014   1.210   0.009  0.00  0.00    +0.337 C 
ATOM     27  O   LIG    1        0.002  -0.004   0.002  0.00  0.00    -0.245 OA
BRANCH  26  28
ATOM     28  O   LIG    1        1.143   1.900   0.001  0.00  0.00    -0.477 OA
ATOM     29  H   LIG    1        1.130   2.837   0.006  0.00  0.00    +0.295 HD
ENDBRANCH  26  28
ENDBRANCH  23  26
ENDBRANCH   1  20
TORSDOF 4
