REMARK  Name = ZINC01602735
REMARK                            x       y       z     vdW  Elec       q    Type
REMARK                         _______ _______ _______ _____ _____    ______ ____
ROOT
ATOM      1  C   LIG    1       -0.718   1.572   1.248  0.00  0.00    +0.203 C 
ATOM      2  O   LIG    1       -1.710   2.253   1.150  0.00  0.00    -0.289 OA
ENDROOT
BRANCH   1   3
ATOM      3  C   LIG    1       -0.193   1.212   2.591  0.00  0.00    +0.203 C 
ATOM      4  O   LIG    1        0.800   0.531   2.689  0.00  0.00    -0.289 OA
BRANCH   3   5
ATOM      5  C   LIG    1       -0.898   1.698   3.831  0.00  0.00    +0.117 C 
BRANCH   5   6
ATOM      6  C   LIG    1       -0.169   1.199   5.052  0.00  0.00    -0.040 A 
ATOM      7  C   LIG    1       -0.516  -0.014   5.616  0.00  0.00    +0.004 A 
ATOM      8  C   LIG    1        0.155  -0.474   6.733  0.00  0.00    +0.000 A 
ATOM      9  C   LIG    1        1.168   0.283   7.292  0.00  0.00    +0.000 A 
ATOM     10  C   LIG    1        1.511   1.499   6.731  0.00  0.00    +0.000 A 
ATOM     11  C   LIG    1        0.843   1.957   5.611  0.00  0.00    +0.004 A 
ENDBRANCH   5   6
ENDBRANCH   3   5
ENDBRANCH   1   3
BRANCH   1  12
ATOM     12  C   LIG    1       -0.013   1.086   0.008  0.00  0.00    +0.117 C 
BRANCH  12  16
ATOM     13  C   LIG    1       -2.079   2.501  -3.453  0.00  0.00    +0.000 A 
ATOM     14  C   LIG    1       -1.066   3.259  -2.894  0.00  0.00    +0.000 A 
ATOM     15  C   LIG    1       -0.398   2.801  -1.774  0.00  0.00    +0.004 A 
ATOM     16  C   LIG    1       -0.742   1.585  -1.213  0.00  0.00    -0.040 A 
ATOM     17  C   LIG    1       -1.750   0.825  -1.775  0.00  0.00    +0.004 A 
ATOM     18  C   LIG    1       -2.422   1.285  -2.892  0.00  0.00    +0.000 A 
ENDBRANCH  12  16
ENDBRANCH   1  12
TORSDOF 5
