REMARK  Name = ZINC01486608
REMARK                            x       y       z     vdW  Elec       q    Type
REMARK                         _______ _______ _______ _____ _____    ______ ____
ROOT
ATOM      1  C   LIG    1       -2.329  -0.933  -0.884  0.00  0.00    +0.101 A 
ATOM      2  C   LIG    1       -2.366  -2.173  -1.569  0.00  0.00    +0.028 A 
ATOM      3  C   LIG    1       -3.709  -2.602  -1.561  0.00  0.00    +0.075 A 
ATOM      4  C   LIG    1       -4.346  -3.738  -2.076  0.00  0.00    +0.028 A 
ATOM      5  C   LIG    1       -5.694  -3.878  -1.914  0.00  0.00    +0.004 A 
ATOM      6  C   LIG    1       -6.413  -2.884  -1.236  0.00  0.00    +0.020 A 
ATOM      7  C   LIG    1       -5.777  -1.796  -0.746  0.00  0.00    +0.113 A 
ATOM      8  N   LIG    1       -4.432  -1.646  -0.903  0.00  0.00    -0.239 N 
ATOM      9  N   LIG    1       -3.552  -0.634  -0.500  0.00  0.00    -0.166 NA
ENDROOT
BRANCH   1  13
ATOM     10  C   LIG    1        1.138   1.428  -0.198  0.00  0.00    +0.000 A 
ATOM     11  C   LIG    1       -0.078   2.043  -0.437  0.00  0.00    +0.001 A 
ATOM     12  C   LIG    1       -1.207   1.281  -0.660  0.00  0.00    +0.010 A 
ATOM     13  C   LIG    1       -1.120  -0.110  -0.645  0.00  0.00    +0.003 A 
ATOM     14  C   LIG    1        0.108  -0.724  -0.404  0.00  0.00    +0.010 A 
ATOM     15  C   LIG    1        1.230   0.048  -0.182  0.00  0.00    +0.001 A 
ENDBRANCH   1  13
BRANCH   2  16
ATOM     16  C   LIG    1       -1.267  -2.850  -2.148  0.00  0.00    +0.017 C 
ATOM     17  C   LIG    1       -0.419  -2.186  -2.977  0.00  0.00    +0.068 C 
BRANCH  17  18
ATOM     18  C   LIG    1        0.677  -2.861  -3.555  0.00  0.00    +0.240 C 
ATOM     19  N   LIG    1        1.456  -2.233  -4.458  0.00  0.00    -0.295 N 
ATOM     20  C   LIG    1        1.244  -0.813  -4.770  0.00  0.00    +0.108 C 
ATOM     21  C   LIG    1        1.079  -0.655  -6.281  0.00  0.00    +0.019 C 
ATOM     22  C   LIG    1        2.280  -1.283  -6.991  0.00  0.00    +0.003 C 
ATOM     23  C   LIG    1        2.345  -2.777  -6.665  0.00  0.00    +0.022 C 
ATOM     24  C   LIG    1        2.528  -2.958  -5.155  0.00  0.00    +0.078 C 
ATOM     25  O   LIG    1        0.920  -4.012  -3.236  0.00  0.00    -0.271 OA
BRANCH  24  26
ATOM     26  C   LIG    1        2.456  -4.444  -4.801  0.00  0.00    +0.050 C 
BRANCH  26  27
ATOM     27  C   LIG    1        3.547  -5.202  -5.560  0.00  0.00    +0.157 C 
BRANCH  27  28
ATOM     28  O   LIG    1        3.557  -6.569  -5.141  0.00  0.00    -0.395 OA
ATOM     29  H   LIG    1        4.226  -7.110  -5.583  0.00  0.00    +0.209 HD
ENDBRANCH  27  28
ENDBRANCH  26  27
ENDBRANCH  24  26
ENDBRANCH  17  18
ENDBRANCH   2  16
TORSDOF 6
