REMARK  Name = ZINC01550701
REMARK                            x       y       z     vdW  Elec       q    Type
REMARK                         _______ _______ _______ _____ _____    ______ ____
ROOT
ATOM      1  N   LIG    1        3.933  -2.794  -2.393  0.00  0.00    -0.224 N 
ATOM      2  C   LIG    1        3.999  -4.006  -1.805  0.00  0.00    +0.244 C 
ATOM      3  C   LIG    1        2.881  -4.032  -0.783  0.00  0.00    +0.169 C 
ATOM      4  C   LIG    1        3.472  -4.183   0.624  0.00  0.00    +0.069 C 
ATOM      5  C   LIG    1        2.521  -3.592   1.633  0.00  0.00    -0.015 A 
ATOM      6  C   LIG    1        2.482  -3.845   3.062  0.00  0.00    +0.003 A 
ATOM      7  C   LIG    1        3.250  -4.661   3.898  0.00  0.00    +0.010 A 
ATOM      8  C   LIG    1        2.931  -4.656   5.233  0.00  0.00    +0.001 A 
ATOM      9  C   LIG    1        1.899  -3.883   5.740  0.00  0.00    +0.002 A 
ATOM     10  C   LIG    1        1.122  -3.067   4.935  0.00  0.00    +0.026 A 
ATOM     11  C   LIG    1        1.424  -3.053   3.575  0.00  0.00    +0.047 A 
ATOM     12  N   LIG    1        0.873  -2.381   2.522  0.00  0.00    -0.356 N 
ATOM     13  H   LIG    1        0.129  -1.762   2.582  0.00  0.00    +0.166 HD
ATOM     14  C   LIG    1        1.530  -2.711   1.369  0.00  0.00    +0.046 A 
ATOM     15  C   LIG    1        1.226  -2.187  -0.021  0.00  0.00    +0.155 C 
ATOM     16  N   LIG    1        2.302  -2.674  -0.892  0.00  0.00    -0.261 N 
ATOM     17  O   LIG    1        4.790  -4.893  -2.045  0.00  0.00    -0.273 OA
ATOM     18  C   LIG    1        2.946  -2.047  -1.877  0.00  0.00    +0.313 C 
ATOM     19  O   LIG    1        2.671  -0.927  -2.263  0.00  0.00    -0.252 OA
ENDROOT
BRANCH  15  20
ATOM     20  C   LIG    1        1.208  -0.680  -0.013  0.00  0.00    -0.021 A 
ATOM     21  C   LIG    1        0.002  -0.004   0.002  0.00  0.00    +0.009 A 
ATOM     22  C   LIG    1       -0.017   1.377   0.010  0.00  0.00    +0.046 A 
ATOM     23  C   LIG    1        1.176   2.086   0.002  0.00  0.00    +0.120 A 
ATOM     24  C   LIG    1        2.385   1.405  -0.013  0.00  0.00    +0.046 A 
ATOM     25  C   LIG    1        2.398   0.024  -0.021  0.00  0.00    +0.009 A 
BRANCH  23  26
ATOM     26  O   LIG    1        1.160   3.445   0.009  0.00  0.00    -0.495 OA
ATOM     27  C   LIG    1        2.426   4.108   0.001  0.00  0.00    +0.277 C 
ENDBRANCH  23  26
ENDBRANCH  15  20
BRANCH   1  28
ATOM     28  C   LIG    1        4.828  -2.350  -3.464  0.00  0.00    +0.118 C 
BRANCH  28  29
ATOM     29  C   LIG    1        6.054  -1.668  -2.853  0.00  0.00    +0.019 C 
BRANCH  29  31
ATOM     30  C   LIG    1        8.215  -0.521  -3.361  0.00  0.00    +0.004 C 
ATOM     31  C   LIG    1        6.989  -1.203  -3.972  0.00  0.00    -0.002 C 
ENDBRANCH  29  31
ENDBRANCH  28  29
ENDBRANCH   1  28
TORSDOF 5
