REMARK  Name = ZINC01541366
REMARK                            x       y       z     vdW  Elec       q    Type
REMARK                         _______ _______ _______ _____ _____    ______ ____
ROOT
ATOM      1  C   LIG    1        3.953   3.278  -0.032  0.00  0.00    +0.146 A 
ATOM      2  C   LIG    1        3.341   3.041   1.196  0.00  0.00    +0.049 A 
ATOM      3  C   LIG    1        2.041   2.566   1.204  0.00  0.00    +0.028 A 
ATOM      4  C   LIG    1        1.391   2.331   0.001  0.00  0.00    +0.052 A 
ATOM      5  N   LIG    1        1.987   2.561  -1.148  0.00  0.00    -0.248 NA
ATOM      6  C   LIG    1        3.233   3.022  -1.208  0.00  0.00    +0.106 A 
ENDROOT
BRANCH   6   7
ATOM      7  C   LIG    1        3.860   3.265  -2.516  0.00  0.00    +0.038 C 
ATOM      8  C   LIG    1        3.171   3.020  -3.651  0.00  0.00    +0.093 C 
BRANCH   8   9
ATOM      9  C   LIG    1        3.795   3.262  -4.952  0.00  0.00    +0.330 C 
ATOM     10  O   LIG    1        4.934   3.683  -5.011  0.00  0.00    -0.246 OA
BRANCH   9  11
ATOM     11  O   LIG    1        3.106   3.018  -6.085  0.00  0.00    -0.478 OA
ATOM     12  H   LIG    1        2.228   2.693  -6.040  0.00  0.00    +0.295 HD
ENDBRANCH   9  11
ENDBRANCH   8   9
ENDBRANCH   6   7
BRANCH   1  13
ATOM     13  O   LIG    1        5.224   3.748  -0.090  0.00  0.00    -0.490 OA
BRANCH  13  14
ATOM     14  C   LIG    1        5.886   3.982   1.155  0.00  0.00    +0.234 C 
BRANCH  14  15
ATOM     15  C   LIG    1        7.299   4.506   0.890  0.00  0.00    +0.076 C 
BRANCH  15  19
ATOM     16  C   LIG    1        9.279   5.206   4.610  0.00  0.00    +0.000 A 
ATOM     17  C   LIG    1        9.373   3.970   3.999  0.00  0.00    +0.000 A 
ATOM     18  C   LIG    1        8.732   3.743   2.795  0.00  0.00    +0.004 A 
ATOM     19  C   LIG    1        7.997   4.753   2.203  0.00  0.00    -0.044 A 
ATOM     20  C   LIG    1        7.908   5.991   2.811  0.00  0.00    +0.004 A 
ATOM     21  C   LIG    1        8.544   6.216   4.018  0.00  0.00    +0.000 A 
ENDBRANCH  15  19
ENDBRANCH  14  15
ENDBRANCH  13  14
ENDBRANCH   1  13
BRANCH   4  22
ATOM     22  C   LIG    1       -0.022   1.810   0.012  0.00  0.00    +0.129 C 
BRANCH  22  23
ATOM     23  S   LIG    1        0.002  -0.004   0.002  0.00  0.00    -0.116 S 
BRANCH  23  24
ATOM     24  C   LIG    1       -1.702  -0.454   0.016  0.00  0.00    +0.045 A 
ATOM     25  C   LIG    1       -2.362  -0.643   1.224  0.00  0.00    +0.056 A 
ATOM     26 CL   LIG    1       -1.510  -0.437   2.723  0.00  0.00    -0.082 Cl
ATOM     27  C   LIG    1       -3.700  -0.991   1.231  0.00  0.00    +0.021 A 
ATOM     28  C   LIG    1       -4.378  -1.160   0.038  0.00  0.00    +0.003 A 
ATOM     29  C   LIG    1       -3.723  -0.978  -1.166  0.00  0.00    +0.021 A 
ATOM     30  C   LIG    1       -2.387  -0.625  -1.181  0.00  0.00    +0.056 A 
ATOM     31 CL   LIG    1       -1.565  -0.396  -2.694  0.00  0.00    -0.082 Cl
ENDBRANCH  23  24
ENDBRANCH  22  23
ENDBRANCH   4  22
TORSDOF 10
