REMARK  Name = ZINC01531698
REMARK                            x       y       z     vdW  Elec       q    Type
REMARK                         _______ _______ _______ _____ _____    ______ ____
ROOT
ATOM      1  C   LIG    1        2.495  -2.488  -4.364  0.00  0.00    +0.139 A 
ATOM      2  C   LIG    1        3.046  -1.706  -5.332  0.00  0.00    +0.098 A 
ATOM      3  C   LIG    1        3.680  -2.312  -6.441  0.00  0.00    +0.197 A 
ATOM      4  C   LIG    1        3.707  -3.784  -6.486  0.00  0.00    +0.109 A 
ATOM      5  C   LIG    1        3.108  -4.498  -5.433  0.00  0.00    +0.146 A 
ATOM      6  C   LIG    1        3.122  -5.884  -5.454  0.00  0.00    +0.096 A 
ATOM      7  C   LIG    1        3.723  -6.558  -6.505  0.00  0.00    +0.169 A 
ATOM      8  C   LIG    1        4.318  -5.854  -7.551  0.00  0.00    +0.204 A 
ATOM      9  C   LIG    1        4.314  -4.468  -7.546  0.00  0.00    +0.180 A 
ATOM     10  O   LIG    1        4.185  -1.642  -7.328  0.00  0.00    -0.287 OA
ATOM     11  O   LIG    1        2.531  -3.829  -4.413  0.00  0.00    -0.454 OA
ENDROOT
BRANCH   1  15
ATOM     12  C   LIG    1        0.606  -0.607  -1.055  0.00  0.00    +0.162 A 
ATOM     13  C   LIG    1        1.172   0.164  -2.061  0.00  0.00    +0.050 A 
ATOM     14  C   LIG    1        1.786  -0.442  -3.136  0.00  0.00    +0.015 A 
ATOM     15  C   LIG    1        1.839  -1.837  -3.215  0.00  0.00    +0.021 A 
ATOM     16  C   LIG    1        1.268  -2.613  -2.202  0.00  0.00    +0.061 A 
ATOM     17  C   LIG    1        0.659  -1.998  -1.125  0.00  0.00    +0.162 A 
BRANCH  12  19
ATOM     18  C   LIG    1       -0.017   1.425   0.010  0.00  0.00    +0.277 C 
ATOM     19  O   LIG    1        0.002  -0.004   0.002  0.00  0.00    -0.491 OA
ENDBRANCH  12  19
BRANCH  17  20
ATOM     20  O   LIG    1        0.108  -2.750  -0.135  0.00  0.00    -0.491 OA
ATOM     21  C   LIG    1        0.200  -4.170  -0.271  0.00  0.00    +0.277 C 
ENDBRANCH  17  20
ENDBRANCH   1  15
BRANCH   7  22
ATOM     22  O   LIG    1        3.733  -7.916  -6.517  0.00  0.00    -0.491 OA
ATOM     23  C   LIG    1        3.107  -8.579  -5.417  0.00  0.00    +0.277 C 
ENDBRANCH   7  22
BRANCH   8  24
ATOM     24  O   LIG    1        4.906  -6.529  -8.577  0.00  0.00    -0.488 OA
ATOM     25  C   LIG    1        4.080  -6.853  -9.697  0.00  0.00    +0.277 C 
ENDBRANCH   8  24
BRANCH   9  26
ATOM     26  O   LIG    1        4.893  -3.778  -8.563  0.00  0.00    -0.491 OA
ATOM     27  C   LIG    1        6.276  -3.447  -8.417  0.00  0.00    +0.277 C 
ENDBRANCH   9  26
TORSDOF 6
