REMARK  Name = ZINC01467822
REMARK                            x       y       z     vdW  Elec       q    Type
REMARK                         _______ _______ _______ _____ _____    ______ ____
ROOT
ATOM      1  C   LIG    1        0.109  -2.063  -1.232  0.00  0.00    +0.033 A 
ATOM      2  C   LIG    1        0.118  -2.812  -0.061  0.00  0.00    +0.024 A 
ATOM      3  C   LIG    1        0.225  -4.184  -0.119  0.00  0.00    +0.012 A 
ATOM      4  C   LIG    1        0.324  -4.823  -1.357  0.00  0.00    +0.007 A 
ATOM      5  C   LIG    1        0.314  -4.067  -2.532  0.00  0.00    +0.012 A 
ATOM      6  C   LIG    1        0.201  -2.696  -2.466  0.00  0.00    +0.024 A 
ENDROOT
BRANCH   4   7
ATOM      7  C   LIG    1        0.440  -6.294  -1.424  0.00  0.00    +0.109 A 
ATOM      8  N   LIG    1        0.462  -7.166  -0.439  0.00  0.00    -0.239 NA
ATOM      9  C   LIG    1        0.572  -8.492  -0.648  0.00  0.00    +0.079 A 
ATOM     10  C   LIG    1        0.608  -9.529   0.314  0.00  0.00    +0.029 A 
ATOM     11  C   LIG    1        0.725 -10.829  -0.066  0.00  0.00    +0.002 A 
ATOM     12  C   LIG    1        0.814 -11.193  -1.403  0.00  0.00    +0.001 A 
ATOM     13  C   LIG    1        0.782 -10.211  -2.375  0.00  0.00    +0.017 A 
ATOM     14  C   LIG    1        0.664  -8.895  -2.002  0.00  0.00    +0.040 A 
ATOM     15  S   LIG    1        0.579  -7.344  -2.864  0.00  0.00    -0.067 S 
ENDBRANCH   4   7
BRANCH   1  18
ATOM     16  C   LIG    1        0.558   1.512  -0.148  0.00  0.00    +0.109 C 
ATOM     17  C   LIG    1        0.586   0.005  -0.161  0.00  0.00    +0.214 C 
ATOM     18  N   LIG    1        0.000  -0.672  -1.169  0.00  0.00    -0.286 N 
ATOM     19  H   LIG    1       -0.497  -0.192  -1.850  0.00  0.00    +0.155 HD
ATOM     20  O   LIG    1        1.136  -0.599   0.736  0.00  0.00    -0.276 OA
ENDBRANCH   1  18
TORSDOF 2
