REMARK  Name = ZINC01648910
REMARK                            x       y       z     vdW  Elec       q    Type
REMARK                         _______ _______ _______ _____ _____    ______ ____
ROOT
ATOM      1  C   LIG    1       -3.666   3.319   0.061  0.00  0.00    +0.020 A 
ATOM      2  C   LIG    1       -2.498   4.019   0.336  0.00  0.00    +0.015 A 
ATOM      3  C   LIG    1       -1.296   3.317   0.318  0.00  0.00    +0.051 A 
ATOM      4  C   LIG    1       -1.306   1.943   0.019  0.00  0.00    +0.121 A 
ATOM      5  C   LIG    1       -0.014   1.210   0.009  0.00  0.00    +0.205 C 
ATOM      6  C   LIG    1        1.249   1.974   0.001  0.00  0.00    +0.057 C 
ATOM      7  C   LIG    1        1.254   3.286   0.280  0.00  0.00    +0.055 C 
ATOM      8  O   LIG    1        0.002  -0.004   0.002  0.00  0.00    -0.286 OA
ATOM      9  N   LIG    1       -2.445   1.323  -0.230  0.00  0.00    -0.251 NA
ATOM     10  C   LIG    1       -0.008   3.987   0.600  0.00  0.00    +0.188 C 
ATOM     11  O   LIG    1        0.013   5.099   1.088  0.00  0.00    -0.287 OA
ATOM     12  C   LIG    1       -3.598   1.965  -0.218  0.00  0.00    +0.111 A 
ENDROOT
TORSDOF 0
