REMARK  Name = ZINC01530863
REMARK                            x       y       z     vdW  Elec       q    Type
REMARK                         _______ _______ _______ _____ _____    ______ ____
ROOT
ATOM      1  C   LIG    1       -2.051  -0.660   1.221  0.00  0.00    +0.073 C 
ATOM      2  C   LIG    1       -1.435  -0.326   2.406  0.00  0.00    +0.051 C 
ATOM      3  C   LIG    1       -2.102  -0.471   3.624  0.00  0.00    +0.120 C 
ATOM      4  C   LIG    1       -3.392  -0.950   3.666  0.00  0.00    +0.036 C 
ATOM      5  C   LIG    1       -4.046  -1.298   2.474  0.00  0.00    +0.010 C 
ATOM      6  C   LIG    1       -5.365  -1.792   2.482  0.00  0.00    +0.006 C 
ATOM      7  C   LIG    1       -5.947  -2.094   1.284  0.00  0.00    +0.015 C 
ATOM      8  C   LIG    1       -5.229  -1.929   0.101  0.00  0.00    +0.081 C 
ATOM      9  N   LIG    1       -4.000  -1.475   0.099  0.00  0.00    -0.312 NA
ATOM     10  H   LIG    1       -3.533  -1.373  -0.745  0.00  0.00    +0.122 HD
ATOM     11  C   LIG    1       -3.377  -1.149   1.234  0.00  0.00    +0.074 C 
ENDROOT
BRANCH   1  12
ATOM     12  N   LIG    1       -1.372  -0.511   0.012  0.00  0.00    -0.309 NA
ATOM     13  H   LIG    1       -1.810  -0.743  -0.822  0.00  0.00    +0.123 HD
BRANCH  12  15
ATOM     14  C   LIG    1       -0.019   1.526   0.010  0.00  0.00    +0.024 C 
ATOM     15  C   LIG    1        0.002  -0.004   0.002  0.00  0.00    +0.051 C 
BRANCH  15  16
ATOM     16  C   LIG    1        0.718  -0.497  -1.257  0.00  0.00    +0.016 C 
BRANCH  16  17
ATOM     17  C   LIG    1        0.849  -2.021  -1.205  0.00  0.00    -0.018 C 
BRANCH  17  18
ATOM     18  C   LIG    1        1.565  -2.514  -2.464  0.00  0.00    -0.086 C 
BRANCH  18  19
ATOM     19  N   LIG    1        1.691  -3.977  -2.414  0.00  0.00    +0.378 N 
ATOM     20  H   LIG    1        2.163  -4.303  -3.244  0.00  0.00    -0.090 HD
ATOM     21  H   LIG    1        0.773  -4.392  -2.365  0.00  0.00    -0.090 HD
ATOM     22  H   LIG    1        2.224  -4.241  -1.599  0.00  0.00    -0.090 HD
ENDBRANCH  18  19
ENDBRANCH  17  18
ENDBRANCH  16  17
ENDBRANCH  15  16
ENDBRANCH  12  15
ENDBRANCH   1  12
BRANCH   3  23
ATOM     23  O   LIG    1       -1.472  -0.135   4.780  0.00  0.00    -0.380 OA
ATOM     24  C   LIG    1       -2.207  -0.305   5.993  0.00  0.00    +0.194 C 
ENDBRANCH   3  23
TORSDOF 7
