REMARK  Name = ZINC01642928
REMARK                            x       y       z     vdW  Elec       q    Type
REMARK                         _______ _______ _______ _____ _____    ______ ____
ROOT
ATOM      1  N   LIG    1        5.991  -0.842   0.530  0.00  0.00    -0.340 N 
ATOM      2  H   LIG    1        5.961  -1.811   0.527  0.00  0.00    +0.146 HD
ENDROOT
BRANCH   1   8
ATOM      3  C   LIG    1       -0.017   1.380   0.010  0.00  0.00    +0.020 A 
ATOM      4  C   LIG    1        1.184   2.079   0.002  0.00  0.00    +0.015 A 
ATOM      5  C   LIG    1        2.367   1.347  -0.013  0.00  0.00    +0.051 A 
ATOM      6  C   LIG    1        2.306  -0.057  -0.020  0.00  0.00    +0.123 A 
ATOM      7  C   LIG    1        3.577  -0.824  -0.034  0.00  0.00    +0.226 C 
ATOM      8  C   LIG    1        4.850  -0.118   0.260  0.00  0.00    +0.080 C 
ATOM      9  C   LIG    1        4.894   1.237   0.264  0.00  0.00    +0.078 C 
ATOM     10  O   LIG    1        3.576  -2.012  -0.284  0.00  0.00    -0.284 OA
ATOM     11  N   LIG    1        1.137  -0.675  -0.013  0.00  0.00    -0.251 NA
ATOM     12  C   LIG    1        3.687   2.017  -0.022  0.00  0.00    +0.190 C 
ATOM     13  O   LIG    1        3.769   3.206  -0.264  0.00  0.00    -0.287 OA
ATOM     14  C   LIG    1        0.002  -0.004   0.002  0.00  0.00    +0.111 A 
ENDBRANCH   1   8
BRANCH   1  15
ATOM     15  C   LIG    1        7.247  -0.147   0.820  0.00  0.00    +0.106 C 
BRANCH  15  16
ATOM     16  C   LIG    1        8.349  -1.176   1.082  0.00  0.00    +0.054 C 
BRANCH  16  17
ATOM     17  C   LIG    1        9.642  -0.462   1.381  0.00  0.00    -0.044 A 
ATOM     18  C   LIG    1       10.504  -0.135   0.351  0.00  0.00    +0.022 A 
ATOM     19  C   LIG    1       11.691   0.520   0.622  0.00  0.00    +0.061 A 
ATOM     20 BR   LIG    1       12.870   0.966  -0.787  0.00  0.00    -0.046 Br
ATOM     21  C   LIG    1       12.017   0.849   1.931  0.00  0.00    +0.145 A 
ATOM     22  C   LIG    1       11.150   0.520   2.963  0.00  0.00    +0.061 A 
ATOM     23 BR   LIG    1       11.589   0.967   4.747  0.00  0.00    -0.046 Br
ATOM     24  C   LIG    1        9.962  -0.130   2.685  0.00  0.00    +0.022 A 
BRANCH  21  25
ATOM     25  O   LIG    1       13.184   1.493   2.200  0.00  0.00    -0.505 OA
ATOM     26  H   LIG    1       13.114   2.457   2.184  0.00  0.00    +0.292 HD
ENDBRANCH  21  25
ENDBRANCH  16  17
ENDBRANCH  15  16
ENDBRANCH   1  15
TORSDOF 5
