REMARK  Name = ZINC01530688
REMARK                            x       y       z     vdW  Elec       q    Type
REMARK                         _______ _______ _______ _____ _____    ______ ____
ROOT
ATOM      1  C   LIG    1       -2.660  -4.095   0.067  0.00  0.00    +0.021 C 
ATOM      2  C   LIG    1       -4.021  -4.823   0.011  0.00  0.00    +0.017 C 
ATOM      3  C   LIG    1       -3.842  -6.339   0.053  0.00  0.00    +0.014 C 
ATOM      4  C   LIG    1       -2.349  -6.725   0.141  0.00  0.00    +0.050 C 
ATOM      5  C   LIG    1       -1.814  -5.995   1.363  0.00  0.00    -0.036 A 
ATOM      6  C   LIG    1       -1.217  -6.598   2.432  0.00  0.00    +0.004 A 
ATOM      7  C   LIG    1       -0.730  -5.752   3.487  0.00  0.00    +0.000 A 
ATOM      8  C   LIG    1       -0.909  -4.383   3.437  0.00  0.00    +0.000 A 
ATOM      9  C   LIG    1       -1.533  -3.794   2.345  0.00  0.00    +0.005 A 
ATOM     10  C   LIG    1       -1.688  -6.049  -1.050  0.00  0.00    -0.036 A 
ATOM     11  C   LIG    1       -0.985  -6.696  -2.025  0.00  0.00    +0.004 A 
ATOM     12  C   LIG    1       -0.427  -5.950  -3.055  0.00  0.00    +0.000 A 
ATOM     13  C   LIG    1       -0.606  -4.580  -3.105  0.00  0.00    +0.000 A 
ATOM     14  C   LIG    1       -1.326  -3.928  -2.111  0.00  0.00    +0.005 A 
ATOM     15  C   LIG    1       -1.964  -4.592   1.324  0.00  0.00    -0.033 A 
ATOM     16  C   LIG    1       -1.852  -4.665  -1.089  0.00  0.00    -0.033 A 
ENDROOT
BRANCH   1  17
ATOM     17  C   LIG    1       -2.791  -2.572   0.015  0.00  0.00    +0.014 C 
BRANCH  17  18
ATOM     18  C   LIG    1       -3.742  -2.104   1.118  0.00  0.00    -0.018 C 
BRANCH  18  19
ATOM     19  C   LIG    1       -3.770  -0.575   1.153  0.00  0.00    -0.083 C 
BRANCH  19  21
ATOM     20  C   LIG    1       -4.710   1.343   2.245  0.00  0.00    -0.101 C 
ATOM     21  N   LIG    1       -4.683  -0.125   2.212  0.00  0.00    +0.377 N 
ATOM     22  H   LIG    1       -5.611  -0.475   2.027  0.00  0.00    -0.086 HD
ATOM     23  H   LIG    1       -4.363  -0.476   3.103  0.00  0.00    -0.086 HD
ENDBRANCH  19  21
ENDBRANCH  18  19
ENDBRANCH  17  18
ENDBRANCH   1  17
TORSDOF 4
