REMARK  Name = ZINC01543873
REMARK                            x       y       z     vdW  Elec       q    Type
REMARK                         _______ _______ _______ _____ _____    ______ ____
ROOT
ATOM      1  C   LIG    1        4.962  -2.721   0.153  0.00  0.00    +0.096 C 
ENDROOT
BRANCH   1   4
ATOM      2  N   LIG    1        3.622  -0.651  -0.037  0.00  0.00    -0.285 N 
ATOM      3  H   LIG    1        4.452  -0.156  -0.121  0.00  0.00    +0.155 HD
ATOM      4  C   LIG    1        3.645  -1.995   0.057  0.00  0.00    +0.217 C 
ATOM      5  O   LIG    1        2.606  -2.620   0.064  0.00  0.00    -0.275 OA
BRANCH   2   9
ATOM      6  C   LIG    1       -0.015   1.381   0.029  0.00  0.00    +0.000 A 
ATOM      7  C   LIG    1        0.140   0.218   0.763  0.00  0.00    +0.002 A 
ATOM      8  C   LIG    1        1.344  -0.457   0.743  0.00  0.00    +0.023 A 
ATOM      9  C   LIG    1        2.400   0.031  -0.015  0.00  0.00    +0.033 A 
ATOM     10  C   LIG    1        2.241   1.198  -0.751  0.00  0.00    +0.023 A 
ATOM     11  C   LIG    1        1.034   1.870  -0.727  0.00  0.00    +0.002 A 
ENDBRANCH   2   9
ENDBRANCH   1   4
BRANCH   1  12
ATOM     12  C   LIG    1        4.708  -4.227   0.249  0.00  0.00    +0.009 C 
BRANCH  12  13
ATOM     13  C   LIG    1        6.045  -4.964   0.346  0.00  0.00    +0.000 C 
BRANCH  13  14
ATOM     14  C   LIG    1        5.792  -6.470   0.442  0.00  0.00    +0.000 C 
BRANCH  14  15
ATOM     15  C   LIG    1        7.129  -7.207   0.540  0.00  0.00    +0.009 C 
BRANCH  15  16
ATOM     16  C   LIG    1        6.876  -8.713   0.636  0.00  0.00    +0.098 C 
BRANCH  16  17
ATOM     17  C   LIG    1        8.193  -9.439   0.732  0.00  0.00    +0.235 C 
ATOM     18  N   LIG    1        8.216 -10.783   0.826  0.00  0.00    -0.197 N 
ATOM     19  H   LIG    1        7.385 -11.283   0.832  0.00  0.00    +0.182 HD
ATOM     20  O   LIG    1        9.232  -8.813   0.724  0.00  0.00    -0.274 OA
BRANCH  18  21
ATOM     21  O   LIG    1        9.453 -11.465   0.916  0.00  0.00    -0.295 OA
ATOM     22  H   LIG    1        9.369 -12.426   0.980  0.00  0.00    +0.241 HD
ENDBRANCH  18  21
ENDBRANCH  16  17
ENDBRANCH  15  16
ENDBRANCH  14  15
ENDBRANCH  13  14
ENDBRANCH  12  13
ENDBRANCH   1  12
TORSDOF 9
