REMARK  Name = ZINC01532560
REMARK                            x       y       z     vdW  Elec       q    Type
REMARK                         _______ _______ _______ _____ _____    ______ ____
ROOT
ATOM      1  N   LIG    1       -1.413  -1.998   0.005  0.00  0.00    -0.279 N 
ATOM      2  H   LIG    1       -0.567  -2.472  -0.006  0.00  0.00    +0.258 HD
ENDROOT
BRANCH   1   3
ATOM      3  C   LIG    1       -2.589  -2.699   0.012  0.00  0.00    +0.341 C 
ATOM      4  N   LIG    1       -2.571  -4.030   0.005  0.00  0.00    -0.292 N 
ATOM      5  H   LIG    1       -3.404  -4.527   0.010  0.00  0.00    +0.255 HD
ATOM      6  H   LIG    1       -1.724  -4.504  -0.006  0.00  0.00    +0.255 HD
BRANCH   3   7
ATOM      7  N   LIG    1       -3.751  -2.048   0.027  0.00  0.00    -0.292 N 
ATOM      8  H   LIG    1       -4.584  -2.545   0.032  0.00  0.00    +0.255 HD
ATOM      9  H   LIG    1       -3.764  -1.078   0.032  0.00  0.00    +0.255 HD
ENDBRANCH   3   7
ENDBRANCH   1   3
BRANCH   1  10
ATOM     10  C   LIG    1       -1.433  -0.534   0.013  0.00  0.00    +0.195 C 
BRANCH  10  11
ATOM     11  C   LIG    1        0.002  -0.004   0.002  0.00  0.00    +0.035 C 
BRANCH  11  12
ATOM     12  C   LIG    1       -0.019   1.526   0.010  0.00  0.00    -0.016 C 
BRANCH  12  13
ATOM     13  C   LIG    1        1.417   2.055  -0.000  0.00  0.00    -0.086 C 
BRANCH  13  14
ATOM     14  N   LIG    1        1.397   3.524   0.008  0.00  0.00    +0.378 N 
ATOM     15  H   LIG    1        2.343   3.873   0.001  0.00  0.00    -0.090 HD
ATOM     16  H   LIG    1        0.924   3.850   0.838  0.00  0.00    -0.090 HD
ATOM     17  H   LIG    1        0.909   3.858  -0.810  0.00  0.00    -0.090 HD
ENDBRANCH  13  14
ENDBRANCH  12  13
ENDBRANCH  11  12
ENDBRANCH  10  11
ENDBRANCH   1  10
TORSDOF 7
