REMARK  Name = ZINC01530625
REMARK                            x       y       z     vdW  Elec       q    Type
REMARK                         _______ _______ _______ _____ _____    ______ ____
ROOT
ATOM      1  C   LIG    1        1.173   2.086   0.002  0.00  0.00    -0.040 A 
ATOM      2  C   LIG    1       -0.017   1.383   0.010  0.00  0.00    +0.049 A 
ATOM      3  C   LIG    1        0.002  -0.004   0.002  0.00  0.00    +0.124 A 
ATOM      4  C   LIG    1        1.210  -0.685  -0.013  0.00  0.00    +0.043 A 
ATOM      5  C   LIG    1        2.406   0.019  -0.013  0.00  0.00    +0.129 A 
ATOM      6  O   LIG    1        3.615  -0.601  -0.001  0.00  0.00    -0.486 OA
ATOM      7  C   LIG    1        3.684  -2.009  -0.247  0.00  0.00    +0.109 C 
ATOM      8  C   LIG    1        5.036  -2.551   0.223  0.00  0.00    +0.055 C 
ATOM      9  C   LIG    1        3.507  -2.284  -1.742  0.00  0.00    +0.055 C 
ATOM     10  C   LIG    1        2.558  -2.674   0.538  0.00  0.00    +0.044 C 
ATOM     11  C   LIG    1        2.577  -4.196   0.436  0.00  0.00    +0.012 C 
ATOM     12  C   LIG    1        1.517  -4.740   1.401  0.00  0.00    +0.030 C 
ATOM     13  C   LIG    1        0.243  -3.957   1.317  0.00  0.00    -0.076 C 
ATOM     14  C   LIG    1       -0.970  -4.528   2.007  0.00  0.00    +0.039 C 
ATOM     15  C   LIG    1        0.099  -2.823   0.694  0.00  0.00    -0.019 C 
ATOM     16  C   LIG    1        1.228  -2.183  -0.044  0.00  0.00    +0.056 C 
ATOM     17  C   LIG    1        2.376   1.411  -0.009  0.00  0.00    +0.049 A 
ENDROOT
BRANCH   3  18
ATOM     18  O   LIG    1       -1.167  -0.698   0.009  0.00  0.00    -0.506 OA
ATOM     19  H   LIG    1       -1.513  -0.894  -0.872  0.00  0.00    +0.292 HD
ENDBRANCH   3  18
BRANCH   1  20
ATOM     20  C   LIG    1        1.156   3.592   0.005  0.00  0.00    +0.035 C 
BRANCH  20  21
ATOM     21  C   LIG    1        1.161   4.099   1.449  0.00  0.00    +0.005 C 
BRANCH  21  22
ATOM     22  C   LIG    1        1.143   5.629   1.452  0.00  0.00    +0.000 C 
BRANCH  22  24
ATOM     23  C   LIG    1        1.131   7.666   2.899  0.00  0.00    +0.004 C 
ATOM     24  C   LIG    1        1.149   6.136   2.896  0.00  0.00    -0.003 C 
ENDBRANCH  22  24
ENDBRANCH  21  22
ENDBRANCH  20  21
ENDBRANCH   1  20
TORSDOF 5
