REMARK  Name = ZINC01487345
REMARK                            x       y       z     vdW  Elec       q    Type
REMARK                         _______ _______ _______ _____ _____    ______ ____
ROOT
ATOM      1  N   LIG    1       -0.017   1.368   0.010  0.00  0.00    -0.312 N 
ATOM      2  C   LIG    1        1.280   1.794  -0.001  0.00  0.00    +0.201 A 
ATOM      3  N   LIG    1        2.083   0.772  -0.014  0.00  0.00    -0.231 NA
ATOM      4  C   LIG    1        1.357  -0.373  -0.013  0.00  0.00    +0.148 A 
ATOM      5  C   LIG    1        1.675  -1.742  -0.023  0.00  0.00    +0.152 A 
ATOM      6  N   LIG    1        0.682  -2.625  -0.018  0.00  0.00    -0.197 NA
ATOM      7  C   LIG    1       -0.585  -2.232  -0.004  0.00  0.00    +0.222 A 
ATOM      8  N   LIG    1       -0.928  -0.954   0.006  0.00  0.00    -0.195 NA
ATOM      9  C   LIG    1        0.002  -0.004   0.002  0.00  0.00    +0.167 A 
ENDROOT
BRANCH   1  11
ATOM     10  C   LIG    1       -1.199   3.095   1.274  0.00  0.00    +0.030 C 
ATOM     11  C   LIG    1       -1.209   2.219   0.020  0.00  0.00    +0.084 C 
ATOM     12  C   LIG    1       -1.212   3.109  -1.224  0.00  0.00    +0.030 C 
ENDBRANCH   1  11
BRANCH   5  13
ATOM     13  N   LIG    1        2.993  -2.162  -0.038  0.00  0.00    -0.323 N 
ATOM     14  H   LIG    1        3.446  -1.810  -0.857  0.00  0.00    +0.148 HD
BRANCH  13  15
ATOM     15  C   LIG    1        3.306  -3.593  -0.049  0.00  0.00    +0.138 C 
BRANCH  15  16
ATOM     16  C   LIG    1        4.801  -3.780  -0.065  0.00  0.00    -0.030 A 
ATOM     17  C   LIG    1        5.474  -3.865  -1.270  0.00  0.00    +0.009 A 
ATOM     18  C   LIG    1        6.845  -4.031  -1.287  0.00  0.00    +0.046 A 
ATOM     19  C   LIG    1        7.546  -4.123  -0.094  0.00  0.00    +0.120 A 
ATOM     20  C   LIG    1        6.869  -4.044   1.114  0.00  0.00    +0.046 A 
ATOM     21  C   LIG    1        5.498  -3.872   1.126  0.00  0.00    +0.009 A 
BRANCH  19  22
ATOM     22  O   LIG    1        8.895  -4.292  -0.108  0.00  0.00    -0.495 OA
ATOM     23  C   LIG    1        9.526  -4.365  -1.388  0.00  0.00    +0.277 C 
ENDBRANCH  19  22
ENDBRANCH  15  16
ENDBRANCH  13  15
ENDBRANCH   5  13
BRANCH   7  24
ATOM     24  N   LIG    1       -1.584  -3.192   0.001  0.00  0.00    -0.295 N 
BRANCH  24  25
ATOM     25  C   LIG    1       -2.991  -2.785   0.016  0.00  0.00    +0.136 C 
BRANCH  25  26
ATOM     26  C   LIG    1       -3.494  -2.636  -1.421  0.00  0.00    +0.174 C 
BRANCH  26  27
ATOM     27  O   LIG    1       -3.476  -3.911  -2.067  0.00  0.00    -0.393 OA
ATOM     28  H   LIG    1       -3.783  -3.892  -2.984  0.00  0.00    +0.209 HD
ENDBRANCH  26  27
ENDBRANCH  25  26
ENDBRANCH  24  25
BRANCH  24  29
ATOM     29  C   LIG    1       -1.232  -4.614  -0.010  0.00  0.00    +0.136 C 
BRANCH  29  30
ATOM     30  C   LIG    1       -1.096  -5.117   1.429  0.00  0.00    +0.174 C 
BRANCH  30  31
ATOM     31  O   LIG    1       -2.366  -5.046   2.080  0.00  0.00    -0.393 OA
ATOM     32  H   LIG    1       -2.355  -5.350   2.998  0.00  0.00    +0.209 HD
ENDBRANCH  30  31
ENDBRANCH  29  30
ENDBRANCH  24  29
ENDBRANCH   7  24
TORSDOF 12
