REMARK  Name = ZINC01433197
REMARK                            x       y       z     vdW  Elec       q    Type
REMARK                         _______ _______ _______ _____ _____    ______ ____
ROOT
ATOM      1  C   LIG    1        2.379   1.399  -0.013  0.00  0.00    +0.000 A 
ATOM      2  C   LIG    1        1.176   2.079   0.002  0.00  0.00    +0.000 A 
ATOM      3  C   LIG    1       -0.017   1.379   0.010  0.00  0.00    +0.002 A 
ATOM      4  C   LIG    1        0.002  -0.004   0.002  0.00  0.00    -0.061 A 
ATOM      5  C   LIG    1        1.197  -0.679  -0.011  0.00  0.00    -0.043 A 
ATOM      6  C   LIG    1        1.205  -2.193  -0.015  0.00  0.00    +0.070 C 
ATOM      7  C   LIG    1        0.699  -2.677   1.349  0.00  0.00    +0.153 C 
ATOM      8  F   LIG    1        1.203  -3.958   1.599  0.00  0.00    -0.247 F 
ATOM      9  C   LIG    1       -0.815  -2.724   1.374  0.00  0.00    -0.044 C 
ATOM     10  N   LIG    1       -1.474  -1.413   1.329  0.00  0.00    +0.384 N 
ATOM     11  H   LIG    1       -2.476  -1.535   1.515  0.00  0.00    -0.085 HD
ATOM     12  H   LIG    1       -1.063  -0.807   2.049  0.00  0.00    -0.085 HD
ATOM     13  C   LIG    1       -1.303  -0.772   0.004  0.00  0.00    -0.046 C 
ATOM     14  C   LIG    1        2.393   0.015  -0.019  0.00  0.00    +0.004 A 
ENDROOT
TORSDOF 0
