REMARK  Name = ZINC01652977
REMARK                            x       y       z     vdW  Elec       q    Type
REMARK                         _______ _______ _______ _____ _____    ______ ____
ROOT
ATOM      1  C   LIG    1       -0.018   1.461   0.010  0.00  0.00    +0.151 C 
ATOM      2  N   LIG    1        0.002  -0.004   0.002  0.00  0.00    -0.325 N 
ATOM      3  C   LIG    1       -0.003  -0.819  -1.112  0.00  0.00    +0.151 A 
ATOM      4  C   LIG    1        0.024  -2.125  -0.638  0.00  0.00    +0.168 A 
ATOM      5  N   LIG    1        0.029  -3.167  -1.551  0.00  0.00    -0.280 N 
ATOM      6  C   LIG    1        0.052  -4.554  -1.078  0.00  0.00    +0.155 C 
ATOM      7  C   LIG    1        0.013  -2.909  -2.872  0.00  0.00    +0.333 A 
ATOM      8  N   LIG    1       -0.009  -1.650  -3.344  0.00  0.00    -0.262 N 
ATOM      9  C   LIG    1       -0.026  -1.423  -4.791  0.00  0.00    +0.157 C 
ATOM     10  O   LIG    1        0.018  -3.836  -3.658  0.00  0.00    -0.246 OA
ATOM     11  N   LIG    1        0.036  -2.062   0.696  0.00  0.00    -0.214 NA
ATOM     12  C   LIG    1       -0.015  -0.593  -2.505  0.00  0.00    +0.282 A 
ATOM     13  O   LIG    1       -0.035   0.542  -2.945  0.00  0.00    -0.265 OA
ATOM     14  C   LIG    1        0.023  -0.811   1.081  0.00  0.00    +0.115 A 
ENDROOT
BRANCH  14  15
ATOM     15  C   LIG    1        0.030  -0.345   2.513  0.00  0.00    +0.055 C 
ATOM     16  C   LIG    1        1.294  -0.855   3.210  0.00  0.00    +0.011 C 
ATOM     17  C   LIG    1        1.301  -0.382   4.665  0.00  0.00    +0.001 C 
ATOM     18  C   LIG    1        0.066  -0.926   5.385  0.00  0.00    +0.000 C 
ATOM     19  C   LIG    1       -1.197  -0.415   4.688  0.00  0.00    +0.001 C 
ATOM     20  C   LIG    1       -1.205  -0.889   3.233  0.00  0.00    +0.011 C 
ENDBRANCH  14  15
TORSDOF 1
