REMARK  Name = ZINC01605748
REMARK                            x       y       z     vdW  Elec       q    Type
REMARK                         _______ _______ _______ _____ _____    ______ ____
ROOT
ATOM      1  C   LIG    1        1.349   0.006   3.364  0.00  0.00    +0.199 C 
ATOM      2  N   LIG    1        1.270   0.015   2.018  0.00  0.00    -0.305 N 
ATOM      3  H   LIG    1        2.039   0.279   1.489  0.00  0.00    +0.149 HD
ATOM      4  O   LIG    1        0.388  -0.324   4.025  0.00  0.00    -0.278 OA
ENDROOT
BRANCH   1   5
ATOM      5  C   LIG    1        2.632   0.406   4.046  0.00  0.00    +0.013 C 
BRANCH   5   6
ATOM      6  N   LIG    1        2.374   0.782   5.447  0.00  0.00    +0.386 N 
ATOM      7  H   LIG    1        3.264   1.019   5.902  0.00  0.00    -0.089 HD
ATOM      8  H   LIG    1        1.944   0.004   5.944  0.00  0.00    -0.089 HD
ATOM      9  H   LIG    1        1.757   1.592   5.484  0.00  0.00    -0.089 HD
ENDBRANCH   5   6
BRANCH   5  10
ATOM     10  C   LIG    1        3.612  -0.768   4.019  0.00  0.00    -0.004 C 
BRANCH  10  12
ATOM     11  C   LIG    1        5.872  -1.548   4.744  0.00  0.00    +0.007 C 
ATOM     12  C   LIG    1        4.943  -0.337   4.638  0.00  0.00    -0.018 C 
ATOM     13  C   LIG    1        5.594   0.730   3.756  0.00  0.00    +0.007 C 
ENDBRANCH  10  12
ENDBRANCH   5  10
ENDBRANCH   1   5
BRANCH   2  14
ATOM     14  C   LIG    1        0.023  -0.373   1.355  0.00  0.00    +0.163 C 
BRANCH  14  15
ATOM     15  C   LIG    1       -0.019  -1.872   1.204  0.00  0.00    +0.231 C 
ATOM     16  N   LIG    1       -1.080  -2.461   0.617  0.00  0.00    -0.328 N 
ATOM     17  H   LIG    1       -1.107  -3.425   0.519  0.00  0.00    +0.145 HD
ATOM     18  H   LIG    1       -1.817  -1.919   0.292  0.00  0.00    +0.145 HD
ATOM     19  O   LIG    1        0.902  -2.549   1.609  0.00  0.00    -0.274 OA
ENDBRANCH  14  15
BRANCH  14  20
ATOM     20  C   LIG    1       -0.046   0.281  -0.026  0.00  0.00    +0.067 C 
BRANCH  20  21
ATOM     21  C   LIG    1       -0.127   1.778   0.131  0.00  0.00    -0.045 A 
ATOM     22  C   LIG    1       -1.360   2.397   0.224  0.00  0.00    +0.004 A 
ATOM     23  C   LIG    1       -1.435   3.769   0.373  0.00  0.00    +0.000 A 
ATOM     24  C   LIG    1       -0.277   4.523   0.418  0.00  0.00    +0.000 A 
ATOM     25  C   LIG    1        0.955   3.905   0.319  0.00  0.00    +0.000 A 
ATOM     26  C   LIG    1        1.030   2.532   0.175  0.00  0.00    +0.004 A 
ENDBRANCH  20  21
ENDBRANCH  14  20
ENDBRANCH   2  14
TORSDOF 8
