MODEL 1
REMARK VINA RESULT:      -5.4      0.000      0.000
REMARK  Name = ZINC00000381
REMARK                            x       y       z     vdW  Elec       q    Type
REMARK                         _______ _______ _______ _____ _____    ______ ____
ROOT
ATOM      1  C   LIG    1       22.377  31.560  55.157  0.00  0.00    -0.036 A 
ATOM      2  C   LIG    1       22.655  32.412  56.210  0.00  0.00    +0.004 A 
ATOM      3  C   LIG    1       23.966  32.702  56.537  0.00  0.00    +0.004 A 
ATOM      4  C   LIG    1       24.999  32.142  55.810  0.00  0.00    -0.047 A 
ATOM      5  C   LIG    1       24.721  31.290  54.757  0.00  0.00    +0.004 A 
ATOM      6  C   LIG    1       23.410  30.996  54.434  0.00  0.00    +0.004 A 
ENDROOT
BRANCH   1   8
ATOM      7  C   LIG    1       20.037  32.372  55.292  0.00  0.00    +0.022 C 
ATOM      8  C   LIG    1       20.947  31.243  54.801  0.00  0.00    +0.104 C 
BRANCH   8   9
ATOM      9  C   LIG    1       20.541  29.949  55.458  0.00  0.00    +0.243 C 
ATOM     10  N   LIG    1       20.568  28.799  54.755  0.00  0.00    -0.197 N 
ATOM     11  H   LIG    1       20.847  28.805  53.826  0.00  0.00    +0.182 HD
ATOM     12  O   LIG    1       20.191  29.942  56.619  0.00  0.00    -0.273 OA
BRANCH  10  13
ATOM     13  O   LIG    1       20.187  27.583  55.373  0.00  0.00    -0.295 OA
ATOM     14  H   LIG    1       20.072  27.648  56.331  0.00  0.00    +0.241 HD
ENDBRANCH  10  13
ENDBRANCH   8   9
ENDBRANCH   1   8
BRANCH   4  15
ATOM     15  C   LIG    1       26.429  32.459  56.165  0.00  0.00    +0.038 C 
BRANCH  15  16
ATOM     16  C   LIG    1       27.260  32.567  54.886  0.00  0.00    -0.013 C 
ATOM     17  C   LIG    1       28.584  31.823  55.073  0.00  0.00    +0.007 C 
ATOM     18  C   LIG    1       27.543  34.041  54.584  0.00  0.00    +0.007 C 
ENDBRANCH  15  16
ENDBRANCH   4  15
TORSDOF 5
ENDMDL
MODEL 2
REMARK VINA RESULT:      -5.4      2.054      2.528
REMARK  Name = ZINC00000381
REMARK                            x       y       z     vdW  Elec       q    Type
REMARK                         _______ _______ _______ _____ _____    ______ ____
ROOT
ATOM      1  C   LIG    1       23.319  29.987  55.730  0.00  0.00    -0.036 A 
ATOM      2  C   LIG    1       23.784  30.670  54.621  0.00  0.00    +0.004 A 
ATOM      3  C   LIG    1       24.803  31.593  54.755  0.00  0.00    +0.004 A 
ATOM      4  C   LIG    1       25.359  31.833  55.998  0.00  0.00    -0.047 A 
ATOM      5  C   LIG    1       24.895  31.151  57.106  0.00  0.00    +0.004 A 
ATOM      6  C   LIG    1       23.872  30.231  56.973  0.00  0.00    +0.004 A 
ENDROOT
BRANCH   1   8
ATOM      7  C   LIG    1       21.013  29.413  56.438  0.00  0.00    +0.022 C 
ATOM      8  C   LIG    1       22.207  28.981  55.583  0.00  0.00    +0.104 C 
BRANCH   8   9
ATOM      9  C   LIG    1       22.689  27.629  56.042  0.00  0.00    +0.243 C 
ATOM     10  N   LIG    1       23.669  26.998  55.365  0.00  0.00    -0.197 N 
ATOM     11  H   LIG    1       24.064  27.414  54.582  0.00  0.00    +0.182 HD
ATOM     12  O   LIG    1       22.196  27.108  57.019  0.00  0.00    -0.273 OA
BRANCH  10  13
ATOM     13  O   LIG    1       24.123  25.728  55.795  0.00  0.00    -0.295 OA
ATOM     14  H   LIG    1       24.792  25.765  56.493  0.00  0.00    +0.241 HD
ENDBRANCH  10  13
ENDBRANCH   8   9
ENDBRANCH   1   8
BRANCH   4  15
ATOM     15  C   LIG    1       26.472  32.839  56.144  0.00  0.00    +0.038 C 
BRANCH  15  16
ATOM     16  C   LIG    1       27.366  32.794  54.903  0.00  0.00    -0.013 C 
ATOM     17  C   LIG    1       28.651  32.028  55.227  0.00  0.00    +0.007 C 
ATOM     18  C   LIG    1       27.718  34.220  54.476  0.00  0.00    +0.007 C 
ENDBRANCH  15  16
ENDBRANCH   4  15
TORSDOF 5
ENDMDL
MODEL 3
REMARK VINA RESULT:      -5.3      4.092      6.536
REMARK  Name = ZINC00000381
REMARK                            x       y       z     vdW  Elec       q    Type
REMARK                         _______ _______ _______ _____ _____    ______ ____
ROOT
ATOM      1  C   LIG    1       25.722  31.877  55.264  0.00  0.00    -0.036 A 
ATOM      2  C   LIG    1       25.537  31.568  56.599  0.00  0.00    +0.004 A 
ATOM      3  C   LIG    1       24.396  30.899  57.001  0.00  0.00    +0.004 A 
ATOM      4  C   LIG    1       23.441  30.540  56.069  0.00  0.00    -0.047 A 
ATOM      5  C   LIG    1       23.627  30.850  54.735  0.00  0.00    +0.004 A 
ATOM      6  C   LIG    1       24.765  31.523  54.333  0.00  0.00    +0.004 A 
ENDROOT
BRANCH   1   8
ATOM      7  C   LIG    1       28.181  31.693  54.999  0.00  0.00    +0.022 C 
ATOM      8  C   LIG    1       26.967  32.607  54.826  0.00  0.00    +0.104 C 
BRANCH   8   9
ATOM      9  C   LIG    1       27.146  33.844  55.668  0.00  0.00    +0.243 C 
ATOM     10  N   LIG    1       26.433  34.955  55.394  0.00  0.00    -0.197 N 
ATOM     11  H   LIG    1       25.804  34.958  54.655  0.00  0.00    +0.182 HD
ATOM     12  O   LIG    1       27.931  33.841  56.592  0.00  0.00    -0.273 OA
BRANCH  10  13
ATOM     13  O   LIG    1       26.600  36.117  56.185  0.00  0.00    -0.295 OA
ATOM     14  H   LIG    1       27.381  36.095  56.756  0.00  0.00    +0.241 HD
ENDBRANCH  10  13
ENDBRANCH   8   9
ENDBRANCH   1   8
BRANCH   4  15
ATOM     15  C   LIG    1       22.198  29.810  56.507  0.00  0.00    +0.038 C 
BRANCH  15  16
ATOM     16  C   LIG    1       21.155  29.863  55.389  0.00  0.00    -0.013 C 
ATOM     17  C   LIG    1       20.041  30.838  55.776  0.00  0.00    +0.007 C 
ATOM     18  C   LIG    1       20.560  28.468  55.180  0.00  0.00    +0.007 C 
ENDBRANCH  15  16
ENDBRANCH   4  15
TORSDOF 5
ENDMDL
MODEL 4
REMARK VINA RESULT:      -5.3      3.152      3.783
REMARK  Name = ZINC00000381
REMARK                            x       y       z     vdW  Elec       q    Type
REMARK                         _______ _______ _______ _____ _____    ______ ____
ROOT
ATOM      1  C   LIG    1       23.291  30.768  57.372  0.00  0.00    -0.036 A 
ATOM      2  C   LIG    1       24.257  29.934  56.840  0.00  0.00    +0.004 A 
ATOM      3  C   LIG    1       25.211  30.444  55.980  0.00  0.00    +0.004 A 
ATOM      4  C   LIG    1       25.200  31.787  55.653  0.00  0.00    -0.047 A 
ATOM      5  C   LIG    1       24.234  32.620  56.185  0.00  0.00    +0.004 A 
ATOM      6  C   LIG    1       23.277  32.110  57.041  0.00  0.00    +0.004 A 
ENDROOT
BRANCH   1   8
ATOM      7  C   LIG    1       21.169  31.267  58.555  0.00  0.00    +0.022 C 
ATOM      8  C   LIG    1       22.249  30.212  58.309  0.00  0.00    +0.104 C 
BRANCH   8   9
ATOM      9  C   LIG    1       22.898  29.843  59.619  0.00  0.00    +0.243 C 
ATOM     10  N   LIG    1       23.367  30.808  60.434  0.00  0.00    -0.197 N 
ATOM     11  H   LIG    1       23.288  31.741  60.178  0.00  0.00    +0.182 HD
ATOM     12  O   LIG    1       22.997  28.678  59.939  0.00  0.00    -0.273 OA
BRANCH  10  13
ATOM     13  O   LIG    1       23.976  30.461  61.665  0.00  0.00    -0.295 OA
ATOM     14  H   LIG    1       23.611  29.664  62.073  0.00  0.00    +0.241 HD
ENDBRANCH  10  13
ENDBRANCH   8   9
ENDBRANCH   1   8
BRANCH   4  15
ATOM     15  C   LIG    1       26.242  32.343  54.717  0.00  0.00    +0.038 C 
BRANCH  15  16
ATOM     16  C   LIG    1       27.256  33.166  55.513  0.00  0.00    -0.013 C 
ATOM     17  C   LIG    1       27.399  34.552  54.878  0.00  0.00    +0.007 C 
ATOM     18  C   LIG    1       28.612  32.458  55.498  0.00  0.00    +0.007 C 
ENDBRANCH  15  16
ENDBRANCH   4  15
TORSDOF 5
ENDMDL
MODEL 5
REMARK VINA RESULT:      -5.1      1.866      2.380
REMARK  Name = ZINC00000381
REMARK                            x       y       z     vdW  Elec       q    Type
REMARK                         _______ _______ _______ _____ _____    ______ ____
ROOT
ATOM      1  C   LIG    1       23.169  30.526  56.629  0.00  0.00    -0.036 A 
ATOM      2  C   LIG    1       24.283  30.983  57.308  0.00  0.00    +0.004 A 
ATOM      3  C   LIG    1       25.325  31.565  56.611  0.00  0.00    +0.004 A 
ATOM      4  C   LIG    1       25.253  31.689  55.237  0.00  0.00    -0.047 A 
ATOM      5  C   LIG    1       24.140  31.231  54.559  0.00  0.00    +0.004 A 
ATOM      6  C   LIG    1       23.099  30.645  55.255  0.00  0.00    +0.004 A 
ENDROOT
BRANCH   1   8
ATOM      7  C   LIG    1       22.287  30.023  58.892  0.00  0.00    +0.022 C 
ATOM      8  C   LIG    1       22.032  29.891  57.389  0.00  0.00    +0.104 C 
BRANCH   8   9
ATOM      9  C   LIG    1       21.935  28.433  57.022  0.00  0.00    +0.243 C 
ATOM     10  N   LIG    1       20.760  27.918  56.609  0.00  0.00    -0.197 N 
ATOM     11  H   LIG    1       19.976  28.487  56.548  0.00  0.00    +0.182 HD
ATOM     12  O   LIG    1       22.914  27.722  57.099  0.00  0.00    -0.273 OA
BRANCH  10  13
ATOM     13  O   LIG    1       20.668  26.548  56.263  0.00  0.00    -0.295 OA
ATOM     14  H   LIG    1       20.139  26.377  55.472  0.00  0.00    +0.241 HD
ENDBRANCH  10  13
ENDBRANCH   8   9
ENDBRANCH   1   8
BRANCH   4  15
ATOM     15  C   LIG    1       26.390  32.324  54.477  0.00  0.00    +0.038 C 
BRANCH  15  16
ATOM     16  C   LIG    1       27.268  33.119  55.445  0.00  0.00    -0.013 C 
ATOM     17  C   LIG    1       27.325  34.582  54.998  0.00  0.00    +0.007 C 
ATOM     18  C   LIG    1       28.682  32.533  55.449  0.00  0.00    +0.007 C 
ENDBRANCH  15  16
ENDBRANCH   4  15
TORSDOF 5
ENDMDL
