MODEL 1
REMARK VINA RESULT:      -5.7      0.000      0.000
REMARK  Name = ZINC00000323
REMARK                            x       y       z     vdW  Elec       q    Type
REMARK                         _______ _______ _______ _____ _____    ______ ____
ROOT
ATOM      1  C   LIG    1       22.505  29.934  56.405  0.00  0.00    -0.031 A 
ATOM      2  C   LIG    1       23.289  30.343  57.469  0.00  0.00    +0.005 A 
ATOM      3  C   LIG    1       24.448  31.057  57.242  0.00  0.00    +0.011 A 
ATOM      4  C   LIG    1       24.829  31.367  55.938  0.00  0.00    +0.017 A 
ATOM      5  C   LIG    1       24.035  30.952  54.868  0.00  0.00    +0.131 A 
ATOM      6  F   LIG    1       24.396  31.249  53.601  0.00  0.00    -0.205 F 
ATOM      7  C   LIG    1       22.879  30.232  55.108  0.00  0.00    +0.043 A 
ENDROOT
BRANCH   4   8
ATOM      8  C   LIG    1       26.073  32.136  55.688  0.00  0.00    -0.015 A 
ATOM      9  C   LIG    1       26.070  33.526  55.792  0.00  0.00    +0.008 A 
ATOM     10  C   LIG    1       27.230  34.235  55.558  0.00  0.00    +0.001 A 
ATOM     11  C   LIG    1       28.396  33.569  55.222  0.00  0.00    +0.000 A 
ATOM     12  C   LIG    1       28.404  32.190  55.117  0.00  0.00    +0.001 A 
ATOM     13  C   LIG    1       27.251  31.470  55.354  0.00  0.00    +0.008 A 
ENDBRANCH   4   8
BRANCH   1  15
ATOM     14  C   LIG    1       21.517  27.660  56.476  0.00  0.00    +0.024 C 
ATOM     15  C   LIG    1       21.241  29.154  56.661  0.00  0.00    +0.124 C 
BRANCH  15  16
ATOM     16  C   LIG    1       20.175  29.592  55.690  0.00  0.00    +0.312 C 
ATOM     17  O   LIG    1       19.700  30.712  55.770  0.00  0.00    -0.250 OA
BRANCH  16  18
ATOM     18  O   LIG    1       19.787  28.825  54.824  0.00  0.00    -0.480 OA
ATOM     19  H   LIG    1       18.941  28.430  54.895  0.00  0.00    +0.295 HD
ENDBRANCH  16  18
ENDBRANCH  15  16
ENDBRANCH   1  15
TORSDOF 4
ENDMDL
MODEL 2
REMARK VINA RESULT:      -5.7      0.831      1.142
REMARK  Name = ZINC00000323
REMARK                            x       y       z     vdW  Elec       q    Type
REMARK                         _______ _______ _______ _____ _____    ______ ____
ROOT
ATOM      1  C   LIG    1       22.495  30.185  56.422  0.00  0.00    -0.031 A 
ATOM      2  C   LIG    1       23.327  30.501  57.482  0.00  0.00    +0.005 A 
ATOM      3  C   LIG    1       24.536  31.125  57.252  0.00  0.00    +0.011 A 
ATOM      4  C   LIG    1       24.919  31.438  55.949  0.00  0.00    +0.017 A 
ATOM      5  C   LIG    1       24.077  31.117  54.884  0.00  0.00    +0.131 A 
ATOM      6  F   LIG    1       24.441  31.418  53.618  0.00  0.00    -0.205 F 
ATOM      7  C   LIG    1       22.871  30.487  55.127  0.00  0.00    +0.043 A 
ENDROOT
BRANCH   4   8
ATOM      8  C   LIG    1       26.218  32.110  55.696  0.00  0.00    -0.015 A 
ATOM      9  C   LIG    1       26.295  33.502  55.681  0.00  0.00    +0.008 A 
ATOM     10  C   LIG    1       27.505  34.121  55.444  0.00  0.00    +0.001 A 
ATOM     11  C   LIG    1       28.641  33.363  55.223  0.00  0.00    +0.000 A 
ATOM     12  C   LIG    1       28.571  31.981  55.238  0.00  0.00    +0.001 A 
ATOM     13  C   LIG    1       27.367  31.352  55.479  0.00  0.00    +0.008 A 
ENDBRANCH   4   8
BRANCH   1  15
ATOM     14  C   LIG    1       21.090  29.106  58.157  0.00  0.00    +0.024 C 
ATOM     15  C   LIG    1       21.176  29.503  56.682  0.00  0.00    +0.124 C 
BRANCH  15  16
ATOM     16  C   LIG    1       21.071  28.270  55.823  0.00  0.00    +0.312 C 
ATOM     17  O   LIG    1       20.182  28.180  54.992  0.00  0.00    -0.250 OA
BRANCH  16  18
ATOM     18  O   LIG    1       21.873  27.362  55.958  0.00  0.00    -0.480 OA
ATOM     19  H   LIG    1       21.697  26.523  55.582  0.00  0.00    +0.295 HD
ENDBRANCH  16  18
ENDBRANCH  15  16
ENDBRANCH   1  15
TORSDOF 4
ENDMDL
MODEL 3
REMARK VINA RESULT:      -5.6      1.510      2.079
REMARK  Name = ZINC00000323
REMARK                            x       y       z     vdW  Elec       q    Type
REMARK                         _______ _______ _______ _____ _____    ______ ____
ROOT
ATOM      1  C   LIG    1       22.353  30.159  55.512  0.00  0.00    -0.031 A 
ATOM      2  C   LIG    1       22.906  30.599  54.322  0.00  0.00    +0.005 A 
ATOM      3  C   LIG    1       24.145  31.205  54.316  0.00  0.00    +0.011 A 
ATOM      4  C   LIG    1       24.841  31.376  55.511  0.00  0.00    +0.017 A 
ATOM      5  C   LIG    1       24.280  30.931  56.708  0.00  0.00    +0.131 A 
ATOM      6  F   LIG    1       24.948  31.092  57.872  0.00  0.00    -0.205 F 
ATOM      7  C   LIG    1       23.035  30.329  56.702  0.00  0.00    +0.043 A 
ENDROOT
BRANCH   4   8
ATOM      8  C   LIG    1       26.175  32.027  55.510  0.00  0.00    -0.015 A 
ATOM      9  C   LIG    1       26.287  33.393  55.761  0.00  0.00    +0.008 A 
ATOM     10  C   LIG    1       27.529  33.993  55.759  0.00  0.00    +0.001 A 
ATOM     11  C   LIG    1       28.663  33.241  55.508  0.00  0.00    +0.000 A 
ATOM     12  C   LIG    1       28.558  31.884  55.260  0.00  0.00    +0.001 A 
ATOM     13  C   LIG    1       27.321  31.273  55.265  0.00  0.00    +0.008 A 
ENDBRANCH   4   8
BRANCH   1  15
ATOM     14  C   LIG    1       20.054  30.267  56.435  0.00  0.00    +0.024 C 
ATOM     15  C   LIG    1       20.999  29.497  55.510  0.00  0.00    +0.124 C 
BRANCH  15  16
ATOM     16  C   LIG    1       21.133  28.078  55.998  0.00  0.00    +0.312 C 
ATOM     17  O   LIG    1       20.300  27.613  56.759  0.00  0.00    -0.250 OA
BRANCH  16  18
ATOM     18  O   LIG    1       22.075  27.394  55.634  0.00  0.00    -0.480 OA
ATOM     19  H   LIG    1       22.919  27.519  56.018  0.00  0.00    +0.295 HD
ENDBRANCH  16  18
ENDBRANCH  15  16
ENDBRANCH   1  15
TORSDOF 4
ENDMDL
MODEL 4
REMARK VINA RESULT:      -5.4      2.947      6.303
REMARK  Name = ZINC00000323
REMARK                            x       y       z     vdW  Elec       q    Type
REMARK                         _______ _______ _______ _____ _____    ______ ____
ROOT
ATOM      1  C   LIG    1       25.738  31.912  55.148  0.00  0.00    -0.031 A 
ATOM      2  C   LIG    1       25.565  31.559  56.475  0.00  0.00    +0.005 A 
ATOM      3  C   LIG    1       24.500  30.765  56.848  0.00  0.00    +0.011 A 
ATOM      4  C   LIG    1       23.596  30.318  55.885  0.00  0.00    +0.017 A 
ATOM      5  C   LIG    1       23.775  30.677  54.549  0.00  0.00    +0.131 A 
ATOM      6  F   LIG    1       22.904  30.247  53.609  0.00  0.00    -0.205 F 
ATOM      7  C   LIG    1       24.844  31.477  54.189  0.00  0.00    +0.043 A 
ENDROOT
BRANCH   4   8
ATOM      8  C   LIG    1       22.449  29.463  56.280  0.00  0.00    -0.015 A 
ATOM      9  C   LIG    1       21.188  30.027  56.465  0.00  0.00    +0.008 A 
ATOM     10  C   LIG    1       20.126  29.227  56.833  0.00  0.00    +0.001 A 
ATOM     11  C   LIG    1       20.310  27.868  57.017  0.00  0.00    +0.000 A 
ATOM     12  C   LIG    1       21.560  27.304  56.834  0.00  0.00    +0.001 A 
ATOM     13  C   LIG    1       22.628  28.093  56.461  0.00  0.00    +0.008 A 
ENDBRANCH   4   8
BRANCH   1  15
ATOM     14  C   LIG    1       28.202  31.977  54.872  0.00  0.00    +0.024 C 
ATOM     15  C   LIG    1       26.905  32.779  54.750  0.00  0.00    +0.124 C 
BRANCH  15  16
ATOM     16  C   LIG    1       26.970  33.981  55.657  0.00  0.00    +0.312 C 
ATOM     17  O   LIG    1       27.749  33.994  56.595  0.00  0.00    -0.250 OA
BRANCH  16  18
ATOM     18  O   LIG    1       26.244  34.939  55.453  0.00  0.00    -0.480 OA
ATOM     19  H   LIG    1       25.327  34.877  55.632  0.00  0.00    +0.295 HD
ENDBRANCH  16  18
ENDBRANCH  15  16
ENDBRANCH   1  15
TORSDOF 4
ENDMDL
MODEL 5
REMARK VINA RESULT:      -5.1      3.193      6.497
REMARK  Name = ZINC00000323
REMARK                            x       y       z     vdW  Elec       q    Type
REMARK                         _______ _______ _______ _____ _____    ______ ____
ROOT
ATOM      1  C   LIG    1       25.625  32.001  56.101  0.00  0.00    -0.031 A 
ATOM      2  C   LIG    1       24.412  32.651  56.245  0.00  0.00    +0.005 A 
ATOM      3  C   LIG    1       23.238  31.927  56.288  0.00  0.00    +0.011 A 
ATOM      4  C   LIG    1       23.275  30.537  56.187  0.00  0.00    +0.017 A 
ATOM      5  C   LIG    1       24.500  29.886  56.042  0.00  0.00    +0.131 A 
ATOM      6  F   LIG    1       24.544  28.539  55.945  0.00  0.00    -0.205 F 
ATOM      7  C   LIG    1       25.669  30.623  55.995  0.00  0.00    +0.043 A 
ENDROOT
BRANCH   4   8
ATOM      8  C   LIG    1       22.015  29.754  56.234  0.00  0.00    -0.015 A 
ATOM      9  C   LIG    1       21.440  29.426  57.460  0.00  0.00    +0.008 A 
ATOM     10  C   LIG    1       20.269  28.697  57.498  0.00  0.00    +0.001 A 
ATOM     11  C   LIG    1       19.666  28.292  56.320  0.00  0.00    +0.000 A 
ATOM     12  C   LIG    1       20.232  28.615  55.100  0.00  0.00    +0.001 A 
ATOM     13  C   LIG    1       21.400  29.348  55.051  0.00  0.00    +0.008 A 
ENDBRANCH   4   8
BRANCH   1  15
ATOM     14  C   LIG    1       26.570  34.289  55.951  0.00  0.00    +0.024 C 
ATOM     15  C   LIG    1       26.902  32.799  56.055  0.00  0.00    +0.124 C 
BRANCH  15  16
ATOM     16  C   LIG    1       27.712  32.381  54.855  0.00  0.00    +0.312 C 
ATOM     17  O   LIG    1       28.768  31.789  55.008  0.00  0.00    -0.250 OA
BRANCH  16  18
ATOM     18  O   LIG    1       27.313  32.634  53.731  0.00  0.00    -0.480 OA
ATOM     19  H   LIG    1       27.475  33.477  53.356  0.00  0.00    +0.295 HD
ENDBRANCH  16  18
ENDBRANCH  15  16
ENDBRANCH   1  15
TORSDOF 4
ENDMDL
