REMARK VINA RESULT:      -5.7      2.198      2.512
REMARK  Name = ZINC00000751
REMARK                            x       y       z     vdW  Elec       q    Type
REMARK                         _______ _______ _______ _____ _____    ______ ____
ROOT
ATOM      1  C   LIG    1       24.915  32.007  55.693  0.00  0.00    +0.039 C 
ATOM      2  C   LIG    1       24.871  31.108  56.933  0.00  0.00    -0.067 C 
ATOM      3  N   LIG    1       23.463  30.944  57.359  0.00  0.00    +0.385 N 
ATOM      4  H   LIG    1       23.036  31.873  57.462  0.00  0.00    -0.081 HD
ATOM      5  C   LIG    1       22.707  30.179  56.346  0.00  0.00    -0.030 C 
ATOM      6  C   LIG    1       22.604  31.012  55.062  0.00  0.00    +0.064 C 
ATOM      7  C   LIG    1       21.320  29.870  56.846  0.00  0.00    -0.054 A 
ATOM      8  C   LIG    1       20.362  29.475  55.924  0.00  0.00    +0.051 A 
ATOM      9  C   LIG    1       19.074  29.180  56.333  0.00  0.00    +0.162 A 
ATOM     10  C   LIG    1       18.739  29.278  57.680  0.00  0.00    +0.162 A 
ATOM     11  C   LIG    1       19.697  29.673  58.597  0.00  0.00    +0.053 A 
ATOM     12  C   LIG    1       20.986  29.969  58.180  0.00  0.00    -0.044 A 
ATOM     13  C   LIG    1       21.995  30.398  59.215  0.00  0.00    +0.017 C 
ATOM     14  C   LIG    1       23.409  30.245  58.655  0.00  0.00    -0.073 C 
ATOM     15  C   LIG    1       24.004  31.407  54.641  0.00  0.00    +0.133 C 
ATOM     16  O   LIG    1       24.382  31.250  53.505  0.00  0.00    -0.297 OA
ENDROOT
BRANCH   9  17
ATOM     17  O   LIG    1       18.140  28.793  55.423  0.00  0.00    -0.491 OA
ATOM     18  C   LIG    1       18.261  27.474  54.890  0.00  0.00    +0.277 C 
ENDBRANCH   9  17
BRANCH  10  19
ATOM     19  O   LIG    1       17.476  28.990  58.093  0.00  0.00    -0.491 OA
ATOM     20  C   LIG    1       16.614  30.097  58.365  0.00  0.00    +0.277 C 
ENDBRANCH  10  19
BRANCH   1  21
ATOM     21  C   LIG    1       26.345  32.079  55.156  0.00  0.00    +0.012 C 
BRANCH  21  23
ATOM     22  C   LIG    1       28.663  32.803  55.743  0.00  0.00    +0.007 C 
ATOM     23  C   LIG    1       27.178  33.006  56.044  0.00  0.00    -0.017 C 
ATOM     24  C   LIG    1       26.796  34.461  55.763  0.00  0.00    +0.007 C 
ENDBRANCH  21  23
ENDBRANCH   1  21
TORSDOF 4
