REMARK VINA RESULT:      -5.9      1.507      2.148
REMARK  Name = ZINC00000751
REMARK                            x       y       z     vdW  Elec       q    Type
REMARK                         _______ _______ _______ _____ _____    ______ ____
ROOT
ATOM      1  C   LIG    1       24.728  31.840  55.546  0.00  0.00    +0.039 C 
ATOM      2  C   LIG    1       23.609  32.456  56.394  0.00  0.00    -0.067 C 
ATOM      3  N   LIG    1       22.318  31.850  56.000  0.00  0.00    +0.385 N 
ATOM      4  H   LIG    1       22.208  31.934  54.982  0.00  0.00    -0.081 HD
ATOM      5  C   LIG    1       22.289  30.419  56.369  0.00  0.00    -0.030 C 
ATOM      6  C   LIG    1       23.320  29.662  55.522  0.00  0.00    +0.064 C 
ATOM      7  C   LIG    1       20.922  29.839  56.117  0.00  0.00    -0.054 A 
ATOM      8  C   LIG    1       20.794  28.457  56.069  0.00  0.00    +0.051 A 
ATOM      9  C   LIG    1       19.560  27.876  55.842  0.00  0.00    +0.162 A 
ATOM     10  C   LIG    1       18.439  28.681  55.663  0.00  0.00    +0.162 A 
ATOM     11  C   LIG    1       18.571  30.057  55.711  0.00  0.00    +0.053 A 
ATOM     12  C   LIG    1       19.812  30.635  55.938  0.00  0.00    -0.044 A 
ATOM     13  C   LIG    1       19.906  32.139  55.979  0.00  0.00    +0.017 C 
ATOM     14  C   LIG    1       21.208  32.558  56.663  0.00  0.00    -0.073 C 
ATOM     15  C   LIG    1       24.665  30.335  55.701  0.00  0.00    +0.133 C 
ATOM     16  O   LIG    1       25.654  29.692  55.958  0.00  0.00    -0.297 OA
ENDROOT
BRANCH   9  17
ATOM     17  O   LIG    1       19.442  26.521  55.796  0.00  0.00    -0.491 OA
ATOM     18  C   LIG    1       19.512  25.821  57.038  0.00  0.00    +0.277 C 
ENDBRANCH   9  17
BRANCH  10  19
ATOM     19  O   LIG    1       17.222  28.119  55.439  0.00  0.00    -0.491 OA
ATOM     20  C   LIG    1       16.079  28.961  55.602  0.00  0.00    +0.277 C 
ENDBRANCH  10  19
BRANCH   1  21
ATOM     21  C   LIG    1       26.085  32.352  56.031  0.00  0.00    +0.012 C 
BRANCH  21  23
ATOM     22  C   LIG    1       27.246  34.247  54.888  0.00  0.00    +0.007 C 
ATOM     23  C   LIG    1       26.941  32.749  54.826  0.00  0.00    -0.017 C 
ATOM     24  C   LIG    1       28.252  31.961  54.849  0.00  0.00    +0.007 C 
ENDBRANCH  21  23
ENDBRANCH   1  21
TORSDOF 4
