REMARK VINA RESULT:      -5.5      1.725      3.289
REMARK  Name = ZINC00000751
REMARK                            x       y       z     vdW  Elec       q    Type
REMARK                         _______ _______ _______ _____ _____    ______ ____
ROOT
ATOM      1  C   LIG    1       24.983  32.309  56.234  0.00  0.00    +0.039 C 
ATOM      2  C   LIG    1       24.730  31.499  54.957  0.00  0.00    -0.067 C 
ATOM      3  N   LIG    1       23.579  30.595  55.182  0.00  0.00    +0.385 N 
ATOM      4  H   LIG    1       23.746  30.049  56.036  0.00  0.00    -0.081 HD
ATOM      5  C   LIG    1       22.337  31.379  55.351  0.00  0.00    -0.030 C 
ATOM      6  C   LIG    1       22.426  32.185  56.653  0.00  0.00    +0.064 C 
ATOM      7  C   LIG    1       21.143  30.464  55.418  0.00  0.00    -0.054 A 
ATOM      8  C   LIG    1       19.952  30.974  55.916  0.00  0.00    +0.051 A 
ATOM      9  C   LIG    1       18.827  30.174  55.998  0.00  0.00    +0.162 A 
ATOM     10  C   LIG    1       18.889  28.849  55.575  0.00  0.00    +0.162 A 
ATOM     11  C   LIG    1       20.078  28.345  55.079  0.00  0.00    +0.053 A 
ATOM     12  C   LIG    1       21.203  29.151  55.001  0.00  0.00    -0.044 A 
ATOM     13  C   LIG    1       22.477  28.556  54.456  0.00  0.00    +0.017 C 
ATOM     14  C   LIG    1       23.435  29.672  54.042  0.00  0.00    -0.073 C 
ATOM     15  C   LIG    1       23.695  33.011  56.612  0.00  0.00    +0.133 C 
ATOM     16  O   LIG    1       23.680  34.190  56.872  0.00  0.00    -0.297 OA
ENDROOT
BRANCH   9  17
ATOM     17  O   LIG    1       17.663  30.680  56.488  0.00  0.00    -0.491 OA
ATOM     18  C   LIG    1       17.569  32.101  56.598  0.00  0.00    +0.277 C 
ENDBRANCH   9  17
BRANCH  10  19
ATOM     19  O   LIG    1       17.788  28.055  55.650  0.00  0.00    -0.491 OA
ATOM     20  C   LIG    1       17.956  26.769  56.250  0.00  0.00    +0.277 C 
ENDBRANCH  10  19
BRANCH   1  21
ATOM     21  C   LIG    1       26.079  33.345  55.979  0.00  0.00    +0.012 C 
BRANCH  21  23
ATOM     22  C   LIG    1       27.560  33.994  54.075  0.00  0.00    +0.007 C 
ATOM     23  C   LIG    1       27.036  32.822  54.906  0.00  0.00    -0.017 C 
ATOM     24  C   LIG    1       28.212  32.107  55.575  0.00  0.00    +0.007 C 
ENDBRANCH  21  23
ENDBRANCH   1  21
TORSDOF 4
