REMARK VINA RESULT:      -5.4      2.280      7.296
REMARK  Name = ZINC00000751
REMARK                            x       y       z     vdW  Elec       q    Type
REMARK                         _______ _______ _______ _____ _____    ______ ____
ROOT
ATOM      1  C   LIG    1       18.436  33.607  55.772  0.00  0.00    +0.039 C 
ATOM      2  C   LIG    1       18.176  32.173  56.247  0.00  0.00    -0.067 C 
ATOM      3  N   LIG    1       19.337  31.329  55.886  0.00  0.00    +0.385 N 
ATOM      4  H   LIG    1       19.531  31.441  54.884  0.00  0.00    -0.081 HD
ATOM      5  C   LIG    1       20.530  31.742  56.655  0.00  0.00    -0.030 C 
ATOM      6  C   LIG    1       20.951  33.148  56.210  0.00  0.00    +0.064 C 
ATOM      7  C   LIG    1       21.669  30.787  56.411  0.00  0.00    -0.054 A 
ATOM      8  C   LIG    1       22.951  31.191  56.758  0.00  0.00    +0.051 A 
ATOM      9  C   LIG    1       24.030  30.350  56.555  0.00  0.00    +0.162 A 
ATOM     10  C   LIG    1       23.828  29.089  56.002  0.00  0.00    +0.162 A 
ATOM     11  C   LIG    1       22.549  28.689  55.658  0.00  0.00    +0.053 A 
ATOM     12  C   LIG    1       21.471  29.538  55.863  0.00  0.00    -0.044 A 
ATOM     13  C   LIG    1       20.096  29.060  55.469  0.00  0.00    +0.017 C 
ATOM     14  C   LIG    1       19.033  29.913  56.161  0.00  0.00    -0.073 C 
ATOM     15  C   LIG    1       19.756  34.067  56.355  0.00  0.00    +0.133 C 
ATOM     16  O   LIG    1       19.852  35.132  56.916  0.00  0.00    -0.297 OA
ENDROOT
BRANCH   9  17
ATOM     17  O   LIG    1       25.284  30.753  56.896  0.00  0.00    -0.491 OA
ATOM     18  C   LIG    1       25.891  31.750  56.073  0.00  0.00    +0.277 C 
ENDBRANCH   9  17
BRANCH  10  19
ATOM     19  O   LIG    1       24.882  28.254  55.799  0.00  0.00    -0.491 OA
ATOM     20  C   LIG    1       24.656  27.114  54.968  0.00  0.00    +0.277 C 
ENDBRANCH  10  19
BRANCH   1  21
ATOM     21  C   LIG    1       17.311  34.523  56.254  0.00  0.00    +0.012 C 
BRANCH  21  23
ATOM     22  C   LIG    1       16.866  34.679  58.708  0.00  0.00    +0.007 C 
ATOM     23  C   LIG    1       16.593  33.872  57.438  0.00  0.00    -0.017 C 
ATOM     24  C   LIG    1       15.087  33.841  57.167  0.00  0.00    +0.007 C 
ENDBRANCH  21  23
ENDBRANCH   1  21
TORSDOF 4
