REMARK VINA RESULT:      -6.1      0.000      0.000
REMARK  Name = ZINC00000751
REMARK                            x       y       z     vdW  Elec       q    Type
REMARK                         _______ _______ _______ _____ _____    ______ ____
ROOT
ATOM      1  C   LIG    1       24.925  31.637  55.452  0.00  0.00    +0.039 C 
ATOM      2  C   LIG    1       24.264  32.739  56.288  0.00  0.00    -0.067 C 
ATOM      3  N   LIG    1       22.809  32.740  56.017  0.00  0.00    +0.385 N 
ATOM      4  H   LIG    1       22.660  32.796  55.002  0.00  0.00    -0.081 HD
ATOM      5  C   LIG    1       22.191  31.498  56.524  0.00  0.00    -0.030 C 
ATOM      6  C   LIG    1       22.712  30.308  55.707  0.00  0.00    +0.064 C 
ATOM      7  C   LIG    1       20.692  31.565  56.396  0.00  0.00    -0.054 A 
ATOM      8  C   LIG    1       19.971  30.383  56.489  0.00  0.00    +0.051 A 
ATOM      9  C   LIG    1       18.592  30.392  56.379  0.00  0.00    +0.162 A 
ATOM     10  C   LIG    1       17.924  31.595  56.175  0.00  0.00    +0.162 A 
ATOM     11  C   LIG    1       18.646  32.772  56.082  0.00  0.00    +0.053 A 
ATOM     12  C   LIG    1       20.029  32.756  56.193  0.00  0.00    -0.044 A 
ATOM     13  C   LIG    1       20.773  34.063  56.082  0.00  0.00    +0.017 C 
ATOM     14  C   LIG    1       22.180  33.908  56.659  0.00  0.00    -0.073 C 
ATOM     15  C   LIG    1       24.225  30.328  55.756  0.00  0.00    +0.133 C 
ATOM     16  O   LIG    1       24.854  29.333  56.028  0.00  0.00    -0.297 OA
ENDROOT
BRANCH   9  17
ATOM     17  O   LIG    1       17.892  29.229  56.470  0.00  0.00    -0.491 OA
ATOM     18  C   LIG    1       18.082  28.274  55.425  0.00  0.00    +0.277 C 
ENDBRANCH   9  17
BRANCH  10  19
ATOM     19  O   LIG    1       16.569  31.615  56.065  0.00  0.00    -0.491 OA
ATOM     20  C   LIG    1       15.873  32.619  56.807  0.00  0.00    +0.277 C 
ENDBRANCH  10  19
BRANCH   1  21
ATOM     21  C   LIG    1       26.406  31.528  55.819  0.00  0.00    +0.012 C 
BRANCH  21  23
ATOM     22  C   LIG    1       28.616  32.688  55.727  0.00  0.00    +0.007 C 
ATOM     23  C   LIG    1       27.161  32.734  55.258  0.00  0.00    -0.017 C 
ATOM     24  C   LIG    1       27.117  32.698  53.730  0.00  0.00    +0.007 C 
ENDBRANCH  21  23
ENDBRANCH   1  21
TORSDOF 4
