MODEL 1
REMARK VINA RESULT:      -3.8      0.000      0.000
REMARK  Name = ZINC00000920
REMARK                            x       y       z     vdW  Elec       q    Type
REMARK                         _______ _______ _______ _____ _____    ______ ____
ROOT
ATOM      1  C   LIG    1       24.823  30.318  56.216  0.00  0.00    +0.017 A 
ATOM      2  C   LIG    1       23.993  29.233  56.231  0.00  0.00    +0.023 A 
ATOM      3  C   LIG    1       23.132  28.999  55.161  0.00  0.00    +0.025 A 
ATOM      4  C   LIG    1       23.116  29.868  54.072  0.00  0.00    +0.023 A 
ATOM      5  C   LIG    1       23.944  30.953  54.050  0.00  0.00    +0.017 A 
ATOM      6  C   LIG    1       24.810  31.193  55.124  0.00  0.00    +0.059 A 
ENDROOT
BRANCH   3   7
ATOM      7  N   LIG    1       22.289  27.896  55.178  0.00  0.00    -0.358 N 
ATOM      8  H   LIG    1       21.326  28.020  55.200  0.00  0.00    +0.142 HD
ATOM      9  H   LIG    1       22.661  27.000  55.171  0.00  0.00    +0.142 HD
ENDBRANCH   3   7
BRANCH   6  10
ATOM     10  C   LIG    1       25.703  32.362  55.105  0.00  0.00    +0.337 C 
ATOM     11  O   LIG    1       26.624  32.414  54.303  0.00  0.00    -0.245 OA
BRANCH  10  12
ATOM     12  O   LIG    1       25.523  33.282  55.891  0.00  0.00    -0.477 OA
ATOM     13  H   LIG    1       26.219  33.884  56.074  0.00  0.00    +0.295 HD
ENDBRANCH  10  12
ENDBRANCH   6  10
TORSDOF 3
ENDMDL
MODEL 2
REMARK VINA RESULT:      -3.8      3.411      4.636
REMARK  Name = ZINC00000920
REMARK                            x       y       z     vdW  Elec       q    Type
REMARK                         _______ _______ _______ _____ _____    ______ ____
ROOT
ATOM      1  C   LIG    1       25.924  32.064  54.015  0.00  0.00    +0.017 A 
ATOM      2  C   LIG    1       27.152  32.611  54.257  0.00  0.00    +0.023 A 
ATOM      3  C   LIG    1       27.593  32.783  55.567  0.00  0.00    +0.025 A 
ATOM      4  C   LIG    1       26.785  32.397  56.634  0.00  0.00    +0.023 A 
ATOM      5  C   LIG    1       25.557  31.848  56.399  0.00  0.00    +0.017 A 
ATOM      6  C   LIG    1       25.110  31.674  55.084  0.00  0.00    +0.059 A 
ENDROOT
BRANCH   3   7
ATOM      7  N   LIG    1       28.841  33.341  55.810  0.00  0.00    -0.358 N 
ATOM      8  H   LIG    1       29.644  32.887  55.506  0.00  0.00    +0.142 HD
ATOM      9  H   LIG    1       28.912  34.183  56.286  0.00  0.00    +0.142 HD
ENDBRANCH   3   7
BRANCH   6  10
ATOM     10  C   LIG    1       23.787  31.084  54.826  0.00  0.00    +0.337 C 
ATOM     11  O   LIG    1       22.785  31.784  54.876  0.00  0.00    -0.245 OA
BRANCH  10  12
ATOM     12  O   LIG    1       23.689  29.894  54.561  0.00  0.00    -0.477 OA
ATOM     13  H   LIG    1       24.445  29.410  54.293  0.00  0.00    +0.295 HD
ENDBRANCH  10  12
ENDBRANCH   6  10
TORSDOF 3
ENDMDL
MODEL 3
REMARK VINA RESULT:      -3.6      3.444      4.077
REMARK  Name = ZINC00000920
REMARK                            x       y       z     vdW  Elec       q    Type
REMARK                         _______ _______ _______ _____ _____    ______ ____
ROOT
ATOM      1  C   LIG    1       23.692  30.006  56.474  0.00  0.00    +0.017 A 
ATOM      2  C   LIG    1       24.742  30.769  56.900  0.00  0.00    +0.023 A 
ATOM      3  C   LIG    1       25.398  31.614  56.006  0.00  0.00    +0.025 A 
ATOM      4  C   LIG    1       24.985  31.683  54.677  0.00  0.00    +0.023 A 
ATOM      5  C   LIG    1       23.936  30.924  54.246  0.00  0.00    +0.017 A 
ATOM      6  C   LIG    1       23.275  30.073  55.140  0.00  0.00    +0.059 A 
ENDROOT
BRANCH   3   7
ATOM      7  N   LIG    1       26.465  32.388  56.441  0.00  0.00    -0.358 N 
ATOM      8  H   LIG    1       26.473  32.741  57.345  0.00  0.00    +0.142 HD
ATOM      9  H   LIG    1       27.203  32.579  55.841  0.00  0.00    +0.142 HD
ENDBRANCH   3   7
BRANCH   6  10
ATOM     10  C   LIG    1       22.144  29.252  54.679  0.00  0.00    +0.337 C 
ATOM     11  O   LIG    1       21.807  28.264  55.316  0.00  0.00    -0.245 OA
BRANCH  10  12
ATOM     12  O   LIG    1       21.542  29.558  53.659  0.00  0.00    -0.477 OA
ATOM     13  H   LIG    1       20.608  29.642  53.675  0.00  0.00    +0.295 HD
ENDBRANCH  10  12
ENDBRANCH   6  10
TORSDOF 3
ENDMDL
MODEL 4
REMARK VINA RESULT:      -3.6      1.607      1.700
REMARK  Name = ZINC00000920
REMARK                            x       y       z     vdW  Elec       q    Type
REMARK                         _______ _______ _______ _____ _____    ______ ____
ROOT
ATOM      1  C   LIG    1       23.514  32.125  56.110  0.00  0.00    +0.017 A 
ATOM      2  C   LIG    1       22.294  31.562  55.862  0.00  0.00    +0.023 A 
ATOM      3  C   LIG    1       22.124  30.723  54.763  0.00  0.00    +0.025 A 
ATOM      4  C   LIG    1       23.195  30.454  53.914  0.00  0.00    +0.023 A 
ATOM      5  C   LIG    1       24.418  31.013  54.157  0.00  0.00    +0.017 A 
ATOM      6  C   LIG    1       24.593  31.857  55.260  0.00  0.00    +0.059 A 
ENDROOT
BRANCH   3   7
ATOM      7  N   LIG    1       20.883  30.152  54.513  0.00  0.00    -0.358 N 
ATOM      8  H   LIG    1       20.341  29.826  55.249  0.00  0.00    +0.142 HD
ATOM      9  H   LIG    1       20.558  30.077  53.602  0.00  0.00    +0.142 HD
ENDBRANCH   3   7
BRANCH   6  10
ATOM     10  C   LIG    1       25.908  32.462  55.524  0.00  0.00    +0.337 C 
ATOM     11  O   LIG    1       26.910  31.761  55.545  0.00  0.00    -0.245 OA
BRANCH  10  12
ATOM     12  O   LIG    1       25.999  33.666  55.721  0.00  0.00    -0.477 OA
ATOM     13  H   LIG    1       26.145  34.248  55.000  0.00  0.00    +0.295 HD
ENDBRANCH  10  12
ENDBRANCH   6  10
TORSDOF 3
ENDMDL
MODEL 5
REMARK VINA RESULT:      -3.5      2.273      2.427
REMARK  Name = ZINC00000920
REMARK                            x       y       z     vdW  Elec       q    Type
REMARK                         _______ _______ _______ _____ _____    ______ ____
ROOT
ATOM      1  C   LIG    1       23.523  30.147  56.537  0.00  0.00    +0.017 A 
ATOM      2  C   LIG    1       23.901  28.893  56.148  0.00  0.00    +0.023 A 
ATOM      3  C   LIG    1       23.724  28.490  54.827  0.00  0.00    +0.025 A 
ATOM      4  C   LIG    1       23.161  29.362  53.898  0.00  0.00    +0.023 A 
ATOM      5  C   LIG    1       22.781  30.617  54.280  0.00  0.00    +0.017 A 
ATOM      6  C   LIG    1       22.957  31.026  55.607  0.00  0.00    +0.059 A 
ENDROOT
BRANCH   3   7
ATOM      7  N   LIG    1       24.110  27.215  54.434  0.00  0.00    -0.358 N 
ATOM      8  H   LIG    1       24.666  27.096  53.647  0.00  0.00    +0.142 HD
ATOM      9  H   LIG    1       23.822  26.442  54.944  0.00  0.00    +0.142 HD
ENDBRANCH   3   7
BRANCH   6  10
ATOM     10  C   LIG    1       22.548  32.377  56.024  0.00  0.00    +0.337 C 
ATOM     11  O   LIG    1       22.954  32.840  57.080  0.00  0.00    -0.245 OA
BRANCH  10  12
ATOM     12  O   LIG    1       21.802  33.036  55.313  0.00  0.00    -0.477 OA
ATOM     13  H   LIG    1       20.915  32.763  55.184  0.00  0.00    +0.295 HD
ENDBRANCH  10  12
ENDBRANCH   6  10
TORSDOF 3
ENDMDL
