MODEL 1
REMARK VINA RESULT:      -5.1      0.000      0.000
REMARK  Name = ZINC00000934
REMARK                            x       y       z     vdW  Elec       q    Type
REMARK                         _______ _______ _______ _____ _____    ______ ____
ROOT
ATOM      1  C   LIG    1       25.787  31.975  55.025  0.00  0.00    +0.131 A 
ATOM      2  N   LIG    1       26.035  31.739  56.298  0.00  0.00    -0.240 NA
ATOM      3  C   LIG    1       25.102  31.236  57.093  0.00  0.00    +0.121 A 
ATOM      4  C   LIG    1       23.853  30.956  56.573  0.00  0.00    +0.024 A 
ATOM      5  C   LIG    1       23.624  31.218  55.221  0.00  0.00    +0.124 A 
ATOM      6  N   LIG    1       24.610  31.728  54.488  0.00  0.00    -0.217 NA
ENDROOT
BRANCH   5   7
ATOM      7  N   LIG    1       22.388  30.954  54.653  0.00  0.00    -0.343 N 
ATOM      8  H   LIG    1       21.822  30.260  55.026  0.00  0.00    +0.144 HD
ATOM      9  H   LIG    1       22.090  31.462  53.883  0.00  0.00    +0.144 HD
ENDBRANCH   5   7
BRANCH   1  10
ATOM     10  C   LIG    1       26.881  32.548  54.160  0.00  0.00    +0.076 C 
BRANCH  10  12
ATOM     11  C   LIG    1       27.189  34.856  55.065  0.00  0.00    +0.004 C 
ATOM     12  C   LIG    1       27.782  33.448  55.007  0.00  0.00    +0.004 C 
ENDBRANCH  10  12
ENDBRANCH   1  10
BRANCH   4  13
ATOM     13  C   LIG    1       22.765  30.382  57.444  0.00  0.00    +0.124 C 
BRANCH  13  14
ATOM     14  N   LIG    1       22.437  31.335  58.507  0.00  0.00    -0.295 NA
ATOM     15  C   LIG    1       21.863  32.480  58.190  0.00  0.00    +0.085 C 
ATOM     16  C   LIG    1       21.540  33.402  59.166  0.00  0.00    +0.015 C 
ATOM     17  C   LIG    1       21.826  33.113  60.491  0.00  0.00    +0.003 C 
ATOM     18  C   LIG    1       22.429  31.900  60.786  0.00  0.00    +0.019 C 
ATOM     19  C   LIG    1       22.719  31.024  59.758  0.00  0.00    +0.054 C 
ATOM     20  C   LIG    1       23.370  29.701  60.067  0.00  0.00    +0.024 C 
ENDBRANCH  13  14
ENDBRANCH   4  13
TORSDOF 5
ENDMDL
MODEL 2
REMARK VINA RESULT:      -5.0      2.801      3.576
REMARK  Name = ZINC00000934
REMARK                            x       y       z     vdW  Elec       q    Type
REMARK                         _______ _______ _______ _____ _____    ______ ____
ROOT
ATOM      1  C   LIG    1       25.426  31.356  55.612  0.00  0.00    +0.131 A 
ATOM      2  N   LIG    1       24.870  31.558  54.434  0.00  0.00    -0.240 NA
ATOM      3  C   LIG    1       23.771  30.910  54.079  0.00  0.00    +0.121 A 
ATOM      4  C   LIG    1       23.204  30.010  54.960  0.00  0.00    +0.024 A 
ATOM      5  C   LIG    1       23.818  29.819  56.199  0.00  0.00    +0.124 A 
ATOM      6  N   LIG    1       24.923  30.504  56.482  0.00  0.00    -0.217 NA
ENDROOT
BRANCH   5   7
ATOM      7  N   LIG    1       23.288  28.927  57.118  0.00  0.00    -0.343 N 
ATOM      8  H   LIG    1       23.638  28.898  58.022  0.00  0.00    +0.144 HD
ATOM      9  H   LIG    1       22.567  28.334  56.857  0.00  0.00    +0.144 HD
ENDBRANCH   5   7
BRANCH   1  10
ATOM     10  C   LIG    1       26.677  32.117  55.972  0.00  0.00    +0.076 C 
BRANCH  10  12
ATOM     11  C   LIG    1       27.440  34.248  54.915  0.00  0.00    +0.004 C 
ATOM     12  C   LIG    1       27.274  32.742  54.710  0.00  0.00    +0.004 C 
ENDBRANCH  10  12
ENDBRANCH   1  10
BRANCH   4  13
ATOM     13  C   LIG    1       21.953  29.252  54.594  0.00  0.00    +0.124 C 
BRANCH  13  14
ATOM     14  N   LIG    1       20.794  29.892  55.221  0.00  0.00    -0.295 NA
ATOM     15  C   LIG    1       20.699  31.207  55.206  0.00  0.00    +0.085 C 
ATOM     16  C   LIG    1       19.620  31.845  55.787  0.00  0.00    +0.015 C 
ATOM     17  C   LIG    1       18.630  31.084  56.391  0.00  0.00    +0.003 C 
ATOM     18  C   LIG    1       18.764  29.704  56.386  0.00  0.00    +0.019 C 
ATOM     19  C   LIG    1       19.869  29.136  55.781  0.00  0.00    +0.054 C 
ATOM     20  C   LIG    1       20.022  27.638  55.765  0.00  0.00    +0.024 C 
ENDBRANCH  13  14
ENDBRANCH   4  13
TORSDOF 5
ENDMDL
MODEL 3
REMARK VINA RESULT:      -4.9      2.327      3.960
REMARK  Name = ZINC00000934
REMARK                            x       y       z     vdW  Elec       q    Type
REMARK                         _______ _______ _______ _____ _____    ______ ____
ROOT
ATOM      1  C   LIG    1       25.469  31.568  56.055  0.00  0.00    +0.131 A 
ATOM      2  N   LIG    1       24.442  31.824  55.269  0.00  0.00    -0.240 NA
ATOM      3  C   LIG    1       23.198  31.674  55.700  0.00  0.00    +0.121 A 
ATOM      4  C   LIG    1       22.981  31.243  56.995  0.00  0.00    +0.024 A 
ATOM      5  C   LIG    1       24.090  30.980  57.800  0.00  0.00    +0.124 A 
ATOM      6  N   LIG    1       25.308  31.150  57.294  0.00  0.00    -0.217 NA
ENDROOT
BRANCH   5   7
ATOM      7  N   LIG    1       23.925  30.545  59.106  0.00  0.00    -0.343 N 
ATOM      8  H   LIG    1       24.592  30.761  59.776  0.00  0.00    +0.144 HD
ATOM      9  H   LIG    1       23.143  30.025  59.348  0.00  0.00    +0.144 HD
ENDBRANCH   5   7
BRANCH   1  10
ATOM     10  C   LIG    1       26.865  31.753  55.519  0.00  0.00    +0.076 C 
BRANCH  10  12
ATOM     11  C   LIG    1       27.439  34.043  54.702  0.00  0.00    +0.004 C 
ATOM     12  C   LIG    1       26.829  32.695  54.314  0.00  0.00    +0.004 C 
ENDBRANCH  10  12
ENDBRANCH   1  10
BRANCH   4  13
ATOM     13  C   LIG    1       21.581  31.060  57.524  0.00  0.00    +0.124 C 
BRANCH  13  14
ATOM     14  N   LIG    1       20.947  29.929  56.844  0.00  0.00    -0.295 NA
ATOM     15  C   LIG    1       21.487  28.730  56.949  0.00  0.00    +0.085 C 
ATOM     16  C   LIG    1       20.915  27.640  56.322  0.00  0.00    +0.015 C 
ATOM     17  C   LIG    1       19.761  27.818  55.575  0.00  0.00    +0.003 C 
ATOM     18  C   LIG    1       19.221  29.092  55.488  0.00  0.00    +0.019 C 
ATOM     19  C   LIG    1       19.846  30.134  56.146  0.00  0.00    +0.054 C 
ATOM     20  C   LIG    1       19.266  31.523  56.063  0.00  0.00    +0.024 C 
ENDBRANCH  13  14
ENDBRANCH   4  13
TORSDOF 5
ENDMDL
MODEL 4
REMARK VINA RESULT:      -4.9      1.986      2.706
REMARK  Name = ZINC00000934
REMARK                            x       y       z     vdW  Elec       q    Type
REMARK                         _______ _______ _______ _____ _____    ______ ____
ROOT
ATOM      1  C   LIG    1       26.051  31.887  55.272  0.00  0.00    +0.131 A 
ATOM      2  N   LIG    1       25.867  31.830  56.576  0.00  0.00    -0.240 NA
ATOM      3  C   LIG    1       24.704  31.450  57.085  0.00  0.00    +0.121 A 
ATOM      4  C   LIG    1       23.674  31.109  56.231  0.00  0.00    +0.024 A 
ATOM      5  C   LIG    1       23.901  31.180  54.856  0.00  0.00    +0.124 A 
ATOM      6  N   LIG    1       25.094  31.575  54.421  0.00  0.00    -0.217 NA
ENDROOT
BRANCH   5   7
ATOM      7  N   LIG    1       22.899  30.847  53.959  0.00  0.00    -0.343 N 
ATOM      8  H   LIG    1       22.208  30.217  54.216  0.00  0.00    +0.144 HD
ATOM      9  H   LIG    1       22.889  31.244  53.075  0.00  0.00    +0.144 HD
ENDBRANCH   5   7
BRANCH   1  10
ATOM     10  C   LIG    1       27.391  32.326  54.739  0.00  0.00    +0.076 C 
BRANCH  10  12
ATOM     11  C   LIG    1       27.224  34.802  55.024  0.00  0.00    +0.004 C 
ATOM     12  C   LIG    1       27.891  33.527  55.543  0.00  0.00    +0.004 C 
ENDBRANCH  10  12
ENDBRANCH   1  10
BRANCH   4  13
ATOM     13  C   LIG    1       22.336  30.671  56.772  0.00  0.00    +0.124 C 
BRANCH  13  14
ATOM     14  N   LIG    1       21.340  31.713  56.512  0.00  0.00    -0.295 NA
ATOM     15  C   LIG    1       21.651  32.972  56.751  0.00  0.00    +0.085 C 
ATOM     16  C   LIG    1       20.737  33.982  56.517  0.00  0.00    +0.015 C 
ATOM     17  C   LIG    1       19.481  33.657  56.028  0.00  0.00    +0.003 C 
ATOM     18  C   LIG    1       19.191  32.323  55.788  0.00  0.00    +0.019 C 
ATOM     19  C   LIG    1       20.157  31.368  56.041  0.00  0.00    +0.054 C 
ATOM     20  C   LIG    1       19.855  29.915  55.780  0.00  0.00    +0.024 C 
ENDBRANCH  13  14
ENDBRANCH   4  13
TORSDOF 5
ENDMDL
MODEL 5
REMARK VINA RESULT:      -4.7      1.897      3.120
REMARK  Name = ZINC00000934
REMARK                            x       y       z     vdW  Elec       q    Type
REMARK                         _______ _______ _______ _____ _____    ______ ____
ROOT
ATOM      1  C   LIG    1       25.573  31.538  55.935  0.00  0.00    +0.131 A 
ATOM      2  N   LIG    1       24.568  31.836  55.136  0.00  0.00    -0.240 NA
ATOM      3  C   LIG    1       23.315  31.758  55.558  0.00  0.00    +0.121 A 
ATOM      4  C   LIG    1       23.064  31.357  56.856  0.00  0.00    +0.024 A 
ATOM      5  C   LIG    1       24.151  31.048  57.676  0.00  0.00    +0.124 A 
ATOM      6  N   LIG    1       25.381  31.146  57.178  0.00  0.00    -0.217 NA
ENDROOT
BRANCH   5   7
ATOM      7  N   LIG    1       23.951  30.642  58.986  0.00  0.00    -0.343 N 
ATOM      8  H   LIG    1       24.244  31.207  59.718  0.00  0.00    +0.144 HD
ATOM      9  H   LIG    1       23.521  29.793  59.169  0.00  0.00    +0.144 HD
ENDBRANCH   5   7
BRANCH   1  10
ATOM     10  C   LIG    1       26.982  31.641  55.410  0.00  0.00    +0.076 C 
BRANCH  10  12
ATOM     11  C   LIG    1       27.599  33.969  54.746  0.00  0.00    +0.004 C 
ATOM     12  C   LIG    1       27.024  32.641  54.253  0.00  0.00    +0.004 C 
ENDBRANCH  10  12
ENDBRANCH   1  10
BRANCH   4  13
ATOM     13  C   LIG    1       21.652  31.256  57.375  0.00  0.00    +0.124 C 
BRANCH  13  14
ATOM     14  N   LIG    1       21.002  32.565  57.276  0.00  0.00    -0.295 NA
ATOM     15  C   LIG    1       21.540  33.599  57.893  0.00  0.00    +0.085 C 
ATOM     16  C   LIG    1       20.954  34.848  57.821  0.00  0.00    +0.015 C 
ATOM     17  C   LIG    1       19.787  35.007  57.090  0.00  0.00    +0.003 C 
ATOM     18  C   LIG    1       19.251  33.897  56.454  0.00  0.00    +0.019 C 
ATOM     19  C   LIG    1       19.895  32.680  56.567  0.00  0.00    +0.054 C 
ATOM     20  C   LIG    1       19.325  31.468  55.876  0.00  0.00    +0.024 C 
ENDBRANCH  13  14
ENDBRANCH   4  13
TORSDOF 5
ENDMDL
