REMARK VINA RESULT:      -4.2      1.411      1.574
REMARK  Name = ZINC00000915
REMARK                            x       y       z     vdW  Elec       q    Type
REMARK                         _______ _______ _______ _____ _____    ______ ____
ROOT
ATOM      1  C   LIG    1       23.651  30.470  58.611  0.00  0.00    +0.044 C 
ATOM      2  C   LIG    1       24.031  30.861  57.207  0.00  0.00    -0.046 A 
ATOM      3  C   LIG    1       25.222  31.518  56.971  0.00  0.00    +0.026 A 
ATOM      4  C   LIG    1       25.574  31.873  55.675  0.00  0.00    +0.029 A 
ATOM      5  C   LIG    1       24.726  31.564  54.619  0.00  0.00    +0.023 A 
ATOM      6  C   LIG    1       23.536  30.906  54.861  0.00  0.00    +0.005 A 
ATOM      7  C   LIG    1       23.189  30.555  56.154  0.00  0.00    -0.046 A 
ENDROOT
BRANCH   4   8
ATOM      8  N   LIG    1       26.778  32.539  55.434  0.00  0.00    -0.336 N 
ATOM      9  C   LIG    1       27.273  32.684  54.063  0.00  0.00    +0.129 C 
ATOM     10  C   LIG    1       27.547  33.091  56.552  0.00  0.00    +0.129 C 
ENDBRANCH   4   8
BRANCH   7  11
ATOM     11  C   LIG    1       21.890  29.836  56.414  0.00  0.00    +0.019 C 
BRANCH  11  12
ATOM     12  C   LIG    1       21.697  28.737  55.366  0.00  0.00    -0.074 C 
ATOM     13  C   LIG    1       20.206  28.420  55.229  0.00  0.00    -0.014 C 
BRANCH  12  14
ATOM     14  N   LIG    1       22.406  27.523  55.809  0.00  0.00    +0.380 N 
ATOM     15  H   LIG    1       21.807  27.000  56.458  0.00  0.00    -0.090 HD
ATOM     16  H   LIG    1       23.270  27.777  56.286  0.00  0.00    -0.090 HD
ATOM     17  H   LIG    1       22.622  26.933  55.007  0.00  0.00    -0.090 HD
ENDBRANCH  12  14
ENDBRANCH  11  12
ENDBRANCH   7  11
TORSDOF 4
