REMARK VINA RESULT:      -4.1      1.619      5.517
REMARK  Name = ZINC00000915
REMARK                            x       y       z     vdW  Elec       q    Type
REMARK                         _______ _______ _______ _____ _____    ______ ____
ROOT
ATOM      1  C   LIG    1       23.967  30.742  53.400  0.00  0.00    +0.044 C 
ATOM      2  C   LIG    1       24.139  30.792  54.896  0.00  0.00    -0.046 A 
ATOM      3  C   LIG    1       23.256  30.118  55.716  0.00  0.00    +0.026 A 
ATOM      4  C   LIG    1       23.420  30.160  57.095  0.00  0.00    +0.029 A 
ATOM      5  C   LIG    1       24.473  30.881  57.645  0.00  0.00    +0.023 A 
ATOM      6  C   LIG    1       25.353  31.553  56.819  0.00  0.00    +0.005 A 
ATOM      7  C   LIG    1       25.186  31.508  55.446  0.00  0.00    -0.046 A 
ENDROOT
BRANCH   4   8
ATOM      8  N   LIG    1       22.528  29.479  57.927  0.00  0.00    -0.336 N 
ATOM      9  C   LIG    1       21.619  28.479  57.365  0.00  0.00    +0.129 C 
ATOM     10  C   LIG    1       22.502  29.767  59.364  0.00  0.00    +0.129 C 
ENDBRANCH   4   8
BRANCH   7  11
ATOM     11  C   LIG    1       26.149  32.243  54.549  0.00  0.00    +0.019 C 
BRANCH  11  12
ATOM     12  C   LIG    1       27.271  32.850  55.394  0.00  0.00    -0.074 C 
ATOM     13  C   LIG    1       27.491  34.306  54.978  0.00  0.00    -0.014 C 
BRANCH  12  14
ATOM     14  N   LIG    1       28.513  32.092  55.158  0.00  0.00    +0.380 N 
ATOM     15  H   LIG    1       28.762  32.154  54.164  0.00  0.00    -0.090 HD
ATOM     16  H   LIG    1       28.378  31.113  55.406  0.00  0.00    -0.090 HD
ATOM     17  H   LIG    1       29.272  32.482  55.715  0.00  0.00    -0.090 HD
ENDBRANCH  12  14
ENDBRANCH  11  12
ENDBRANCH   7  11
TORSDOF 4
