REMARK VINA RESULT:      -4.3      0.000      0.000
REMARK  Name = ZINC00000915
REMARK                            x       y       z     vdW  Elec       q    Type
REMARK                         _______ _______ _______ _____ _____    ______ ____
ROOT
ATOM      1  C   LIG    1       23.999  30.722  58.157  0.00  0.00    +0.044 C 
ATOM      2  C   LIG    1       24.545  31.145  56.818  0.00  0.00    -0.046 A 
ATOM      3  C   LIG    1       25.666  31.948  56.752  0.00  0.00    +0.026 A 
ATOM      4  C   LIG    1       26.172  32.332  55.517  0.00  0.00    +0.029 A 
ATOM      5  C   LIG    1       25.549  31.906  54.351  0.00  0.00    +0.023 A 
ATOM      6  C   LIG    1       24.428  31.102  54.424  0.00  0.00    +0.005 A 
ATOM      7  C   LIG    1       23.927  30.721  55.656  0.00  0.00    -0.046 A 
ENDROOT
BRANCH   4   8
ATOM      8  N   LIG    1       27.306  33.146  55.446  0.00  0.00    -0.336 N 
ATOM      9  C   LIG    1       27.164  34.579  55.180  0.00  0.00    +0.129 C 
ATOM     10  C   LIG    1       28.637  32.564  55.638  0.00  0.00    +0.129 C 
ENDBRANCH   4   8
BRANCH   7  11
ATOM     11  C   LIG    1       22.704  29.844  55.731  0.00  0.00    +0.019 C 
BRANCH  11  12
ATOM     12  C   LIG    1       21.655  30.345  54.737  0.00  0.00    -0.074 C 
ATOM     13  C   LIG    1       20.927  31.554  55.331  0.00  0.00    -0.014 C 
BRANCH  12  14
ATOM     14  N   LIG    1       20.676  29.272  54.490  0.00  0.00    +0.380 N 
ATOM     15  H   LIG    1       20.201  29.039  55.370  0.00  0.00    -0.090 HD
ATOM     16  H   LIG    1       21.150  28.441  54.138  0.00  0.00    -0.090 HD
ATOM     17  H   LIG    1       19.983  29.580  53.809  0.00  0.00    -0.090 HD
ENDBRANCH  12  14
ENDBRANCH  11  12
ENDBRANCH   7  11
TORSDOF 4
