REMARK VINA RESULT:      -4.1      2.109      6.170
REMARK  Name = ZINC00000915
REMARK                            x       y       z     vdW  Elec       q    Type
REMARK                         _______ _______ _______ _____ _____    ______ ____
ROOT
ATOM      1  C   LIG    1       23.698  28.308  54.394  0.00  0.00    +0.044 C 
ATOM      2  C   LIG    1       22.558  29.235  54.730  0.00  0.00    -0.046 A 
ATOM      3  C   LIG    1       21.298  28.721  54.968  0.00  0.00    +0.026 A 
ATOM      4  C   LIG    1       20.250  29.576  55.283  0.00  0.00    +0.029 A 
ATOM      5  C   LIG    1       20.472  30.945  55.359  0.00  0.00    +0.023 A 
ATOM      6  C   LIG    1       21.735  31.452  55.119  0.00  0.00    +0.005 A 
ATOM      7  C   LIG    1       22.776  30.598  54.805  0.00  0.00    -0.046 A 
ENDROOT
BRANCH   4   8
ATOM      8  N   LIG    1       18.974  29.060  55.525  0.00  0.00    -0.336 N 
ATOM      9  C   LIG    1       17.982  29.865  56.240  0.00  0.00    +0.129 C 
ATOM     10  C   LIG    1       18.630  27.713  55.064  0.00  0.00    +0.129 C 
ENDBRANCH   4   8
BRANCH   7  11
ATOM     11  C   LIG    1       24.152  31.155  54.545  0.00  0.00    +0.019 C 
BRANCH  11  12
ATOM     12  C   LIG    1       24.655  31.877  55.798  0.00  0.00    -0.074 C 
ATOM     13  C   LIG    1       25.989  32.561  55.491  0.00  0.00    -0.014 C 
BRANCH  12  14
ATOM     14  N   LIG    1       24.860  30.888  56.871  0.00  0.00    +0.380 N 
ATOM     15  H   LIG    1       23.966  30.432  57.085  0.00  0.00    -0.090 HD
ATOM     16  H   LIG    1       25.207  31.350  57.710  0.00  0.00    -0.090 HD
ATOM     17  H   LIG    1       25.530  30.181  56.572  0.00  0.00    -0.090 HD
ENDBRANCH  12  14
ENDBRANCH  11  12
ENDBRANCH   7  11
TORSDOF 4
