REMARK VINA RESULT:      -4.0      1.417      5.536
REMARK  Name = ZINC00000915
REMARK                            x       y       z     vdW  Elec       q    Type
REMARK                         _______ _______ _______ _____ _____    ______ ____
ROOT
ATOM      1  C   LIG    1       24.178  30.751  58.217  0.00  0.00    +0.044 C 
ATOM      2  C   LIG    1       23.498  30.499  56.896  0.00  0.00    -0.046 A 
ATOM      3  C   LIG    1       22.156  30.173  56.862  0.00  0.00    +0.026 A 
ATOM      4  C   LIG    1       21.529  29.947  55.644  0.00  0.00    +0.029 A 
ATOM      5  C   LIG    1       22.253  30.050  54.463  0.00  0.00    +0.023 A 
ATOM      6  C   LIG    1       23.594  30.377  54.504  0.00  0.00    +0.005 A 
ATOM      7  C   LIG    1       24.216  30.602  55.719  0.00  0.00    -0.046 A 
ENDROOT
BRANCH   4   8
ATOM      8  N   LIG    1       20.172  29.616  55.606  0.00  0.00    -0.336 N 
ATOM      9  C   LIG    1       19.754  28.283  55.165  0.00  0.00    +0.129 C 
ATOM     10  C   LIG    1       19.166  30.604  56.005  0.00  0.00    +0.129 C 
ENDBRANCH   4   8
BRANCH   7  11
ATOM     11  C   LIG    1       25.679  30.959  55.760  0.00  0.00    +0.019 C 
BRANCH  11  12
ATOM     12  C   LIG    1       25.907  32.264  54.993  0.00  0.00    -0.074 C 
ATOM     13  C   LIG    1       27.381  32.373  54.599  0.00  0.00    -0.014 C 
BRANCH  12  14
ATOM     14  N   LIG    1       25.560  33.399  55.866  0.00  0.00    +0.380 N 
ATOM     15  H   LIG    1       24.538  33.461  55.950  0.00  0.00    -0.090 HD
ATOM     16  H   LIG    1       25.913  34.268  55.466  0.00  0.00    -0.090 HD
ATOM     17  H   LIG    1       25.962  33.264  56.792  0.00  0.00    -0.090 HD
ENDBRANCH  12  14
ENDBRANCH  11  12
ENDBRANCH   7  11
TORSDOF 4
