REMARK  Name = ZINC03935022
REMARK                            x       y       z     vdW  Elec       q    Type
REMARK                         _______ _______ _______ _____ _____    ______ ____
ROOT
ATOM      1  N   UNK A  0       -4.306   0.876  -1.129  0.00  0.00    -0.300 N 
ATOM      2  H   UNK A  0       -3.802   0.133  -1.764  0.00  0.00    +0.150 HD
ATOM      3  C   UNK A  0       -3.694   1.345  -0.024  0.00  0.00    +0.237 C 
ATOM      4  O   UNK A  0       -4.250   2.164   0.676  0.00  0.00    -0.273 OA
ENDROOT
BRANCH   1   5
ATOM      5  C   UNK A  0       -5.644   1.357  -1.485  0.00  0.00    +0.105 C 
ATOM      6  C   UNK A  0       -5.601   2.871  -1.700  0.00  0.00    +0.041 C 
ATOM      7  C   UNK A  0       -6.621   1.030  -0.354  0.00  0.00    +0.041 C 
BRANCH   5  10
ATOM      8  N   PHE A  1       -5.205   0.390  -3.719  0.00  0.00    -0.302 N 
ATOM      9  H   PHE A  1       -4.144   0.644  -3.582  0.00  0.00    +0.150 HD
ATOM     10  C   UNK A  0       -6.099   0.682  -2.753  0.00  0.00    +0.237 C 
ATOM     11  O   UNK A  0       -7.269   0.403  -2.905  0.00  0.00    -0.273 OA
BRANCH   8  12
ATOM     12  CA  PHE A  1       -5.648  -0.266  -4.952  0.00  0.00    +0.163 C 
BRANCH  12  15
ATOM     13  N   PHE A  1       -4.667  -1.701  -6.712  0.00  0.00    -0.301 N 
ATOM     14  H   PHE A  1       -5.652  -1.711  -7.202  0.00  0.00    +0.150 HD
ATOM     15  C   PHE A  1       -4.493  -1.017  -5.564  0.00  0.00    +0.234 C 
ATOM     16  O   PHE A  1       -3.408  -1.006  -5.023  0.00  0.00    -0.274 OA
BRANCH  13  17
ATOM     17  CA  PHE A  1       -3.545  -2.432  -7.306  0.00  0.00    +0.182 C 
BRANCH  17  18
ATOM     18  C   PHE A  1       -2.730  -1.493  -8.158  0.00  0.00    +0.325 C 
ATOM     19  O   PHE A  1       -3.053  -0.334  -8.258  0.00  0.00    -0.249 OA
BRANCH  18  20
ATOM     20  OXT PHE A  1       -1.644  -1.946  -8.805  0.00  0.00    -0.479 OA
ATOM     21  HXT PHE A  1       -1.394  -2.846  -8.728  0.00  0.00    +0.295 HD
ENDBRANCH  18  20
ENDBRANCH  17  18
BRANCH  17  22
ATOM     22  CB  PHE A  1       -4.081  -3.572  -8.174  0.00  0.00    +0.036 C 
BRANCH  22  24
ATOM     23  CD1 PHE A  1       -5.440  -5.669  -8.163  0.00  0.00    +0.007 C 
ATOM     24  CG  PHE A  1       -4.780  -4.604  -7.285  0.00  0.00    -0.015 C 
ATOM     25  CD2 PHE A  1       -3.752  -5.266  -6.366  0.00  0.00    +0.007 C 
ENDBRANCH  22  24
ENDBRANCH  17  22
ENDBRANCH  13  17
ENDBRANCH  12  15
BRANCH  12  26
ATOM     26  CB  PHE A  1       -6.149   0.790  -5.940  0.00  0.00    +0.067 C 
BRANCH  26  27
ATOM     27  CG  PHE A  1       -7.379   1.458  -5.380  0.00  0.00    -0.045 A 
ATOM     28  CD2 PHE A  1       -8.632   0.944  -5.658  0.00  0.00    +0.004 A 
ATOM     29  CE2 PHE A  1       -9.759   1.553  -5.141  0.00  0.00    +0.000 A 
ATOM     30  CZ  PHE A  1       -9.635   2.683  -4.353  0.00  0.00    +0.000 A 
ATOM     31  CE1 PHE A  1       -8.382   3.200  -4.079  0.00  0.00    +0.000 A 
ATOM     32  CD1 PHE A  1       -7.255   2.587  -4.593  0.00  0.00    +0.004 A 
ENDBRANCH  26  27
ENDBRANCH  12  26
ENDBRANCH   8  12
ENDBRANCH   5  10
ENDBRANCH   1   5
BRANCH   3  33
ATOM     33  C   UNK A  0       -2.318   0.850   0.343  0.00  0.00    +0.105 C 
ATOM     34  C   UNK A  0       -1.266   1.668  -0.409  0.00  0.00    +0.041 C 
ATOM     35  C   UNK A  0       -2.105   1.006   1.849  0.00  0.00    +0.041 C 
BRANCH  33  36
ATOM     36  N   UNK A  0       -2.193  -0.562  -0.025  0.00  0.00    -0.303 N 
ATOM     37  H   UNK A  0       -3.040  -1.086  -0.493  0.00  0.00    +0.150 HD
ATOM     38  C   UNK A  0       -1.041  -1.220   0.210  0.00  0.00    +0.201 C 
ATOM     39  O   UNK A  0       -0.107  -0.643   0.726  0.00  0.00    -0.278 OA
BRANCH  38  40
ATOM     40  C   UNK A  0       -0.912  -2.674  -0.168  0.00  0.00    +0.024 C 
BRANCH  40  41
ATOM     41  N   UNK A  0       -0.192  -2.786  -1.443  0.00  0.00    +0.392 N 
ATOM     42  H   UNK A  0        0.311  -3.764  -1.463  0.00  0.00    -0.080 HD
BRANCH  41  43
ATOM     43  C   UNK A  0       -1.122  -2.733  -2.579  0.00  0.00    -0.050 C 
BRANCH  43  44
ATOM     44  C   UNK A  0       -1.845  -4.050  -2.698  0.00  0.00    -0.053 C 
ATOM     45  C   UNK A  0       -3.152  -4.090  -2.608  0.00  0.00    +0.002 C 
ENDBRANCH  43  44
ENDBRANCH  41  43
BRANCH  41  46
ATOM     46  C   UNK A  0        0.840  -1.746  -1.559  0.00  0.00    -0.050 C 
BRANCH  46  47
ATOM     47  C   UNK A  0        1.901  -1.973  -0.513  0.00  0.00    -0.053 C 
ATOM     48  C   UNK A  0        3.113  -2.314  -0.873  0.00  0.00    +0.002 C 
ENDBRANCH  46  47
ENDBRANCH  41  46
ENDBRANCH  40  41
BRANCH  40  49
ATOM     49  C   UNK A  0       -0.138  -3.418   0.922  0.00  0.00    +0.029 C 
BRANCH  49  50
ATOM     50  C   UNK A  0       -0.152  -4.896   0.628  0.00  0.00    -0.048 A 
ATOM     51  C   UNK A  0       -1.226  -5.669   1.031  0.00  0.00    +0.007 A 
ATOM     52  C   UNK A  0       -1.244  -7.023   0.758  0.00  0.00    +0.045 A 
ATOM     53  C   UNK A  0       -0.179  -7.609   0.089  0.00  0.00    +0.117 A 
ATOM     54  C   UNK A  0        0.899  -6.832  -0.309  0.00  0.00    +0.045 A 
ATOM     55  C   UNK A  0        0.910  -5.477  -0.038  0.00  0.00    +0.007 A 
BRANCH  53  56
ATOM     56  O   UNK A  0       -0.192  -8.942  -0.176  0.00  0.00    -0.507 OA
ATOM     57  H   UNK A  0        0.653  -9.405  -0.706  0.00  0.00    +0.292 HD
ENDBRANCH  53  56
ENDBRANCH  49  50
ENDBRANCH  40  49
ENDBRANCH  38  40
ENDBRANCH  33  36
ENDBRANCH   3  33
TORSDOF 22
