REMARK  Name = ZINC03995575
REMARK                            x       y       z     vdW  Elec       q    Type
REMARK                         _______ _______ _______ _____ _____    ______ ____
ROOT
ATOM      1  C   LIG    1       -1.392  -0.640   0.005  0.00  0.00    -0.000 C 
ATOM      2  C   LIG    1       -2.345  -0.130   1.115  0.00  0.00    -0.073 C 
ATOM      3  N   LIG    1       -3.695  -0.398   0.554  0.00  0.00    +0.388 N 
ATOM      4  H1  LIG    1       -4.380   0.192   1.000  0.00  0.00    -0.085 HD
ATOM      5  H2  LIG    1       -3.936  -1.370   0.679  0.00  0.00    -0.085 HD
ATOM      6  CA  LIG    1       -3.604  -0.076  -0.886  0.00  0.00    +0.043 C 
ATOM      7  C   LIG    1       -2.126  -0.243  -1.296  0.00  0.00    +0.001 C 
ENDROOT
BRANCH   1   9
ATOM      8  C   LIG    1        1.080  -0.394  -0.795  0.00  0.00    +0.038 C 
ATOM      9  C   LIG    1       -0.054   0.047   0.094  0.00  0.00    -0.078 C 
ATOM     10  C   LIG    1        0.124   1.027   0.945  0.00  0.00    +0.007 C 
ENDBRANCH   1   9
BRANCH   6  11
ATOM     11  C   LIG    1       -4.468  -1.022  -1.679  0.00  0.00    +0.291 C 
ATOM     12  O   LIG    1       -5.126  -1.873  -1.106  0.00  0.00    -0.253 OA
BRANCH  11  13
ATOM     13  OXT LIG    1       -4.508  -0.937  -2.895  0.00  0.00    -0.482 OA
ATOM     14  HXT LIG    1       -4.003  -0.283  -3.336  0.00  0.00    +0.295 HD
ENDBRANCH  11  13
ENDBRANCH   6  11
BRANCH   7  15
ATOM     15  C   LIG    1       -1.572   1.077  -1.836  0.00  0.00    +0.123 C 
BRANCH  15  16
ATOM     16  C   LIG    1       -2.170   1.356  -3.191  0.00  0.00    +0.305 C 
ATOM     17  O   LIG    1       -2.965   0.572  -3.679  0.00  0.00    -0.251 OA
BRANCH  16  18
ATOM     18  O   LIG    1       -1.859   2.367  -3.798  0.00  0.00    -0.481 OA
ATOM     19  H   LIG    1       -1.248   2.970  -3.422  0.00  0.00    +0.295 HD
ENDBRANCH  16  18
ENDBRANCH  15  16
ENDBRANCH   7  15
TORSDOF 6
