REMARK  Name = ZINC04096816
REMARK                            x       y       z     vdW  Elec       q    Type
REMARK                         _______ _______ _______ _____ _____    ______ ____
ROOT
ATOM      1  C   LIG    1        0.848  -0.513   1.172  0.00  0.00    +0.001 C 
ATOM      2  C   LIG    1        1.042  -2.046   1.070  0.00  0.00    +0.005 C 
ATOM      3  C   LIG    1        2.575  -2.292   1.034  0.00  0.00    +0.004 C 
ATOM      4  C   LIG    1        3.139  -1.041   1.715  0.00  0.00    -0.001 C 
ATOM      5  C   LIG    1        4.587  -0.713   1.400  0.00  0.00    +0.000 C 
ATOM      6  C   LIG    1        5.496  -1.808   1.969  0.00  0.00    +0.031 C 
ATOM      7  C   LIG    1        6.930  -1.395   1.805  0.00  0.00    -0.027 C 
ATOM      8  C   LIG    1        7.306  -0.151   1.742  0.00  0.00    -0.065 C 
ATOM      9  C   LIG    1        6.349   1.038   1.791  0.00  0.00    -0.008 C 
ATOM     10  C   LIG    1        6.356   1.764   0.445  0.00  0.00    +0.016 C 
ATOM     11  C   LIG    1        6.845   2.026   2.852  0.00  0.00    +0.014 C 
ATOM     12  C   LIG    1        8.288   2.424   2.539  0.00  0.00    +0.032 C 
ATOM     13  C   LIG    1        9.191   1.192   2.614  0.00  0.00    +0.119 C 
ATOM     14  C   LIG    1        8.788   0.145   1.584  0.00  0.00    +0.062 C 
ATOM     15  C   LIG    1        4.920   0.620   2.097  0.00  0.00    +0.003 C 
ATOM     16  C   LIG    1        3.961   1.740   1.703  0.00  0.00    +0.005 C 
ATOM     17  C   LIG    1        2.494   1.335   1.919  0.00  0.00    +0.007 C 
ATOM     18  C   LIG    1        2.252   0.079   1.105  0.00  0.00    -0.026 C 
ATOM     19  C   LIG    1        2.646   0.316  -0.354  0.00  0.00    +0.012 C 
ENDROOT
BRANCH   1  21
ATOM     20  C   LIG    1       -0.077   1.521   0.053  0.00  0.00    +0.010 C 
ATOM     21  C   LIG    1        0.002  -0.006   0.002  0.00  0.00    +0.018 C 
BRANCH  21  22
ATOM     22  C   LIG    1       -1.407  -0.594   0.099  0.00  0.00    +0.118 C 
BRANCH  22  23
ATOM     23  O   LIG    1       -1.333  -2.020   0.051  0.00  0.00    -0.392 OA
ATOM     24  H   LIG    1       -0.935  -2.366  -0.760  0.00  0.00    +0.210 HD
ENDBRANCH  22  23
BRANCH  22  25
ATOM     25  C   LIG    1       -2.252  -0.087  -1.072  0.00  0.00    +0.032 C 
BRANCH  25  26
ATOM     26  C   LIG    1       -3.694  -0.573  -0.908  0.00  0.00    +0.005 C 
BRANCH  26  27
ATOM     27  C   LIG    1       -4.539  -0.066  -2.078  0.00  0.00    -0.017 C 
ATOM     28  C   LIG    1       -6.004  -0.446  -1.851  0.00  0.00    +0.007 C 
ATOM     29  C   LIG    1       -4.043  -0.702  -3.378  0.00  0.00    +0.007 C 
ENDBRANCH  26  27
ENDBRANCH  25  26
ENDBRANCH  22  25
ENDBRANCH  21  22
ENDBRANCH   1  21
BRANCH  13  30
ATOM     30  O   LIG    1       10.550   1.583   2.407  0.00  0.00    -0.391 OA
ATOM     31  H   LIG    1       11.180   0.851   2.441  0.00  0.00    +0.210 HD
ENDBRANCH  13  30
TORSDOF 7
