REMARK  Name = ZINC03995809
REMARK                            x       y       z     vdW  Elec       q    Type
REMARK                         _______ _______ _______ _____ _____    ______ ____
ROOT
ATOM      1  C   LIG    1        5.519  -1.412  -2.728  0.00  0.00    +0.014 C 
ATOM      2  C   LIG    1        5.977  -1.889  -1.348  0.00  0.00    -0.003 C 
ATOM      3  C   LIG    1        4.945  -2.844  -0.787  0.00  0.00    +0.010 C 
ATOM      4  C   LIG    1        3.586  -2.119  -0.791  0.00  0.00    +0.009 C 
ATOM      5  C   LIG    1        3.649  -0.814  -0.011  0.00  0.00    +0.023 C 
ATOM      6  C   LIG    1        2.347  -0.068  -0.027  0.00  0.00    -0.041 A 
ATOM      7  C   LIG    1        1.168  -0.802  -0.041  0.00  0.00    +0.008 A 
ATOM      8  C   LIG    1       -0.055  -0.167  -0.035  0.00  0.00    +0.046 A 
ATOM      9  C   LIG    1       -0.109   1.219  -0.016  0.00  0.00    +0.117 A 
ATOM     10  C   LIG    1        1.065   1.951  -0.008  0.00  0.00    +0.049 A 
ATOM     11  C   LIG    1        2.297   1.311  -0.018  0.00  0.00    -0.040 A 
ATOM     12  C   LIG    1        3.532   2.173  -0.033  0.00  0.00    +0.039 C 
ATOM     13  C   LIG    1        4.778   1.365   0.326  0.00  0.00    -0.003 C 
ATOM     14  C   LIG    1        4.779   0.091  -0.519  0.00  0.00    +0.004 C 
ATOM     15  C   LIG    1        7.425  -2.375  -1.447  0.00  0.00    +0.121 C 
ATOM     16  C   LIG    1        8.309  -1.127  -1.200  0.00  0.00    +0.032 C 
ATOM     17  C   LIG    1        7.336   0.045  -0.896  0.00  0.00    +0.007 C 
ATOM     18  C   LIG    1        6.081  -0.673  -0.386  0.00  0.00    +0.001 C 
ENDROOT
BRANCH  15  19
ATOM     19  O   LIG    1        7.691  -2.921  -2.741  0.00  0.00    -0.391 OA
ATOM     20  H   LIG    1        8.602  -3.220  -2.862  0.00  0.00    +0.210 HD
ENDBRANCH  15  19
BRANCH   9  21
ATOM     21  O   LIG    1       -1.310   1.855  -0.012  0.00  0.00    -0.507 OA
ATOM     22  H   LIG    1       -1.661   2.027   0.873  0.00  0.00    +0.292 HD
ENDBRANCH   9  21
BRANCH  13  23
ATOM     23  C   LIG    1        4.746   0.999   1.811  0.00  0.00    +0.004 C 
BRANCH  23  24
ATOM     24  C   LIG    1        4.839   2.274   2.652  0.00  0.00    +0.000 C 
BRANCH  24  25
ATOM     25  C   LIG    1        4.808   1.908   4.137  0.00  0.00    +0.000 C 
BRANCH  25  26
ATOM     26  C   LIG    1        4.900   3.183   4.978  0.00  0.00    +0.000 C 
BRANCH  26  27
ATOM     27  C   LIG    1        4.869   2.818   6.464  0.00  0.00    +0.000 C 
BRANCH  27  28
ATOM     28  C   LIG    1        4.961   4.093   7.304  0.00  0.00    +0.000 C 
BRANCH  28  29
ATOM     29  C   LIG    1        4.930   3.727   8.790  0.00  0.00    +0.001 C 
BRANCH  29  30
ATOM     30  C   LIG    1        5.022   5.002   9.631  0.00  0.00    +0.013 C 
BRANCH  30  31
ATOM     31  C   LIG    1        4.991   4.636  11.116  0.00  0.00    +0.104 C 
BRANCH  31  32
ATOM     32  S   LIG    1        5.101   6.148  12.113  0.00  0.00    +0.022 S 
ATOM     33  O   LIG    1        3.964   6.963  11.864  0.00  0.00    -0.257 OA
BRANCH  32  34
ATOM     34  C   LIG    1        5.051   5.549  13.825  0.00  0.00    +0.104 C 
BRANCH  34  35
ATOM     35  C   LIG    1        5.137   6.738  14.784  0.00  0.00    +0.019 C 
BRANCH  35  36
ATOM     36  C   LIG    1        5.095   6.233  16.227  0.00  0.00    +0.086 C 
BRANCH  36  37
ATOM     37  C   LIG    1        5.181   7.422  17.186  0.00  0.00    +0.342 C 
ATOM     38  F   LIG    1        4.100   8.282  16.962  0.00  0.00    -0.196 F 
ATOM     39  F   LIG    1        6.378   8.112  16.968  0.00  0.00    -0.196 F 
BRANCH  37  40
ATOM     40  C   LIG    1        5.139   6.917  18.630  0.00  0.00    +0.454 C 
ATOM     41  F   LIG    1        3.942   6.228  18.848  0.00  0.00    -0.165 F 
ATOM     42  F   LIG    1        5.218   8.004  19.507  0.00  0.00    -0.165 F 
ATOM     43  F   LIG    1        6.220   6.058  18.855  0.00  0.00    -0.165 F 
ENDBRANCH  37  40
ENDBRANCH  36  37
ENDBRANCH  35  36
ENDBRANCH  34  35
ENDBRANCH  32  34
ENDBRANCH  31  32
ENDBRANCH  30  31
ENDBRANCH  29  30
ENDBRANCH  28  29
ENDBRANCH  27  28
ENDBRANCH  26  27
ENDBRANCH  25  26
ENDBRANCH  24  25
ENDBRANCH  23  24
ENDBRANCH  13  23
TORSDOF 17
