REMARK  Name = ZINC04046595
REMARK                            x       y       z     vdW  Elec       q    Type
REMARK                         _______ _______ _______ _____ _____    ______ ____
ROOT
ATOM      1  N   LIG    1        6.030  -6.306  -0.090  0.00  0.00    -0.185 N 
ENDROOT
BRANCH   1   2
ATOM      2  C   LIG    1        6.126  -7.048   1.068  0.00  0.00    +0.353 C 
ATOM      3  N   LIG    1        6.123  -8.342   1.019  0.00  0.00    +0.096 NA
ATOM      4  S   LIG    1        6.254  -8.861   2.605  0.00  0.00    +0.180 S 
ATOM      5  C   LIG    1        6.321  -7.295   3.431  0.00  0.00    +0.150 A 
ATOM      6  C   LIG    1        6.426  -6.896   4.731  0.00  0.00    +0.032 A 
ATOM      7  C   LIG    1        6.466  -5.541   5.032  0.00  0.00    +0.002 A 
ATOM      8  C   LIG    1        6.382  -4.614   4.010  0.00  0.00    +0.001 A 
ATOM      9  C   LIG    1        6.269  -5.014   2.697  0.00  0.00    +0.018 A 
ATOM     10  O   LIG    1        7.522  -9.484   2.753  0.00  0.00    -0.125 OA
ATOM     11  O   LIG    1        5.028  -9.486   2.959  0.00  0.00    -0.125 OA
ATOM     12  C   LIG    1        6.238  -6.379   2.373  0.00  0.00    +0.097 A 
ENDBRANCH   1   2
BRANCH   1  13
ATOM     13  C   LIG    1        5.765  -6.941  -1.307  0.00  0.00    +0.121 A 
ATOM     14  C   LIG    1        5.836  -6.225  -2.496  0.00  0.00    +0.049 A 
ATOM     15  C   LIG    1        5.573  -6.856  -3.696  0.00  0.00    +0.004 A 
ATOM     16  C   LIG    1        5.240  -8.197  -3.716  0.00  0.00    +0.000 A 
ATOM     17  C   LIG    1        5.168  -8.913  -2.535  0.00  0.00    +0.004 A 
ATOM     18  C   LIG    1        5.435  -8.290  -1.331  0.00  0.00    +0.049 A 
ENDBRANCH   1  13
BRANCH   1  19
ATOM     19  C   LIG    1        6.207  -4.852  -0.046  0.00  0.00    +0.235 C 
BRANCH  19  20
ATOM     20  C   LIG    1        4.879  -4.189   0.325  0.00  0.00    +0.085 C 
BRANCH  20  21
ATOM     21  C   LIG    1        5.063  -2.671   0.372  0.00  0.00    +0.236 C 
BRANCH  21  22
ATOM     22  O   LIG    1        3.823  -2.051   0.718  0.00  0.00    -0.461 OA
BRANCH  22  23
ATOM     23  C   LIG    1        3.814  -0.706   0.802  0.00  0.00    +0.339 C 
ATOM     24  O   LIG    1        4.831  -0.077   0.588  0.00  0.00    -0.245 OA
BRANCH  23  28
ATOM     25  C   LIG    1        0.230   1.333   1.817  0.00  0.00    +0.000 A 
ATOM     26  C   LIG    1        1.387   2.053   1.573  0.00  0.00    +0.001 A 
ATOM     27  C   LIG    1        2.554   1.397   1.244  0.00  0.00    +0.015 A 
ATOM     28  C   LIG    1        2.567   0.003   1.155  0.00  0.00    +0.059 A 
ATOM     29  C   LIG    1        1.397  -0.717   1.402  0.00  0.00    +0.015 A 
ATOM     30  C   LIG    1        0.236  -0.048   1.731  0.00  0.00    +0.001 A 
ENDBRANCH  23  28
ENDBRANCH  22  23
ENDBRANCH  21  22
ENDBRANCH  20  21
ENDBRANCH  19  20
ENDBRANCH   1  19
TORSDOF 8
