REMARK  Name = ZINC03881635
REMARK                            x       y       z     vdW  Elec       q    Type
REMARK                         _______ _______ _______ _____ _____    ______ ____
ROOT
ATOM      1  C   LIG    1       -0.019   1.526   0.010  0.00  0.00    +0.016 C 
ATOM      2  C   LIG    1        0.002  -0.004   0.002  0.00  0.00    -0.007 C 
ATOM      3  C   LIG    1       -1.433  -0.492  -0.081  0.00  0.00    +0.019 C 
ATOM      4  C   LIG    1       -2.129  -0.430   1.278  0.00  0.00    +0.080 C 
ATOM      5  C   LIG    1       -1.320  -1.278   2.240  0.00  0.00    +0.156 C 
ATOM      6  C   LIG    1        0.127  -1.041   2.267  0.00  0.00    +0.046 C 
ATOM      7  O   LIG    1       -1.844  -2.111   2.951  0.00  0.00    -0.293 OA
ATOM      8  C   LIG    1        0.749  -0.459  -1.258  0.00  0.00    +0.002 C 
ATOM      9  C   LIG    1        0.042   0.102  -2.488  0.00  0.00    +0.005 C 
ATOM     10  C   LIG    1        0.813  -0.210  -3.780  0.00  0.00    +0.011 C 
ATOM     11  C   LIG    1        2.205   0.371  -3.622  0.00  0.00    +0.011 C 
ATOM     12  C   LIG    1        2.110   1.857  -3.270  0.00  0.00    +0.015 C 
ATOM     13  C   LIG    1        2.910  -0.409  -2.458  0.00  0.00    +0.002 C 
ATOM     14  C   LIG    1        4.370   0.038  -2.593  0.00  0.00    +0.008 C 
ATOM     15  C   LIG    1        4.595   0.033  -4.130  0.00  0.00    +0.049 C 
ATOM     16  C   LIG    1        3.160   0.177  -4.795  0.00  0.00    +0.132 C 
ATOM     17  C   LIG    1        2.215  -0.008  -1.170  0.00  0.00    -0.003 C 
ATOM     18  C   LIG    1        2.882  -0.707   0.018  0.00  0.00    +0.008 C 
ATOM     19  C   LIG    1        2.228  -0.226   1.316  0.00  0.00    +0.032 C 
ATOM     20  C   LIG    1        0.732  -0.464   1.226  0.00  0.00    -0.060 C 
ENDROOT
BRANCH  16  21
ATOM     21  O   LIG    1        3.129   1.321  -5.652  0.00  0.00    -0.376 OA
ATOM     22  H   LIG    1        3.717   1.255  -6.417  0.00  0.00    +0.211 HD
ENDBRANCH  16  21
BRANCH  16  23
ATOM     23  C   LIG    1        2.804  -1.036  -5.548  0.00  0.00    -0.070 C 
ATOM     24  C   LIG    1        2.519  -2.003  -6.149  0.00  0.00    +0.007 C 
ENDBRANCH  16  23
TORSDOF 2
