REMARK  Name = ZINC03993799
REMARK                            x       y       z     vdW  Elec       q    Type
REMARK                         _______ _______ _______ _____ _____    ______ ____
ROOT
ATOM      1  C   LIG    1       -2.630   6.588  -3.712  0.00  0.00    +0.001 A 
ATOM      2  C   LIG    1       -2.026   7.656  -3.046  0.00  0.00    +0.011 A 
ATOM      3  C   LIG    1       -2.246   8.941  -3.471  0.00  0.00    +0.014 A 
ATOM      4  C   LIG    1       -3.084   9.182  -4.563  0.00  0.00    +0.037 A 
ATOM      5  C   LIG    1       -3.693   8.113  -5.226  0.00  0.00    +0.014 A 
ATOM      6  C   LIG    1       -3.468   6.828  -4.804  0.00  0.00    +0.011 A 
ENDROOT
BRANCH   1   9
ATOM      7  C   LIG    1       -1.446   3.735  -1.740  0.00  0.00    +0.161 A 
ATOM      8  N   LIG    1       -1.671   4.966  -2.159  0.00  0.00    -0.225 NA
ATOM      9  C   LIG    1       -2.388   5.200  -3.257  0.00  0.00    +0.080 A 
ATOM     10  C   LIG    1       -2.896   4.142  -3.960  0.00  0.00    +0.076 A 
ATOM     11  S   LIG    1       -2.297   2.772  -2.981  0.00  0.00    -0.060 S 
BRANCH   7  17
ATOM     12  C   LIG    1        0.359   1.542   3.048  0.00  0.00    -0.096 C 
ATOM     13  N   LIG    1       -0.425   1.991   1.877  0.00  0.00    +0.380 N 
ATOM     14  H   LIG    1       -1.398   1.683   1.989  0.00  0.00    -0.082 HD
ATOM     15  C   LIG    1       -0.397   3.466   1.786  0.00  0.00    -0.060 C 
ATOM     16  C   LIG    1       -1.259   3.904   0.600  0.00  0.00    +0.088 C 
ATOM     17  N   LIG    1       -0.732   3.304  -0.634  0.00  0.00    -0.313 N 
ATOM     18  C   LIG    1       -0.734   1.837  -0.545  0.00  0.00    +0.088 C 
ATOM     19  C   LIG    1        0.128   1.399   0.641  0.00  0.00    -0.060 C 
ENDBRANCH   7  17
ENDBRANCH   1   9
BRANCH   4  20
ATOM     20  C   LIG    1       -3.326  10.566  -5.016  0.00  0.00    +0.245 C 
ATOM     21  N   LIG    1       -2.739  11.597  -4.377  0.00  0.00    -0.297 N 
ATOM     22  H   LIG    1       -2.214  11.436  -3.577  0.00  0.00    +0.150 HD
ATOM     23  O   LIG    1       -4.056  10.775  -5.966  0.00  0.00    -0.270 OA
BRANCH  21  24
ATOM     24  C   LIG    1       -2.893  12.960  -4.891  0.00  0.00    +0.111 C 
ATOM     25  C   LIG    1       -2.309  13.042  -6.303  0.00  0.00    +0.035 C 
ATOM     26  C   LIG    1       -0.824  12.676  -6.263  0.00  0.00    +0.003 C 
ATOM     27  C   LIG    1       -0.083  13.653  -5.348  0.00  0.00    +0.000 C 
ATOM     28  C   LIG    1       -0.666  13.571  -3.936  0.00  0.00    +0.003 C 
ATOM     29  C   LIG    1       -2.151  13.937  -3.976  0.00  0.00    +0.035 C 
BRANCH  24  30
ATOM     30  C   LIG    1       -4.356  13.320  -4.930  0.00  0.00    +0.237 C 
ATOM     31  N   LIG    1       -5.187  12.868  -3.970  0.00  0.00    -0.301 N 
ATOM     32  H   LIG    1       -4.858  12.255  -3.294  0.00  0.00    +0.150 HD
ATOM     33  O   LIG    1       -4.785  14.017  -5.825  0.00  0.00    -0.273 OA
BRANCH  31  34
ATOM     34  C   LIG    1       -6.586  13.301  -3.949  0.00  0.00    +0.223 C 
BRANCH  34  35
ATOM     35  C   LIG    1       -7.278  12.671  -2.813  0.00  0.00    +0.081 C 
ATOM     36  N   LIG    1       -7.811  12.185  -1.936  0.00  0.00    -0.195 NA
ENDBRANCH  34  35
ENDBRANCH  31  34
ENDBRANCH  24  30
ENDBRANCH  21  24
ENDBRANCH   4  20
TORSDOF 7
