REMARK  Name = ZINC03873418
REMARK                            x       y       z     vdW  Elec       q    Type
REMARK                         _______ _______ _______ _____ _____    ______ ____
ROOT
ATOM      1  C1* LIG    1        4.841   2.099  -0.034  0.00  0.00    +0.252 C 
ATOM      2  C2* LIG    1        5.343   1.930  -1.485  0.00  0.00    +0.195 C 
ATOM      3  C3* LIG    1        6.727   2.617  -1.486  0.00  0.00    +0.178 C 
ATOM      4  C4* LIG    1        6.897   3.120  -0.035  0.00  0.00    +0.177 C 
ATOM      5  O4* LIG    1        5.551   3.250   0.473  0.00  0.00    -0.346 OA
ENDROOT
BRANCH   1   9
ATOM      6  C   LIG    1       -0.017   1.373   0.010  0.00  0.00    +0.051 A 
ATOM      7  C   LIG    1        1.187   2.083   0.002  0.00  0.00    +0.091 A 
ATOM      8  C   LIG    1        2.404   1.382  -0.013  0.00  0.00    +0.072 A 
ATOM      9  N   LIG    1        3.397   2.343  -0.018  0.00  0.00    -0.301 N 
ATOM     10  C   LIG    1        2.784   3.557  -0.007  0.00  0.00    +0.202 A 
ATOM     11  C   LIG    1        2.405  -0.006  -0.020  0.00  0.00    +0.049 A 
ATOM     12  C   LIG    1        1.209  -0.693  -0.012  0.00  0.00    +0.061 A 
ATOM     13 CL   LIG    1        1.212  -2.429  -0.021  0.00  0.00    -0.082 Cl
ATOM     14  N   LIG    1        1.492   3.406   0.005  0.00  0.00    -0.236 NA
ATOM     15  C   LIG    1        0.002  -0.004   0.002  0.00  0.00    +0.061 A 
ATOM     16 CL   LIG    1       -1.493  -0.886   0.012  0.00  0.00    -0.082 Cl
ENDBRANCH   1   9
BRANCH   2  17
ATOM     17  O2* LIG    1        5.469   0.545  -1.813  0.00  0.00    -0.385 OA
ATOM     18  H2* LIG    1        5.781   0.381  -2.714  0.00  0.00    +0.210 HD
ENDBRANCH   2  17
BRANCH   3  19
ATOM     19  O3* LIG    1        7.752   1.678  -1.817  0.00  0.00    -0.386 OA
ATOM     20  H3* LIG    1        8.642   2.057  -1.832  0.00  0.00    +0.210 HD
ENDBRANCH   3  19
BRANCH   4  21
ATOM     21  C5* LIG    1        7.609   4.475  -0.021  0.00  0.00    +0.190 C 
BRANCH  21  22
ATOM     22  O5* LIG    1        7.860   4.867   1.330  0.00  0.00    -0.392 OA
ATOM     23  H5* LIG    1        8.310   5.718   1.415  0.00  0.00    +0.210 HD
ENDBRANCH  21  22
ENDBRANCH   4  21
TORSDOF 5
