REMARK  Name = ZINC03995983
REMARK                            x       y       z     vdW  Elec       q    Type
REMARK                         _______ _______ _______ _____ _____    ______ ____
ROOT
ATOM      1  C   LIG    1        1.812   3.258  -4.913  0.00  0.00    +0.122 C 
ATOM      2  C   LIG    1        0.324   3.491  -4.645  0.00  0.00    +0.033 C 
ATOM      3  C   LIG    1        0.156   4.377  -3.408  0.00  0.00    +0.014 C 
ATOM      4  C   LIG    1        0.726   3.654  -2.184  0.00  0.00    -0.008 C 
ATOM      5  C   LIG    1       -0.099   2.386  -1.954  0.00  0.00    +0.016 C 
ATOM      6  C   LIG    1        0.581   4.528  -0.950  0.00  0.00    +0.003 C 
ATOM      7  C   LIG    1       -0.867   4.478  -0.473  0.00  0.00    +0.005 C 
ATOM      8  C   LIG    1       -1.065   5.272   0.828  0.00  0.00    +0.015 C 
ATOM      9  C   LIG    1       -0.117   4.687   1.857  0.00  0.00    +0.029 C 
ATOM     10  C   LIG    1       -0.345   3.178   1.969  0.00  0.00    +0.019 C 
ATOM     11  C   LIG    1        1.351   4.960   1.364  0.00  0.00    +0.006 C 
ATOM     12  C   LIG    1        2.146   4.601   2.602  0.00  0.00    +0.012 C 
ATOM     13  C   LIG    1        1.291   5.202   3.751  0.00  0.00    +0.075 C 
ATOM     14  C   LIG    1       -0.137   5.304   3.224  0.00  0.00    +0.139 C 
ATOM     15  O   LIG    1       -1.089   5.784   3.792  0.00  0.00    -0.297 OA
ATOM     16  C   LIG    1        1.559   4.079   0.145  0.00  0.00    +0.001 C 
ATOM     17  C   LIG    1        2.986   4.266  -0.382  0.00  0.00    +0.031 C 
ATOM     18  C   LIG    1        3.141   3.510  -1.669  0.00  0.00    -0.027 C 
ATOM     19  C   LIG    1        2.143   3.246  -2.461  0.00  0.00    -0.065 C 
ATOM     20  C   LIG    1        2.425   2.482  -3.743  0.00  0.00    +0.062 C 
ENDROOT
BRANCH   1  21
ATOM     21  O   LIG    1        1.966   2.505  -6.117  0.00  0.00    -0.378 OA
BRANCH  21  22
ATOM     22  C   LIG    1        3.177   2.780  -6.824  0.00  0.00    +0.142 C 
BRANCH  22  23
ATOM     23  C   LIG    1        3.236   1.923  -8.089  0.00  0.00    -0.050 C 
BRANCH  23  24
ATOM     24  N   LIG    1        2.130   2.320  -8.986  0.00  0.00    +0.381 N 
ATOM     25  H   LIG    1        1.250   2.304  -8.458  0.00  0.00    -0.082 HD
BRANCH  24  27
ATOM     26  C   LIG    1        3.733   3.788 -10.164  0.00  0.00    -0.017 C 
ATOM     27  C   LIG    1        2.360   3.688  -9.496  0.00  0.00    -0.082 C 
ENDBRANCH  24  27
BRANCH  24  28
ATOM     28  C   LIG    1        2.029   1.370 -10.115  0.00  0.00    -0.082 C 
ATOM     29  C   LIG    1        0.685   1.579 -10.814  0.00  0.00    -0.017 C 
ENDBRANCH  24  28
ENDBRANCH  23  24
ENDBRANCH  22  23
ENDBRANCH  21  22
ENDBRANCH   1  21
TORSDOF 6
