REMARK  Name = ZINC03995998
REMARK                            x       y       z     vdW  Elec       q    Type
REMARK                         _______ _______ _______ _____ _____    ______ ____
ROOT
ATOM      1  C   LIG    1       -0.016   1.359   0.009  0.00  0.00    +0.203 A 
ATOM      2  N   LIG    1        1.200   1.820   0.000  0.00  0.00    -0.231 NA
ATOM      3  C   LIG    1        2.075   0.785  -0.013  0.00  0.00    +0.148 A 
ATOM      4  C   LIG    1        3.476   0.675  -0.028  0.00  0.00    +0.151 A 
ATOM      5  N   LIG    1        4.016  -0.538  -0.040  0.00  0.00    -0.200 NA
ATOM      6  C   LIG    1        3.261  -1.624  -0.039  0.00  0.00    +0.226 A 
ATOM      7 CL   LIG    1        4.033  -3.179  -0.055  0.00  0.00    -0.041 Cl
ATOM      8  N   LIG    1        1.945  -1.569  -0.026  0.00  0.00    -0.198 NA
ATOM      9  C   LIG    1        1.316  -0.397  -0.013  0.00  0.00    +0.169 A 
ATOM     10  N   LIG    1        0.002  -0.004   0.002  0.00  0.00    -0.285 N 
ENDROOT
BRANCH  10  11
ATOM     11  C1* LIG    1       -1.167  -0.887   0.008  0.00  0.00    +0.253 C 
ATOM     12  C2* LIG    1       -1.530  -1.288   1.455  0.00  0.00    +0.195 C 
ATOM     13  C3* LIG    1       -3.075  -1.316   1.461  0.00  0.00    +0.178 C 
ATOM     14  C4* LIG    1       -3.462  -0.929   0.016  0.00  0.00    +0.177 C 
ATOM     15  O4* LIG    1       -2.329  -0.186  -0.485  0.00  0.00    -0.346 OA
BRANCH  12  16
ATOM     16  O2* LIG    1       -1.002  -2.579   1.765  0.00  0.00    -0.385 OA
ATOM     17  H2* LIG    1       -1.200  -2.881   2.662  0.00  0.00    +0.210 HD
ENDBRANCH  12  16
BRANCH  13  18
ATOM     18  O3* LIG    1       -3.551  -2.627   1.775  0.00  0.00    -0.386 OA
ATOM     19  H3* LIG    1       -4.514  -2.702   1.792  0.00  0.00    +0.210 HD
ENDBRANCH  13  18
BRANCH  14  20
ATOM     20  C5* LIG    1       -4.718  -0.055   0.018  0.00  0.00    +0.190 C 
BRANCH  20  21
ATOM     21  O5* LIG    1       -5.126   0.195  -1.329  0.00  0.00    -0.392 OA
ATOM     22  H5* LIG    1       -5.918   0.744  -1.405  0.00  0.00    +0.210 HD
ENDBRANCH  20  21
ENDBRANCH  14  20
ENDBRANCH  10  11
BRANCH   4  23
ATOM     23  N   LIG    1        4.274   1.806  -0.030  0.00  0.00    -0.324 N 
ATOM     24  H   LIG    1        3.868   2.686  -0.021  0.00  0.00    +0.148 HD
BRANCH  23  25
ATOM     25  C   LIG    1        5.733   1.672  -0.045  0.00  0.00    +0.072 C 
ATOM     26  C   LIG    1        6.269   1.562   1.397  0.00  0.00    +0.022 C 
ATOM     27  C   LIG    1        7.601   2.350   1.369  0.00  0.00    +0.002 C 
ATOM     28  C   LIG    1        7.273   3.543   0.437  0.00  0.00    +0.002 C 
ATOM     29  C   LIG    1        6.372   2.932  -0.656  0.00  0.00    +0.022 C 
ENDBRANCH  23  25
ENDBRANCH   4  23
TORSDOF 7
