REMARK  Name = ZINC03881558
REMARK                            x       y       z     vdW  Elec       q    Type
REMARK                         _______ _______ _______ _____ _____    ______ ____
ROOT
ATOM      1  C   LIG    1        3.648   2.172  -0.021  0.00  0.00    +0.184 A 
ATOM      2  C   LIG    1        4.848   1.486   0.063  0.00  0.00    +0.203 A 
ATOM      3  C   LIG    1        6.053   2.196   0.056  0.00  0.00    +0.176 A 
ATOM      4  C   LIG    1        6.003   3.605  -0.039  0.00  0.00    +0.104 A 
ATOM      5  C   LIG    1        7.188   4.369  -0.051  0.00  0.00    +0.135 A 
ATOM      6  C   LIG    1        7.118   5.729  -0.144  0.00  0.00    +0.097 A 
ATOM      7  C   LIG    1        5.872   6.370  -0.227  0.00  0.00    +0.186 A 
ATOM      8  C   LIG    1        4.690   5.622  -0.216  0.00  0.00    +0.098 A 
ATOM      9  O   LIG    1        5.814   7.700  -0.318  0.00  0.00    -0.288 OA
ATOM     10  C   LIG    1        4.747   4.245  -0.122  0.00  0.00    +0.147 A 
ATOM     11  O   LIG    1        3.614   3.512  -0.117  0.00  0.00    -0.451 OA
ENDROOT
BRANCH   1  14
ATOM     12  C   LIG    1        0.907  -0.148   1.052  0.00  0.00    +0.046 A 
ATOM     13  C   LIG    1        2.089   0.555   1.048  0.00  0.00    +0.019 A 
ATOM     14  C   LIG    1        2.386   1.418  -0.013  0.00  0.00    +0.063 A 
ATOM     15  C   LIG    1        1.471   1.561  -1.070  0.00  0.00    +0.131 A 
ATOM     16  C   LIG    1        0.286   0.848  -1.053  0.00  0.00    +0.091 A 
ATOM     17  C   LIG    1        0.003  -0.005   0.004  0.00  0.00    +0.120 A 
BRANCH  15  18
ATOM     18  O   LIG    1        1.750   2.396  -2.103  0.00  0.00    -0.506 OA
ATOM     19  H   LIG    1        2.155   1.959  -2.864  0.00  0.00    +0.292 HD
ENDBRANCH  15  18
BRANCH  17  20
ATOM     20  O   LIG    1       -1.162  -0.703   0.016  0.00  0.00    -0.507 OA
ATOM     21  H   LIG    1       -1.893  -0.241   0.449  0.00  0.00    +0.292 HD
ENDBRANCH  17  20
ENDBRANCH   1  14
BRANCH   2  22
ATOM     22  O   LIG    1        4.854   0.129   0.154  0.00  0.00    -0.501 OA
ATOM     23  H   LIG    1        5.739  -0.258   0.208  0.00  0.00    +0.292 HD
ENDBRANCH   2  22
BRANCH   3  24
ATOM     24  O   LIG    1        7.238   1.549   0.138  0.00  0.00    -0.503 OA
ATOM     25  H   LIG    1        7.258   0.615   0.201  0.00  0.00    +0.292 HD
ENDBRANCH   3  24
BRANCH   5  26
ATOM     26  O   LIG    1        8.395   3.754   0.030  0.00  0.00    -0.506 OA
ATOM     27  H   LIG    1        9.148   4.361   0.014  0.00  0.00    +0.292 HD
ENDBRANCH   5  26
TORSDOF 6
