REMARK  Name = ZINC03995852
REMARK                            x       y       z     vdW  Elec       q    Type
REMARK                         _______ _______ _______ _____ _____    ______ ____
ROOT
ATOM      1  C   LIG    1       -0.019   1.534   0.011  0.00  0.00    +0.013 C 
ATOM      2  C   LIG    1        1.453   1.995  -0.001  0.00  0.00    +0.110 C 
ATOM      3  C   LIG    1        2.232   0.792   0.586  0.00  0.00    +0.110 C 
ATOM      4  C   LIG    1        1.486  -0.425  -0.014  0.00  0.00    +0.013 C 
ATOM      5  C   LIG    1        0.002  -0.004   0.002  0.00  0.00    +0.030 C 
ENDROOT
BRANCH   5   6
ATOM      6  N   LIG    1       -0.655  -0.523   1.209  0.00  0.00    +0.389 N 
ATOM      7  H   LIG    1       -0.167  -0.189   2.027  0.00  0.00    -0.088 HD
ATOM      8  H   LIG    1       -0.636  -1.532   1.195  0.00  0.00    -0.088 HD
ATOM      9  H   LIG    1       -1.612  -0.204   1.235  0.00  0.00    -0.088 HD
ENDBRANCH   5   6
BRANCH   2  10
ATOM     10  C   LIG    1        1.631   3.216   0.865  0.00  0.00    +0.309 C 
ATOM     11  O   LIG    1        0.669   3.708   1.429  0.00  0.00    -0.251 OA
BRANCH  10  12
ATOM     12  O   LIG    1        2.737   3.711   1.001  0.00  0.00    -0.480 OA
ATOM     13  H   LIG    1        3.476   3.333   0.567  0.00  0.00    +0.295 HD
ENDBRANCH  10  12
ENDBRANCH   2  10
BRANCH   3  14
ATOM     14  C   LIG    1        3.671   0.817   0.137  0.00  0.00    +0.309 C 
ATOM     15  O   LIG    1        4.559   0.522   0.919  0.00  0.00    -0.251 OA
BRANCH  14  16
ATOM     16  O   LIG    1        3.946   1.132  -1.008  0.00  0.00    -0.480 OA
ATOM     17  H   LIG    1        3.264   1.359  -1.609  0.00  0.00    +0.295 HD
ENDBRANCH  14  16
ENDBRANCH   3  14
BRANCH   5  18
ATOM     18  C   LIG    1       -0.695  -0.523  -1.229  0.00  0.00    +0.293 C 
ATOM     19  O   LIG    1       -0.281  -0.224  -2.336  0.00  0.00    -0.253 OA
BRANCH  18  20
ATOM     20  O   LIG    1       -1.674  -1.242  -1.118  0.00  0.00    -0.482 OA
ATOM     21  H   LIG    1       -1.992  -1.471  -0.267  0.00  0.00    +0.295 HD
ENDBRANCH  18  20
ENDBRANCH   5  18
TORSDOF 7
