REMARK  Name = ZINC03957104
REMARK                            x       y       z     vdW  Elec       q    Type
REMARK                         _______ _______ _______ _____ _____    ______ ____
ROOT
ATOM      1  N   LIG    1       -4.423   1.051   2.434  0.00  0.00    +0.386 N 
ATOM      2  H   LIG    1       -4.983   1.368   1.634  0.00  0.00    -0.081 HD
ATOM      3  C   LIG    1       -5.015   1.589   3.677  0.00  0.00    -0.011 C 
ATOM      4  C   LIG    1       -6.482   1.159   3.754  0.00  0.00    +0.134 C 
ATOM      5  C   LIG    1       -6.561  -0.370   3.766  0.00  0.00    +0.168 C 
ATOM      6  C   LIG    1       -5.878  -0.918   2.509  0.00  0.00    +0.129 C 
ATOM      7  C   LIG    1       -4.428  -0.427   2.467  0.00  0.00    -0.044 C 
ENDROOT
BRANCH   4   8
ATOM      8  O   LIG    1       -7.188   1.665   2.620  0.00  0.00    -0.391 OA
ATOM      9  H   LIG    1       -8.126   1.427   2.602  0.00  0.00    +0.210 HD
ENDBRANCH   4   8
BRANCH   5  10
ATOM     10  O   LIG    1       -5.899  -0.875   4.927  0.00  0.00    -0.387 OA
ATOM     11  H   LIG    1       -5.907  -1.840   4.996  0.00  0.00    +0.210 HD
ENDBRANCH   5  10
BRANCH   6  12
ATOM     12  O   LIG    1       -6.571  -0.456   1.348  0.00  0.00    -0.391 OA
ATOM     13  H   LIG    1       -6.190  -0.763   0.514  0.00  0.00    +0.210 HD
ENDBRANCH   6  12
BRANCH   1  14
ATOM     14  C   LIG    1       -3.040   1.546   2.278  0.00  0.00    -0.078 C 
BRANCH  14  15
ATOM     15  C   LIG    1       -2.522   1.140   0.897  0.00  0.00    -0.019 C 
BRANCH  15  17
ATOM     16  C   LIG    1       -0.581   1.260  -0.671  0.00  0.00    +0.004 C 
ATOM     17  C   LIG    1       -1.098   1.666   0.710  0.00  0.00    -0.005 C 
ENDBRANCH  15  17
ENDBRANCH  14  15
ENDBRANCH   1  14
BRANCH   3  18
ATOM     18  C   LIG    1       -4.933   3.116   3.645  0.00  0.00    +0.143 C 
BRANCH  18  19
ATOM     19  O   LIG    1       -5.689   3.611   2.538  0.00  0.00    -0.397 OA
ATOM     20  H   LIG    1       -5.681   4.575   2.456  0.00  0.00    +0.209 HD
ENDBRANCH  18  19
ENDBRANCH   3  18
TORSDOF 8
