REMARK  Name = ZINC04097036
REMARK                            x       y       z     vdW  Elec       q    Type
REMARK                         _______ _______ _______ _____ _____    ______ ____
ROOT
ATOM      1  C   LIG    1       -3.566   5.454   2.231  0.00  0.00    -0.096 C 
ATOM      2  N   LIG    1       -2.300   5.832   1.577  0.00  0.00    +0.380 N 
ATOM      3  H   LIG    1       -2.099   6.817   1.786  0.00  0.00    -0.082 HD
ATOM      4  C   LIG    1       -2.422   5.674   0.105  0.00  0.00    -0.057 C 
ATOM      5  C   LIG    1       -2.814   4.254  -0.271  0.00  0.00    +0.021 C 
ATOM      6  C   LIG    1       -1.644   3.346  -0.467  0.00  0.00    -0.041 A 
ATOM      7  C   LIG    1       -1.720   1.995  -0.752  0.00  0.00    +0.007 A 
ATOM      8  C   LIG    1       -0.563   1.258  -0.949  0.00  0.00    +0.050 A 
ATOM      9  C   LIG    1        0.715   1.810  -0.905  0.00  0.00    +0.162 A 
ATOM     10  C   LIG    1        0.807   3.176  -0.617  0.00  0.00    +0.167 A 
ATOM     11  O   LIG    1        1.857   4.025  -0.552  0.00  0.00    -0.476 OA
ATOM     12  C   LIG    1        1.344   5.387  -0.763  0.00  0.00    +0.254 C 
ATOM     13  C   LIG    1        1.087   5.452  -2.258  0.00  0.00    +0.197 C 
ATOM     14  C   LIG    1       -0.165   5.973  -2.788  0.00  0.00    +0.046 C 
ATOM     15  C   LIG    1       -1.194   6.281  -2.008  0.00  0.00    -0.020 C 
ATOM     16  O   LIG    1        1.942   5.063  -3.025  0.00  0.00    -0.289 OA
ATOM     17  C   LIG    1        0.001   5.286  -0.039  0.00  0.00    +0.047 C 
ATOM     18  C   LIG    1        0.139   5.428   1.477  0.00  0.00    -0.002 C 
ATOM     19  C   LIG    1       -0.373   3.862  -0.367  0.00  0.00    +0.012 A 
ATOM     20  C   LIG    1       -1.125   6.169  -0.527  0.00  0.00    +0.013 C 
ATOM     21  C   LIG    1       -1.194   4.997   2.107  0.00  0.00    -0.078 C 
ENDROOT
BRANCH   9  22
ATOM     22  O   LIG    1        1.824   1.056  -1.131  0.00  0.00    -0.491 OA
ATOM     23  C   LIG    1        1.619  -0.330  -1.415  0.00  0.00    +0.277 C 
ENDBRANCH   9  22
TORSDOF 1
