REMARK  Name = ZINC03995918
REMARK                            x       y       z     vdW  Elec       q    Type
REMARK                         _______ _______ _______ _____ _____    ______ ____
ROOT
ATOM      1  C   LIG    1       -2.542   3.902   0.066  0.00  0.00    +0.145 C 
ATOM      2  C   LIG    1       -1.498   2.814   0.090  0.00  0.00    +0.017 A 
ATOM      3  C   LIG    1       -0.170   3.174   0.203  0.00  0.00    +0.027 A 
ATOM      4  C   LIG    1        0.823   2.193   0.233  0.00  0.00    +0.052 A 
ATOM      5  C   LIG    1        0.466   0.844   0.151  0.00  0.00    +0.022 A 
ATOM      6  C   LIG    1       -0.859   0.494   0.039  0.00  0.00    +0.047 A 
ATOM      7  C   LIG    1       -1.848   1.475   0.001  0.00  0.00    +0.126 A 
ATOM      8  O   LIG    1       -3.142   1.082  -0.116  0.00  0.00    -0.483 OA
ATOM      9  C   LIG    1       -4.161   2.024   0.221  0.00  0.00    +0.133 C 
ATOM     10  C   LIG    1       -5.523   1.495  -0.235  0.00  0.00    +0.058 C 
ATOM     11  C   LIG    1       -4.176   2.248   1.734  0.00  0.00    +0.058 C 
ATOM     12  C   LIG    1       -3.854   3.345  -0.494  0.00  0.00    +0.181 C 
ENDROOT
BRANCH   1  13
ATOM     13  N   LIG    1       -2.765   4.394   1.428  0.00  0.00    -0.174 NA
ATOM     14  C   LIG    1       -2.007   3.826   2.545  0.00  0.00    +0.132 C 
BRANCH  13  15
ATOM     15  S   LIG    1       -3.872   5.595   1.703  0.00  0.00    +0.032 S 
ATOM     16  O   LIG    1       -3.945   6.309   0.477  0.00  0.00    -0.158 OA
ATOM     17  O   LIG    1       -3.424   6.236   2.890  0.00  0.00    -0.158 OA
BRANCH  15  19
ATOM     18  C   LIG    1       -6.540   5.747   2.284  0.00  0.00    +0.029 C 
ATOM     19  C   LIG    1       -5.434   4.726   2.014  0.00  0.00    +0.182 C 
ENDBRANCH  15  19
ENDBRANCH  13  15
ENDBRANCH   1  13
BRANCH   4  20
ATOM     20  C   LIG    1        2.201   2.568   0.348  0.00  0.00    +0.099 C 
ATOM     21  N   LIG    1        3.293   2.864   0.440  0.00  0.00    -0.191 NA
ENDBRANCH   4  20
BRANCH  12  22
ATOM     22  O   LIG    1       -3.717   3.113  -1.898  0.00  0.00    -0.386 OA
ATOM     23  H   LIG    1       -4.514   2.760  -2.317  0.00  0.00    +0.210 HD
ENDBRANCH  12  22
TORSDOF 5
