REMARK  Name = ZINC03995780
REMARK                            x       y       z     vdW  Elec       q    Type
REMARK                         _______ _______ _______ _____ _____    ______ ____
ROOT
ATOM      1  C   LIG    1        3.373  -3.036   2.772  0.00  0.00    +0.260 C 
ENDROOT
BRANCH   1   2
ATOM      2  O   LIG    1        3.080  -1.941   1.902  0.00  0.00    -0.489 OA
BRANCH   2   8
ATOM      3  C   LIG    1        3.826  -0.522   0.131  0.00  0.00    +0.024 A 
ATOM      4  C   LIG    1        4.823  -0.161  -0.773  0.00  0.00    +0.012 A 
ATOM      5  C   LIG    1        6.016  -0.854  -0.797  0.00  0.00    +0.001 A 
ATOM      6  C   LIG    1        6.226  -1.909   0.074  0.00  0.00    +0.004 A 
ATOM      7  C   LIG    1        5.244  -2.276   0.974  0.00  0.00    +0.046 A 
ATOM      8  C   LIG    1        4.044  -1.585   1.013  0.00  0.00    +0.128 A 
BRANCH   3  12
ATOM      9  C   LIG    1        0.146   1.605   0.215  0.00  0.00    +0.000 A 
ATOM     10  C   LIG    1        1.343   2.298   0.246  0.00  0.00    +0.001 A 
ATOM     11  C   LIG    1        2.541   1.612   0.219  0.00  0.00    +0.008 A 
ATOM     12  C   LIG    1        2.542   0.220   0.161  0.00  0.00    -0.014 A 
ATOM     13  C   LIG    1        1.333  -0.473   0.130  0.00  0.00    +0.008 A 
ATOM     14  C   LIG    1        0.142   0.223   0.157  0.00  0.00    +0.001 A 
ENDBRANCH   3  12
ENDBRANCH   2   8
ENDBRANCH   1   2
BRANCH   1  15
ATOM     15  C   LIG    1        2.179  -3.288   3.694  0.00  0.00    +0.163 C 
BRANCH  15  16
ATOM     16  O   LIG    1        1.058  -3.713   2.916  0.00  0.00    -0.388 OA
ATOM     17  H   LIG    1        1.211  -4.528   2.418  0.00  0.00    +0.210 HD
ENDBRANCH  15  16
BRANCH  15  18
ATOM     18  C   LIG    1        2.538  -4.376   4.708  0.00  0.00    +0.158 C 
BRANCH  18  19
ATOM     19  C   LIG    1        1.408  -4.538   5.692  0.00  0.00    +0.241 C 
ATOM     20  N   LIG    1        1.425  -3.887   6.809  0.00  0.00    -0.292 N 
ATOM     21  H   LIG    1        2.119  -3.231   6.978  0.00  0.00    +0.301 HD
ATOM     22  H   LIG    1        0.743  -4.056   7.479  0.00  0.00    +0.301 HD
BRANCH  19  23
ATOM     23  N   LIG    1        0.363  -5.376   5.403  0.00  0.00    -0.228 N 
ATOM     24  C   LIG    1        0.392  -6.222   4.202  0.00  0.00    +0.225 C 
ATOM     25  C   LIG    1        0.142  -7.675   4.616  0.00  0.00    +0.044 C 
ATOM     26  C   LIG    1       -1.163  -7.757   5.412  0.00  0.00    +0.007 C 
ATOM     27  C   LIG    1       -1.044  -6.907   6.679  0.00  0.00    +0.044 C 
ATOM     28  C   LIG    1       -0.805  -5.450   6.291  0.00  0.00    +0.225 C 
ENDBRANCH  19  23
ENDBRANCH  18  19
ENDBRANCH  15  18
ENDBRANCH   1  15
TORSDOF 8
