REMARK  Name = ZINC04025276
REMARK                            x       y       z     vdW  Elec       q    Type
REMARK                         _______ _______ _______ _____ _____    ______ ____
ROOT
ATOM      1  C   LIG    1        4.485   5.589   0.856  0.00  0.00    +0.129 A 
ATOM      2  C   LIG    1        3.236   6.162   0.678  0.00  0.00    +0.093 A 
ATOM      3  C   LIG    1        2.165   5.388   0.252  0.00  0.00    +0.147 A 
ATOM      4  C   LIG    1        2.363   4.021   0.004  0.00  0.00    +0.067 A 
ATOM      5  C   LIG    1        3.626   3.449   0.186  0.00  0.00    +0.136 A 
ATOM      6  C   LIG    1        1.224   3.202  -0.448  0.00  0.00    +0.003 A 
ATOM      7  C   LIG    1        1.352   1.843  -0.712  0.00  0.00    +0.009 A 
ATOM      8  C   LIG    1        0.252   1.125  -1.134  0.00  0.00    +0.001 A 
ATOM      9  C   LIG    1       -0.977   1.747  -1.302  0.00  0.00    +0.001 A 
ATOM     10  C   LIG    1       -1.126   3.093  -1.039  0.00  0.00    +0.015 A 
ATOM     11  C   LIG    1       -0.026   3.836  -0.613  0.00  0.00    +0.067 A 
ATOM     12  C   LIG    1       -0.127   5.274  -0.326  0.00  0.00    +0.345 A 
ATOM     13  O   LIG    1       -1.192   5.844  -0.461  0.00  0.00    -0.245 OA
ATOM     14  O   LIG    1        0.952   5.960   0.083  0.00  0.00    -0.421 OA
ATOM     15  C   LIG    1        4.682   4.236   0.611  0.00  0.00    +0.092 A 
ENDROOT
BRANCH   1  16
ATOM     16  O   LIG    1        5.526   6.356   1.273  0.00  0.00    -0.478 OA
BRANCH  16  18
ATOM     17  C   LIG    1        7.551   5.508   0.263  0.00  0.00    +0.064 C 
ATOM     18  C   LIG    1        6.754   5.684   1.557  0.00  0.00    +0.278 C 
BRANCH  18  19
ATOM     19  C   LIG    1        7.559   6.502   2.535  0.00  0.00    +0.346 C 
ATOM     20  O   LIG    1        7.125   7.552   2.945  0.00  0.00    -0.247 OA
BRANCH  19  21
ATOM     21  O   LIG    1        8.758   6.063   2.949  0.00  0.00    -0.478 OA
ATOM     22  H   LIG    1        9.095   5.249   2.630  0.00  0.00    +0.295 HD
ENDBRANCH  19  21
ENDBRANCH  18  19
ENDBRANCH  16  18
ENDBRANCH   1  16
BRANCH   5  23
ATOM     23  O   LIG    1        3.816   2.126  -0.053  0.00  0.00    -0.477 OA
BRANCH  23  24
ATOM     24  C   LIG    1        5.154   1.635   0.039  0.00  0.00    +0.278 C 
ATOM     25  C   LIG    1        5.477   1.303   1.498  0.00  0.00    +0.064 C 
BRANCH  24  26
ATOM     26  C   LIG    1        5.293   0.392  -0.801  0.00  0.00    +0.346 C 
ATOM     27  O   LIG    1        4.342  -0.031  -1.415  0.00  0.00    -0.247 OA
BRANCH  26  28
ATOM     28  O   LIG    1        6.472  -0.247  -0.867  0.00  0.00    -0.478 OA
ATOM     29  H   LIG    1        7.209   0.081  -0.390  0.00  0.00    +0.295 HD
ENDBRANCH  26  28
ENDBRANCH  24  26
ENDBRANCH  23  24
ENDBRANCH   5  23
TORSDOF 8
