REMARK  Name = ZINC04096261
REMARK                            x       y       z     vdW  Elec       q    Type
REMARK                         _______ _______ _______ _____ _____    ______ ____
ROOT
ATOM      1  C   LIG    1       -1.858   3.690  -1.395  0.00  0.00    +0.165 C 
ENDROOT
BRANCH   1   2
ATOM      2  C   LIG    1       -2.583   5.011  -1.423  0.00  0.00    +0.237 C 
ATOM      3  N   LIG    1       -3.924   5.046  -1.291  0.00  0.00    -0.288 N 
ATOM      4  C   LIG    1       -4.792   3.887  -1.014  0.00  0.00    +0.109 C 
ATOM      5  C   LIG    1       -6.059   4.488  -0.357  0.00  0.00    +0.021 C 
ATOM      6  C   LIG    1       -6.223   5.811  -1.151  0.00  0.00    +0.033 C 
ATOM      7  C   LIG    1       -4.764   6.249  -1.394  0.00  0.00    +0.162 C 
ATOM      8  O   LIG    1       -1.960   6.042  -1.563  0.00  0.00    -0.274 OA
BRANCH   7   9
ATOM      9  C   LIG    1       -4.347   7.255  -0.352  0.00  0.00    +0.231 C 
ATOM     10  N   LIG    1       -4.986   8.438  -0.265  0.00  0.00    -0.328 N 
ATOM     11  H   LIG    1       -4.718   9.086   0.406  0.00  0.00    +0.145 HD
ATOM     12  H   LIG    1       -5.714   8.643  -0.872  0.00  0.00    +0.145 HD
ATOM     13  O   LIG    1       -3.437   7.000   0.408  0.00  0.00    -0.274 OA
ENDBRANCH   7   9
ENDBRANCH   1   2
BRANCH   1  14
ATOM     14  N   LIG    1       -0.624   3.794  -2.177  0.00  0.00    -0.302 N 
ATOM     15  H   LIG    1       -0.201   4.658  -2.303  0.00  0.00    +0.150 HD
ATOM     16  C   LIG    1       -0.075   2.690  -2.721  0.00  0.00    +0.234 C 
ATOM     17  O   LIG    1       -0.604   1.609  -2.563  0.00  0.00    -0.274 OA
BRANCH  16  18
ATOM     18  C   LIG    1        1.195   2.797  -3.525  0.00  0.00    +0.159 C 
ATOM     19  C   LIG    1        0.879   3.257  -4.965  0.00  0.00    +0.041 C 
ATOM     20  C   LIG    1        0.757   1.906  -5.708  0.00  0.00    +0.098 C 
ATOM     21  C   LIG    1        1.587   0.951  -4.878  0.00  0.00    +0.214 C 
ATOM     22  O   LIG    1        1.983  -0.132  -5.254  0.00  0.00    -0.276 OA
ATOM     23  N   LIG    1        1.822   1.477  -3.662  0.00  0.00    -0.304 N 
ATOM     24  H   LIG    1        2.339   1.042  -2.966  0.00  0.00    +0.149 HD
ENDBRANCH  16  18
ENDBRANCH   1  14
BRANCH   1  25
ATOM     25  C   LIG    1       -1.517   3.325   0.051  0.00  0.00    +0.086 C 
BRANCH  25  27
ATOM     26  C   LIG    1        0.394   1.643  -0.103  0.00  0.00    +0.133 A 
ATOM     27  C   LIG    1       -0.903   1.949   0.091  0.00  0.00    +0.038 A 
ATOM     28  N   LIG    1       -1.557   0.771   0.332  0.00  0.00    -0.348 N 
ATOM     29  H   LIG    1       -2.505   0.664   0.508  0.00  0.00    +0.166 HD
ATOM     30  C   LIG    1       -0.636  -0.215   0.276  0.00  0.00    +0.196 A 
ATOM     31  N   LIG    1        0.528   0.314   0.016  0.00  0.00    -0.244 NA
ENDBRANCH  25  27
ENDBRANCH   1  25
TORSDOF 6
