REMARK  Name = ZINC03964126
REMARK                            x       y       z     vdW  Elec       q    Type
REMARK                         _______ _______ _______ _____ _____    ______ ____
ROOT
ATOM      1  N   LIG    1       -2.425   1.031   0.021  0.00  0.00    -0.234 N 
ATOM      2  C   LIG    1       -3.671   1.444  -0.640  0.00  0.00    +0.163 C 
ATOM      3  C   LIG    1       -4.653   0.300  -0.323  0.00  0.00    +0.213 C 
ATOM      4  O   LIG    1       -3.867  -0.625   0.483  0.00  0.00    -0.444 OA
ATOM      5  C   LIG    1       -2.627  -0.145   0.632  0.00  0.00    +0.408 C 
ATOM      6  O   LIG    1       -1.764  -0.721   1.264  0.00  0.00    -0.226 OA
ENDROOT
BRANCH   1   9
ATOM      7  C   LIG    1        1.073   1.959   0.681  0.00  0.00    +0.025 A 
ATOM      8  C   LIG    1       -0.113   1.252   0.689  0.00  0.00    +0.025 A 
ATOM      9  C   LIG    1       -1.223   1.751   0.018  0.00  0.00    +0.040 A 
ATOM     10  C   LIG    1       -1.142   2.965  -0.651  0.00  0.00    +0.025 A 
ATOM     11  C   LIG    1        0.044   3.671  -0.658  0.00  0.00    +0.025 A 
ATOM     12  C   LIG    1        1.155   3.171   0.008  0.00  0.00    +0.037 A 
BRANCH  12  13
ATOM     13  N   LIG    1        2.358   3.888  -0.001  0.00  0.00    -0.267 N 
ATOM     14  C   LIG    1        2.593   4.877   1.048  0.00  0.00    +0.142 C 
ATOM     15  C   LIG    1        4.089   5.197   1.136  0.00  0.00    +0.180 C 
ATOM     16  O   LIG    1        4.571   5.482  -0.182  0.00  0.00    -0.369 OA
ATOM     17  C   LIG    1        4.580   4.335  -1.035  0.00  0.00    +0.256 C 
ATOM     18  C   LIG    1        3.246   3.643  -0.972  0.00  0.00    +0.246 C 
ATOM     19  O   LIG    1        2.965   2.835  -1.832  0.00  0.00    -0.273 OA
ENDBRANCH  12  13
ENDBRANCH   1   9
BRANCH   3  20
ATOM     20  C   LIG    1       -5.845   0.829   0.476  0.00  0.00    +0.150 C 
BRANCH  20  21
ATOM     21  N   LIG    1       -6.716  -0.288   0.851  0.00  0.00    -0.307 N 
ATOM     22  H   LIG    1       -6.486  -1.192   0.585  0.00  0.00    +0.149 HD
ATOM     23  C   LIG    1       -7.836  -0.059   1.564  0.00  0.00    +0.251 C 
ATOM     24  O   LIG    1       -8.125   1.075   1.897  0.00  0.00    -0.270 OA
BRANCH  23  25
ATOM     25  C   LIG    1       -8.707  -1.176   1.939  0.00  0.00    +0.075 A 
ATOM     26  C   LIG    1       -9.887  -1.158   2.666  0.00  0.00    +0.022 A 
ATOM     27  C   LIG    1      -10.512  -2.361   2.874  0.00  0.00    +0.028 A 
ATOM     28  C   LIG    1       -9.950  -3.496   2.375  0.00  0.00    +0.079 A 
ATOM     29 CL   LIG    1      -10.526  -5.129   2.498  0.00  0.00    -0.076 Cl
ATOM     30  S   LIG    1       -8.521  -2.915   1.585  0.00  0.00    -0.072 S 
ENDBRANCH  23  25
ENDBRANCH  20  21
ENDBRANCH   3  20
TORSDOF 5
