REMARK  Name = ZINC03995702
REMARK                            x       y       z     vdW  Elec       q    Type
REMARK                         _______ _______ _______ _____ _____    ______ ____
ROOT
ATOM      1  C   LIG    1       -2.794  -2.464  -0.243  0.00  0.00    -0.061 C 
ATOM      2  C   LIG    1       -2.795  -3.975  -0.499  0.00  0.00    -0.010 C 
ATOM      3  C   LIG    1       -4.237  -4.475  -0.425  0.00  0.00    +0.037 C 
ATOM      4  C   LIG    1       -5.132  -3.643  -1.305  0.00  0.00    -0.002 A 
ATOM      5  C   LIG    1       -4.769  -2.398  -1.766  0.00  0.00    -0.039 A 
ATOM      6  C   LIG    1       -5.645  -1.679  -2.568  0.00  0.00    +0.004 A 
ATOM      7  C   LIG    1       -6.875  -2.202  -2.913  0.00  0.00    +0.004 A 
ATOM      8  C   LIG    1       -7.242  -3.453  -2.457  0.00  0.00    +0.046 A 
ATOM      9  C   LIG    1       -6.373  -4.173  -1.654  0.00  0.00    +0.124 A 
ATOM     10  C   LIG    1       -3.438  -1.770  -1.442  0.00  0.00    +0.003 C 
ATOM     11  C   LIG    1       -2.513  -1.896  -2.654  0.00  0.00    +0.011 C 
ENDROOT
BRANCH   1  12
ATOM     12  N   LIG    1       -1.413  -1.990  -0.081  0.00  0.00    +0.382 N 
ATOM     13  H   LIG    1       -0.877  -2.228  -0.902  0.00  0.00    -0.081 HD
BRANCH  12  14
ATOM     14  C   LIG    1       -1.413  -0.532   0.098  0.00  0.00    -0.079 C 
BRANCH  14  16
ATOM     15  C   LIG    1        0.030   1.505   0.194  0.00  0.00    +0.002 C 
ATOM     16  C   LIG    1        0.029  -0.025   0.151  0.00  0.00    -0.022 C 
ENDBRANCH  14  16
ENDBRANCH  12  14
BRANCH  12  17
ATOM     17  C   LIG    1       -0.812  -2.628   1.098  0.00  0.00    -0.079 C 
BRANCH  17  18
ATOM     18  C   LIG    1       -1.694  -2.371   2.322  0.00  0.00    -0.022 C 
ATOM     19  C   LIG    1       -1.001  -2.916   3.573  0.00  0.00    +0.002 C 
ENDBRANCH  17  18
ENDBRANCH  12  17
ENDBRANCH   1  12
BRANCH   9  20
ATOM     20  O   LIG    1       -6.732  -5.404  -1.204  0.00  0.00    -0.495 OA
ATOM     21  C   LIG    1       -8.017  -5.889  -1.599  0.00  0.00    +0.277 C 
ENDBRANCH   9  20
TORSDOF 6
