REMARK  Name = ZINC03951736
REMARK                            x       y       z     vdW  Elec       q    Type
REMARK                         _______ _______ _______ _____ _____    ______ ____
ROOT
ATOM      1  C   LIG    1        8.181   9.527   1.037  0.00  0.00    +0.162 C 
ATOM      2  C   LIG    1        9.626  10.055   1.196  0.00  0.00    +0.051 C 
ATOM      3  C   LIG    1       10.091  10.147  -0.274  0.00  0.00    +0.116 C 
ATOM      4  N   LIG    1        8.865  10.311  -1.064  0.00  0.00    -0.270 N 
ATOM      5  C   LIG    1        7.777   9.964  -0.354  0.00  0.00    +0.240 C 
ATOM      6  O   LIG    1        6.638   9.997  -0.768  0.00  0.00    -0.273 OA
ENDROOT
BRANCH   1  10
ATOM      7  N   LIG    1        7.004   6.094   1.630  0.00  0.00    -0.299 N 
ATOM      8  H   LIG    1        7.798   5.578   1.418  0.00  0.00    +0.150 HD
ATOM      9  C   LIG    1        7.028   7.438   1.533  0.00  0.00    +0.300 C 
ATOM     10  N   LIG    1        8.155   8.066   1.142  0.00  0.00    -0.288 N 
ATOM     11  H   LIG    1        8.949   7.550   0.930  0.00  0.00    +0.151 HD
ATOM     12  O   LIG    1        6.034   8.085   1.798  0.00  0.00    -0.253 OA
BRANCH   7  13
ATOM     13  C   LIG    1        5.779   5.412   2.055  0.00  0.00    +0.117 C 
BRANCH  13  14
ATOM     14  C   LIG    1        6.020   3.901   2.081  0.00  0.00    +0.139 C 
BRANCH  14  15
ATOM     15  C   LIG    1        4.760   3.200   2.518  0.00  0.00    +0.309 C 
ATOM     16  O   LIG    1        3.771   3.842   2.782  0.00  0.00    -0.251 OA
BRANCH  15  17
ATOM     17  O   LIG    1        4.736   1.861   2.615  0.00  0.00    -0.465 OA
BRANCH  17  19
ATOM     18  C   LIG    1        3.653  -0.267   3.092  0.00  0.00    +0.048 C 
ATOM     19  C   LIG    1        3.488   1.253   3.042  0.00  0.00    +0.229 C 
ENDBRANCH  17  19
ENDBRANCH  15  17
ENDBRANCH  14  15
ENDBRANCH  13  14
ENDBRANCH   7  13
ENDBRANCH   1  10
BRANCH   4  20
ATOM     20  C   LIG    1        8.832  10.768  -2.382  0.00  0.00    +0.036 A 
ATOM     21  C   LIG    1        7.633  10.771  -3.086  0.00  0.00    +0.024 A 
ATOM     22  C   LIG    1        7.597  11.227  -4.386  0.00  0.00    +0.017 A 
ATOM     23  C   LIG    1        8.767  11.676  -4.999  0.00  0.00    +0.061 A 
ATOM     24  C   LIG    1        9.971  11.667  -4.292  0.00  0.00    +0.017 A 
ATOM     25  C   LIG    1       10.000  11.216  -2.991  0.00  0.00    +0.024 A 
BRANCH  23  26
ATOM     26  C   LIG    1        8.733  12.161  -6.396  0.00  0.00    +0.266 C 
ATOM     27  N   LIG    1        9.878  12.574  -6.920  0.00  0.00    -0.288 N 
ATOM     28  H   LIG    1       10.737  12.548  -6.359  0.00  0.00    +0.301 HD
ATOM     29  H   LIG    1        9.905  12.918  -7.880  0.00  0.00    +0.301 HD
BRANCH  26  30
ATOM     30  N   LIG    1        7.544  12.169  -7.093  0.00  0.00    -0.250 N 
ATOM     31  H   LIG    1        7.521  12.487  -8.010  0.00  0.00    +0.288 HD
ATOM     32  H   LIG    1        6.730  11.857  -6.668  0.00  0.00    +0.288 HD
ENDBRANCH  26  30
ENDBRANCH  23  26
ENDBRANCH   4  20
TORSDOF 9
