REMARK  Name = ZINC03917109
REMARK                            x       y       z     vdW  Elec       q    Type
REMARK                         _______ _______ _______ _____ _____    ______ ____
ROOT
ATOM      1  C   LIG    1        2.999  -6.643  -1.211  0.00  0.00    +0.017 C 
ENDROOT
BRANCH   1   2
ATOM      2  C   LIG    1        2.014  -6.420  -0.063  0.00  0.00    +0.084 C 
BRANCH   2   6
ATOM      3  N   LIG    1       -0.075  -2.780  -0.013  0.00  0.00    -0.325 N 
ATOM      4  C   LIG    1        0.571  -3.196   1.241  0.00  0.00    +0.120 C 
ATOM      5  C   LIG    1        0.835  -4.704   1.175  0.00  0.00    +0.103 C 
ATOM      6  N   LIG    1        1.591  -5.013  -0.046  0.00  0.00    -0.299 NA
ATOM      7  C   LIG    1        0.818  -4.681  -1.250  0.00  0.00    +0.103 C 
ATOM      8  C   LIG    1        0.549  -3.177  -1.283  0.00  0.00    +0.120 C 
BRANCH   3  14
ATOM      9  C   LIG    1       -1.201  -0.638   0.010  0.00  0.00    +0.141 A 
ATOM     10  C   LIG    1       -2.374   0.099   0.019  0.00  0.00    +0.047 A 
ATOM     11  C   LIG    1       -3.597  -0.547   0.028  0.00  0.00    +0.004 A 
ATOM     12  C   LIG    1       -3.653  -1.928   0.027  0.00  0.00    +0.002 A 
ATOM     13  C   LIG    1       -2.487  -2.671   0.017  0.00  0.00    +0.027 A 
ATOM     14  C   LIG    1       -1.257  -2.030   0.003  0.00  0.00    +0.072 A 
BRANCH   9  16
ATOM     15  C   LIG    1       -0.017   1.425   0.010  0.00  0.00    +0.277 C 
ATOM     16  O   LIG    1        0.002  -0.004   0.002  0.00  0.00    -0.493 OA
ENDBRANCH   9  16
ENDBRANCH   3  14
ENDBRANCH   2   6
ENDBRANCH   1   2
BRANCH   1  17
ATOM     17  C   LIG    1        3.439  -8.108  -1.228  0.00  0.00    +0.020 C 
BRANCH  17  18
ATOM     18  C   LIG    1        4.425  -8.331  -2.377  0.00  0.00    +0.104 C 
BRANCH  18  19
ATOM     19  N   LIG    1        4.846  -9.735  -2.393  0.00  0.00    -0.311 N 
ATOM     20  H   LIG    1        4.497 -10.353  -1.733  0.00  0.00    +0.149 HD
ATOM     21  C   LIG    1        5.719 -10.165  -3.325  0.00  0.00    +0.244 C 
ATOM     22  O   LIG    1        6.157  -9.390  -4.153  0.00  0.00    -0.270 OA
BRANCH  21  23
ATOM     23  C   LIG    1        6.144 -11.581  -3.342  0.00  0.00    +0.037 A 
ATOM     24  C   LIG    1        5.629 -12.475  -2.386  0.00  0.00    +0.013 A 
ATOM     25  C   LIG    1        6.004 -13.779  -2.381  0.00  0.00    +0.009 A 
ATOM     26  C   LIG    1        6.918 -14.253  -3.339  0.00  0.00    -0.018 A 
ATOM     27  C   LIG    1        7.321 -15.599  -3.354  0.00  0.00    +0.008 A 
ATOM     28  C   LIG    1        8.207 -16.028  -4.294  0.00  0.00    +0.001 A 
ATOM     29  C   LIG    1        8.724 -15.152  -5.246  0.00  0.00    +0.001 A 
ATOM     30  C   LIG    1        8.358 -13.841  -5.264  0.00  0.00    +0.008 A 
ATOM     31  C   LIG    1        7.444 -13.361  -4.308  0.00  0.00    -0.017 A 
ATOM     32  C   LIG    1        7.041 -12.018  -4.302  0.00  0.00    +0.021 A 
ENDBRANCH  21  23
ENDBRANCH  18  19
ENDBRANCH  17  18
ENDBRANCH   1  17
TORSDOF 8
