REMARK  Name = ZINC03873371
REMARK                            x       y       z     vdW  Elec       q    Type
REMARK                         _______ _______ _______ _____ _____    ______ ____
ROOT
ATOM      1  C   LIG    1       -3.155  -1.966  -1.424  0.00  0.00    +0.098 C 
ENDROOT
BRANCH   1   2
ATOM      2  C   LIG    1       -3.416  -2.635  -2.749  0.00  0.00    -0.014 A 
ATOM      3  C   LIG    1       -3.136  -1.967  -3.927  0.00  0.00    +0.007 A 
ATOM      4  C   LIG    1       -3.375  -2.579  -5.142  0.00  0.00    +0.020 A 
ATOM      5  C   LIG    1       -3.894  -3.862  -5.181  0.00  0.00    +0.042 A 
ATOM      6 CL   LIG    1       -4.195  -4.631  -6.708  0.00  0.00    -0.083 Cl
ATOM      7  C   LIG    1       -4.173  -4.530  -4.003  0.00  0.00    +0.040 A 
ATOM      8  C   LIG    1       -3.930  -3.919  -2.787  0.00  0.00    +0.047 A 
ATOM      9 CL   LIG    1       -4.274  -4.760  -1.307  0.00  0.00    -0.083 Cl
ENDBRANCH   1   2
BRANCH   1  10
ATOM     10  S   LIG    1       -1.870  -0.702  -1.627  0.00  0.00    -0.146 S 
BRANCH  10  11
ATOM     11  C   LIG    1       -1.523  -0.153   0.067  0.00  0.00    +0.104 C 
BRANCH  11  18
ATOM     12  C   LIG    1       -0.615   2.174  -0.088  0.00  0.00    +0.006 A 
ATOM     13  C   LIG    1        0.439   3.068  -0.100  0.00  0.00    +0.020 A 
ATOM     14  C   LIG    1        1.737   2.607   0.030  0.00  0.00    +0.041 A 
ATOM     15 CL   LIG    1        3.062   3.729   0.015  0.00  0.00    -0.084 Cl
ATOM     16  C   LIG    1        1.979   1.253   0.173  0.00  0.00    +0.020 A 
ATOM     17  C   LIG    1        0.924   0.360   0.184  0.00  0.00    +0.006 A 
ATOM     18  C   LIG    1       -0.373   0.820   0.054  0.00  0.00    -0.037 A 
ENDBRANCH  11  18
ENDBRANCH  10  11
ENDBRANCH   1  10
BRANCH   1  19
ATOM     19  C   LIG    1       -4.442  -1.309  -0.922  0.00  0.00    +0.141 C 
BRANCH  19  20
ATOM     20  N   LIG    1       -4.912  -0.337  -1.913  0.00  0.00    -0.335 N 
ATOM     21  C   LIG    1       -4.513   0.968  -2.024  0.00  0.00    +0.107 A 
ATOM     22  C   LIG    1       -5.189   1.496  -3.062  0.00  0.00    +0.130 A 
ATOM     23  N   LIG    1       -5.981   0.539  -3.570  0.00  0.00    -0.244 NA
ATOM     24  C   LIG    1       -5.816  -0.562  -2.890  0.00  0.00    +0.199 A 
ENDBRANCH  19  20
ENDBRANCH   1  19
TORSDOF 6
