REMARK  Name = ZINC03960761
REMARK                            x       y       z     vdW  Elec       q    Type
REMARK                         _______ _______ _______ _____ _____    ______ ____
ROOT
ATOM      1  C   LIG    1       -0.016   1.360   0.009  0.00  0.00    +0.000 C 
ATOM      2  C   LIG    1        1.169   2.088   0.002  0.00  0.00    +0.002 C 
ATOM      3  C   LIG    1        2.382   1.473  -0.023  0.00  0.00    +0.019 C 
ATOM      4  C   LIG    1        2.447   0.069  -0.038  0.00  0.00    +0.062 C 
ATOM      5  C   LIG    1        1.238  -0.670  -0.029  0.00  0.00    +0.023 C 
ATOM      6  C   LIG    1        1.302  -2.080  -0.071  0.00  0.00    +0.060 C 
ATOM      7  C   LIG    1        2.553  -2.674  -0.063  0.00  0.00    +0.034 C 
ATOM      8  C   LIG    1        3.694  -1.881  -0.062  0.00  0.00    +0.086 C 
ATOM      9  N   LIG    1        0.133  -2.851  -0.104  0.00  0.00    -0.309 NA
ATOM     10  H   LIG    1       -0.710  -2.518   0.241  0.00  0.00    +0.123 HD
ATOM     11  C   LIG    1        0.257  -4.202  -0.698  0.00  0.00    +0.116 C 
ATOM     12  C   LIG    1        1.151  -5.054   0.160  0.00  0.00    -0.034 A 
ATOM     13  C   LIG    1        1.264  -4.811   1.515  0.00  0.00    +0.005 A 
ATOM     14  C   LIG    1        2.068  -5.626   2.291  0.00  0.00    +0.005 A 
ATOM     15  C   LIG    1        2.763  -6.674   1.717  0.00  0.00    -0.034 A 
ATOM     16  C   LIG    1        2.653  -6.913   0.359  0.00  0.00    +0.005 A 
ATOM     17  C   LIG    1        3.634  -7.555   2.573  0.00  0.00    +0.116 C 
ATOM     18  N   LIG    1        4.962  -7.678   1.972  0.00  0.00    -0.309 NA
ATOM     19  H   LIG    1        5.290  -8.553   1.712  0.00  0.00    +0.123 HD
ATOM     20  C   LIG    1        5.761  -6.556   1.766  0.00  0.00    +0.060 C 
ATOM     21  C   LIG    1        7.103  -6.717   1.343  0.00  0.00    +0.023 C 
ATOM     22  C   LIG    1        7.899  -5.565   1.161  0.00  0.00    +0.062 C 
ATOM     23  C   LIG    1        9.244  -5.697   0.776  0.00  0.00    +0.019 C 
ATOM     24  C   LIG    1        9.757  -6.941   0.572  0.00  0.00    +0.002 C 
ATOM     25  C   LIG    1        8.964  -8.072   0.731  0.00  0.00    +0.000 C 
ATOM     26  N   LIG    1        7.373  -4.344   1.347  0.00  0.00    -0.295 NA
ATOM     27  C   LIG    1        6.134  -4.184   1.738  0.00  0.00    +0.086 C 
ATOM     28  C   LIG    1        8.258  -3.209   1.097  0.00  0.00    +0.119 C 
ATOM     29  C   LIG    1        7.552  -1.906   1.342  0.00  0.00    -0.033 A 
ATOM     30  C   LIG    1        6.511  -1.519   0.522  0.00  0.00    +0.009 A 
ATOM     31  C   LIG    1        5.960  -0.257   0.651  0.00  0.00    -0.033 A 
ATOM     32  C   LIG    1        6.460   0.608   1.615  0.00  0.00    +0.005 A 
ATOM     33  C   LIG    1        7.460   0.197   2.476  0.00  0.00    +0.001 A 
ATOM     34  C   LIG    1        4.852   0.204  -0.254  0.00  0.00    +0.119 C 
ATOM     35  C   LIG    1        7.996  -1.069   2.345  0.00  0.00    +0.005 A 
ATOM     36  C   LIG    1        7.655  -7.984   1.105  0.00  0.00    +0.006 C 
ATOM     37  C   LIG    1        5.290  -5.269   1.961  0.00  0.00    +0.034 C 
ATOM     38  C   LIG    1        1.850  -6.099  -0.417  0.00  0.00    +0.005 A 
ATOM     39  N   LIG    1        3.626  -0.569  -0.088  0.00  0.00    -0.295 NA
ATOM     40  C   LIG    1        0.002  -0.004   0.002  0.00  0.00    +0.006 C 
ENDROOT
TORSDOF 0
