REMARK  Name = ZINC03949004
REMARK                            x       y       z     vdW  Elec       q    Type
REMARK                         _______ _______ _______ _____ _____    ______ ____
ROOT
ATOM      1  C   LIG    1        7.072   2.851  -0.049  0.00  0.00    +0.217 C 
ATOM      2  O   LIG    1        7.641   1.779  -0.060  0.00  0.00    -0.287 OA
ENDROOT
BRANCH   1   3
ATOM      3  C   LIG    1        5.608   2.902  -0.035  0.00  0.00    +0.264 A 
ATOM      4  N   LIG    1        4.881   4.000  -0.022  0.00  0.00    -0.214 NA
ATOM      5  C   LIG    1        3.595   3.668  -0.018  0.00  0.00    +0.163 A 
ATOM      6  C   LIG    1        3.521   2.291  -0.019  0.00  0.00    +0.174 A 
ATOM      7  O   LIG    1        4.788   1.833  -0.034  0.00  0.00    -0.432 OA
BRANCH   6   8
ATOM      8  C   LIG    1        2.290   1.474  -0.012  0.00  0.00    +0.108 A 
ATOM      9  C   LIG    1        2.383   0.081  -0.020  0.00  0.00    +0.031 A 
ATOM     10  C   LIG    1        1.220  -0.669  -0.013  0.00  0.00    +0.004 A 
ATOM     11  C   LIG    1        0.002  -0.004   0.002  0.00  0.00    +0.020 A 
ATOM     12  C   LIG    1       -0.017   1.380   0.010  0.00  0.00    +0.111 A 
ATOM     13  N   LIG    1        1.103   2.071   0.003  0.00  0.00    -0.252 NA
ENDBRANCH   6   8
ENDBRANCH   1   3
BRANCH   1  14
ATOM     14  C   LIG    1        7.870   4.129  -0.049  0.00  0.00    +0.085 C 
BRANCH  14  15
ATOM     15  C   LIG    1        9.364   3.797  -0.065  0.00  0.00    +0.008 C 
BRANCH  15  16
ATOM     16  C   LIG    1       10.175   5.094  -0.065  0.00  0.00    +0.000 C 
BRANCH  16  17
ATOM     17  C   LIG    1       11.668   4.763  -0.080  0.00  0.00    +0.000 C 
BRANCH  17  18
ATOM     18  C   LIG    1       12.479   6.060  -0.080  0.00  0.00    +0.005 C 
BRANCH  18  19
ATOM     19  C   LIG    1       13.972   5.728  -0.096  0.00  0.00    +0.035 C 
BRANCH  19  23
ATOM     20  C   LIG    1       16.236   9.351  -0.097  0.00  0.00    +0.000 A 
ATOM     21  C   LIG    1       15.881   8.758   1.101  0.00  0.00    +0.000 A 
ATOM     22  C   LIG    1       15.148   7.586   1.101  0.00  0.00    +0.003 A 
ATOM     23  C   LIG    1       14.771   7.006  -0.096  0.00  0.00    -0.047 A 
ATOM     24  C   LIG    1       15.131   7.596  -1.293  0.00  0.00    +0.003 A 
ATOM     25  C   LIG    1       15.859   8.771  -1.294  0.00  0.00    +0.000 A 
ENDBRANCH  19  23
ENDBRANCH  18  19
ENDBRANCH  17  18
ENDBRANCH  16  17
ENDBRANCH  15  16
ENDBRANCH  14  15
ENDBRANCH   1  14
TORSDOF 9
