REMARK  Name = ZINC04026402
REMARK                            x       y       z     vdW  Elec       q    Type
REMARK                         _______ _______ _______ _____ _____    ______ ____
ROOT
ATOM      1  C   LIG    1       -0.019   1.526   0.010  0.00  0.00    +0.014 C 
ATOM      2  C   LIG    1        0.002  -0.004   0.002  0.00  0.00    -0.002 C 
ATOM      3  C   LIG    1       -1.417  -0.541   0.069  0.00  0.00    +0.014 C 
ATOM      4  C   LIG    1       -2.108   0.148   1.256  0.00  0.00    +0.032 C 
ATOM      5  C   LIG    1       -1.271   0.030   2.514  0.00  0.00    -0.063 C 
ATOM      6  C   LIG    1       -1.907  -0.257   3.649  0.00  0.00    -0.044 C 
ATOM      7  C   LIG    1       -3.405  -0.460   3.662  0.00  0.00    +0.043 C 
ATOM      8  C   LIG    1       -3.727  -1.664   4.552  0.00  0.00    +0.083 C 
ATOM      9  C   LIG    1       -3.042  -1.518   5.884  0.00  0.00    +0.157 C 
ATOM     10  C   LIG    1       -1.766  -0.938   5.989  0.00  0.00    +0.050 C 
ATOM     11  O   LIG    1       -3.602  -1.910   6.888  0.00  0.00    -0.293 OA
ATOM     12  C   LIG    1       -1.185  -0.358   4.917  0.00  0.00    -0.041 C 
ATOM     13  C   LIG    1        0.211   0.212   4.980  0.00  0.00    +0.036 C 
ATOM     14  C   LIG    1        0.946  -0.217   3.711  0.00  0.00    +0.013 C 
ATOM     15  C   LIG    1        0.221   0.240   2.457  0.00  0.00    +0.019 C 
ATOM     16  C   LIG    1        0.858  -0.507  -1.159  0.00  0.00    +0.121 C 
ATOM     17  C   LIG    1        2.298  -0.600  -0.600  0.00  0.00    +0.032 C 
ATOM     18  C   LIG    1        2.211  -0.220   0.902  0.00  0.00    +0.007 C 
ATOM     19  C   LIG    1        0.750  -0.530   1.255  0.00  0.00    +0.005 C 
ENDROOT
BRANCH  16  20
ATOM     20  O   LIG    1        0.808   0.419  -2.247  0.00  0.00    -0.391 OA
ATOM     21  H   LIG    1        1.334   0.152  -3.014  0.00  0.00    +0.210 HD
ENDBRANCH  16  20
TORSDOF 1
