REMARK  Name = ZINC04062977
REMARK                            x       y       z     vdW  Elec       q    Type
REMARK                         _______ _______ _______ _____ _____    ______ ____
ROOT
ATOM      1  C   LIG    1       -0.006  -2.813  -4.924  0.00  0.00    +0.100 C 
ENDROOT
BRANCH   1   2
ATOM      2  C   LIG    1       -1.330  -2.738  -5.640  0.00  0.00    +0.091 A 
ATOM      3  C   LIG    1       -1.607  -3.599  -6.666  0.00  0.00    +0.138 A 
ATOM      4  C   LIG    1       -2.913  -3.484  -7.332  0.00  0.00    +0.059 A 
ATOM      5  C   LIG    1       -3.262  -4.332  -8.386  0.00  0.00    +0.015 A 
ATOM      6  C   LIG    1       -4.493  -4.198  -8.988  0.00  0.00    +0.001 A 
ATOM      7  C   LIG    1       -5.384  -3.229  -8.551  0.00  0.00    +0.004 A 
ATOM      8  C   LIG    1       -5.053  -2.385  -7.512  0.00  0.00    +0.047 A 
ATOM      9  C   LIG    1       -3.816  -2.503  -6.891  0.00  0.00    +0.143 A 
ATOM     10  O   LIG    1       -3.475  -1.687  -5.871  0.00  0.00    -0.422 OA
ATOM     11  C   LIG    1       -2.288  -1.787  -5.253  0.00  0.00    +0.345 A 
ATOM     12  O   LIG    1       -2.031  -1.028  -4.335  0.00  0.00    -0.245 OA
BRANCH   3  13
ATOM     13  O   LIG    1       -0.705  -4.529  -7.056  0.00  0.00    -0.506 OA
ATOM     14  H   LIG    1        0.123  -4.589  -6.622  0.00  0.00    +0.292 HD
ENDBRANCH   3  13
ENDBRANCH   1   2
BRANCH   1  15
ATOM     15  C   LIG    1        1.106  -2.501  -5.892  0.00  0.00    +0.091 A 
ATOM     16  C   LIG    1        0.869  -1.704  -6.978  0.00  0.00    +0.138 A 
ATOM     17  C   LIG    1        1.988  -1.430  -7.891  0.00  0.00    +0.059 A 
ATOM     18  C   LIG    1        1.817  -0.624  -9.019  0.00  0.00    +0.015 A 
ATOM     19  C   LIG    1        2.886  -0.387  -9.855  0.00  0.00    +0.001 A 
ATOM     20  C   LIG    1        4.127  -0.943  -9.580  0.00  0.00    +0.004 A 
ATOM     21  C   LIG    1        4.309  -1.740  -8.470  0.00  0.00    +0.047 A 
ATOM     22  C   LIG    1        3.244  -1.992  -7.614  0.00  0.00    +0.143 A 
ATOM     23  O   LIG    1        3.406  -2.770  -6.522  0.00  0.00    -0.422 OA
ATOM     24  C   LIG    1        2.392  -3.022  -5.679  0.00  0.00    +0.345 A 
ATOM     25  O   LIG    1        2.591  -3.726  -4.705  0.00  0.00    -0.245 OA
BRANCH  16  26
ATOM     26  O   LIG    1       -0.359  -1.184  -7.205  0.00  0.00    -0.506 OA
ATOM     27  H   LIG    1       -0.413  -0.636  -8.000  0.00  0.00    +0.292 HD
ENDBRANCH  16  26
ENDBRANCH   1  15
BRANCH   1  31
ATOM     28  C   LIG    1        0.049   0.023  -1.727  0.00  0.00    +0.029 A 
ATOM     29  C   LIG    1       -0.270  -1.305  -1.474  0.00  0.00    +0.023 A 
ATOM     30  C   LIG    1       -0.287  -2.219  -2.510  0.00  0.00    +0.006 A 
ATOM     31  C   LIG    1        0.013  -1.813  -3.797  0.00  0.00    -0.035 A 
ATOM     32  C   LIG    1        0.331  -0.491  -4.052  0.00  0.00    +0.006 A 
ATOM     33  C   LIG    1        0.345   0.429  -3.023  0.00  0.00    +0.023 A 
BRANCH  28  35
ATOM     34  C   LIG    1        0.398   2.351  -0.952  0.00  0.00    +0.129 C 
ATOM     35  N   LIG    1        0.067   0.950  -0.682  0.00  0.00    -0.336 N 
ATOM     36  C   LIG    1       -0.244   0.521   0.683  0.00  0.00    +0.129 C 
ENDBRANCH  28  35
ENDBRANCH   1  31
TORSDOF 6
