REMARK  Name = ZINC04006187
REMARK                            x       y       z     vdW  Elec       q    Type
REMARK                         _______ _______ _______ _____ _____    ______ ____
ROOT
ATOM      1  C   LIG    1       -7.941  -2.647   0.025  0.00  0.00    +0.001 A 
ATOM      2  C   LIG    1       -8.863  -1.618   0.035  0.00  0.00    +0.001 A 
ATOM      3  C   LIG    1       -8.438  -0.300   0.041  0.00  0.00    +0.012 A 
ATOM      4  C   LIG    1       -7.078  -0.011   0.035  0.00  0.00    +0.032 A 
ATOM      5  C   LIG    1       -6.139  -1.057   0.025  0.00  0.00    +0.014 A 
ATOM      6  C   LIG    1       -4.774  -0.473   0.022  0.00  0.00    +0.105 A 
ATOM      7  C   LIG    1       -4.890   0.930   0.030  0.00  0.00    +0.052 A 
ATOM      8  C   LIG    1       -3.729   1.690   0.029  0.00  0.00    +0.044 A 
ATOM      9  C   LIG    1       -2.504   1.004   0.019  0.00  0.00    +0.094 A 
ATOM     10  N   LIG    1       -2.494  -0.322   0.007  0.00  0.00    -0.149 NA
ATOM     11  N   LIG    1       -3.568  -1.024   0.013  0.00  0.00    -0.148 NA
ATOM     12  C   LIG    1       -6.332   1.270   0.039  0.00  0.00    +0.196 C 
ATOM     13  O   LIG    1       -6.811   2.385   0.048  0.00  0.00    -0.287 OA
ATOM     14  C   LIG    1       -6.583  -2.373   0.020  0.00  0.00    +0.011 A 
ENDROOT
BRANCH   9  15
ATOM     15  C   LIG    1       -1.228   1.758   0.017  0.00  0.00    +0.003 A 
ATOM     16  C   LIG    1       -1.239   3.152   0.029  0.00  0.00    +0.010 A 
ATOM     17  C   LIG    1       -0.049   3.849   0.021  0.00  0.00    +0.002 A 
ATOM     18  C   LIG    1        1.155   3.168   0.007  0.00  0.00    +0.015 A 
ATOM     19  C   LIG    1        1.173   1.784   0.000  0.00  0.00    +0.019 A 
ATOM     20 BR   LIG    1        2.824   0.861  -0.020  0.00  0.00    -0.050 Br
ATOM     21  C   LIG    1       -0.013   1.076   0.008  0.00  0.00    +0.025 A 
ENDBRANCH   9  15
TORSDOF 1
