REMARK  Name = ZINC03987101
REMARK                            x       y       z     vdW  Elec       q    Type
REMARK                         _______ _______ _______ _____ _____    ______ ____
ROOT
ATOM      1  C   LIG    1        1.355   1.797   0.426  0.00  0.00    +0.125 A 
ATOM      2  C   LIG    1        1.371   3.182   0.466  0.00  0.00    +0.059 A 
ATOM      3  C   LIG    1        0.202   3.883   0.761  0.00  0.00    +0.044 A 
ATOM      4  C   LIG    1       -0.980   3.186   1.016  0.00  0.00    +0.059 A 
ATOM      5  C   LIG    1       -0.989   1.802   0.970  0.00  0.00    +0.133 A 
ATOM      6  C   LIG    1        0.178   1.108   0.680  0.00  0.00    +0.092 A 
ENDROOT
BRANCH   3   7
ATOM      7  C   LIG    1        0.215   5.361   0.804  0.00  0.00    +0.250 C 
ATOM      8  N   LIG    1       -0.915   6.037   1.090  0.00  0.00    -0.261 N 
ATOM      9  H   LIG    1       -1.737   5.554   1.267  0.00  0.00    +0.157 HD
ATOM     10  O   LIG    1        1.246   5.966   0.582  0.00  0.00    -0.270 OA
BRANCH   8  11
ATOM     11  C   LIG    1       -0.903   7.425   1.130  0.00  0.00    +0.165 A 
ATOM     12  N   LIG    1        0.105   8.251   0.925  0.00  0.00    -0.233 NA
ATOM     13  C   LIG    1       -0.057   9.558   0.998  0.00  0.00    +0.120 A 
ATOM     14  C   LIG    1       -1.287  10.040   1.301  0.00  0.00    +0.068 A 
ATOM     15  S   LIG    1       -2.209   8.518   1.469  0.00  0.00    -0.061 S 
ENDBRANCH   8  11
ENDBRANCH   3   7
BRANCH   1  16
ATOM     16  O   LIG    1        2.493   1.113   0.139  0.00  0.00    -0.487 OA
BRANCH  16  18
ATOM     17  C   LIG    1        2.512  -0.877   1.510  0.00  0.00    +0.054 C 
ATOM     18  C   LIG    1        2.399  -0.313   0.093  0.00  0.00    +0.196 C 
BRANCH  18  19
ATOM     19  C   LIG    1        3.533  -0.871  -0.770  0.00  0.00    +0.200 C 
BRANCH  19  20
ATOM     20  O   LIG    1        4.788  -0.595  -0.145  0.00  0.00    -0.391 OA
ATOM     21  H   LIG    1        5.553  -0.921  -0.638  0.00  0.00    +0.210 HD
ENDBRANCH  19  20
ENDBRANCH  18  19
ENDBRANCH  16  18
ENDBRANCH   1  16
BRANCH   5  22
ATOM     22  O   LIG    1       -2.140   1.122   1.213  0.00  0.00    -0.456 OA
BRANCH  22  23
ATOM     23  C   LIG    1       -3.073   1.075   0.226  0.00  0.00    +0.129 A 
ATOM     24  C   LIG    1       -2.793   1.613  -1.022  0.00  0.00    +0.048 A 
ATOM     25  C   LIG    1       -3.742   1.559  -2.024  0.00  0.00    +0.030 A 
ATOM     26  C   LIG    1       -4.974   0.980  -1.782  0.00  0.00    +0.088 A 
ATOM     27  C   LIG    1       -5.258   0.449  -0.537  0.00  0.00    +0.030 A 
ATOM     28  C   LIG    1       -4.311   0.495   0.467  0.00  0.00    +0.048 A 
BRANCH  26  29
ATOM     29  S   LIG    1       -6.184   0.919  -3.061  0.00  0.00    -0.006 S 
ATOM     30  C   LIG    1       -7.132   2.455  -2.880  0.00  0.00    +0.200 C 
ATOM     31  O   LIG    1       -6.998  -0.200  -2.736  0.00  0.00    -0.170 OA
ATOM     32  O   LIG    1       -5.437   0.945  -4.269  0.00  0.00    -0.170 OA
ENDBRANCH  26  29
ENDBRANCH  22  23
ENDBRANCH   5  22
TORSDOF 9
