REMARK  Name = ZINC03990028
REMARK                            x       y       z     vdW  Elec       q    Type
REMARK                         _______ _______ _______ _____ _____    ______ ____
ROOT
ATOM      1  C   LIG    1       -1.266  -0.763   0.010  0.00  0.00    +0.244 C 
ATOM      2  N   LIG    1       -1.244  -2.111   0.003  0.00  0.00    -0.310 N 
ATOM      3  H   LIG    1       -0.397  -2.582  -0.008  0.00  0.00    +0.149 HD
ATOM      4  O   LIG    1       -2.328  -0.172   0.023  0.00  0.00    -0.270 OA
ENDROOT
BRANCH   2   5
ATOM      5  C   LIG    1       -2.501  -2.863   0.011  0.00  0.00    +0.060 C 
ATOM      6  C   LIG    1       -3.016  -3.017  -1.422  0.00  0.00    -0.056 C 
ATOM      7  N   LIG    1       -3.116  -4.436  -1.770  0.00  0.00    +0.381 N 
ATOM      8  H   LIG    1       -3.453  -4.510  -2.718  0.00  0.00    -0.082 HD
ATOM      9  C   LIG    1       -1.800  -5.077  -1.706  0.00  0.00    -0.078 C 
ATOM     10  C   LIG    1       -1.245  -4.992  -0.282  0.00  0.00    -0.014 C 
ATOM     11  C   LIG    1       -4.065  -5.118  -0.887  0.00  0.00    -0.078 C 
ATOM     12  C   LIG    1       -3.585  -5.033   0.567  0.00  0.00    -0.014 C 
ATOM     13  C   LIG    1       -2.262  -4.257   0.606  0.00  0.00    +0.004 C 
ENDBRANCH   2   5
BRANCH   1  20
ATOM     14  C   LIG    1       -0.017   1.392   0.010  0.00  0.00    +0.014 A 
ATOM     15  C   LIG    1        1.169   2.095   0.002  0.00  0.00    +0.021 A 
ATOM     16  C   LIG    1        2.378   1.419  -0.013  0.00  0.00    +0.041 A 
ATOM     17 CL   LIG    1        3.868   2.310  -0.022  0.00  0.00    -0.084 Cl
ATOM     18  C   LIG    1        2.403   0.034  -0.021  0.00  0.00    +0.021 A 
ATOM     19  C   LIG    1        1.224  -0.680  -0.014  0.00  0.00    +0.014 A 
ATOM     20  C   LIG    1        0.002  -0.004   0.002  0.00  0.00    +0.037 A 
ENDBRANCH   1  20
TORSDOF 2
