REMARK  Name = ZINC03960035
REMARK                            x       y       z     vdW  Elec       q    Type
REMARK                         _______ _______ _______ _____ _____    ______ ____
ROOT
ATOM      1  N   LIG    1       -0.528   0.772   2.414  0.00  0.00    -0.302 N 
ATOM      2  H   LIG    1       -0.258  -0.152   2.299  0.00  0.00    +0.150 HD
ATOM      3  C   LIG    1       -0.663   1.286   3.653  0.00  0.00    +0.325 C 
ATOM      4  O   LIG    1       -1.000   2.442   3.797  0.00  0.00    -0.262 OA
ENDROOT
BRANCH   1   8
ATOM      5  C   LIG    1       -2.243   1.875  -0.703  0.00  0.00    +0.002 C 
ATOM      6  C   LIG    1       -0.809   1.622  -1.200  0.00  0.00    +0.002 C 
ATOM      7  C   LIG    1       -0.013   1.086   0.008  0.00  0.00    +0.022 C 
ATOM      8  C   LIG    1       -0.789   1.611   1.242  0.00  0.00    +0.073 C 
ATOM      9  C   LIG    1       -2.268   1.485   0.789  0.00  0.00    +0.022 C 
ENDBRANCH   1   8
BRANCH   3  10
ATOM     10  P   LIG    1       -0.340   0.248   5.105  0.00  0.00    +0.412 P 
ATOM     11  O   LIG    1       -1.259  -0.912   5.097  0.00  0.00    -0.249 OA
BRANCH  10  12
ATOM     12  O   LIG    1       -0.575   1.110   6.444  0.00  0.00    -0.318 OA
ATOM     13  H   LIG    1       -1.493   1.424   6.469  0.00  0.00    +0.220 HD
ENDBRANCH  10  12
BRANCH  10  14
ATOM     14  O   LIG    1        1.183  -0.274   5.064  0.00  0.00    -0.318 OA
ATOM     15  H   LIG    1        1.325  -0.793   4.257  0.00  0.00    +0.220 HD
ENDBRANCH  10  14
ENDBRANCH   3  10
TORSDOF 4
