REMARK  Name = ZINC03925398
REMARK                            x       y       z     vdW  Elec       q    Type
REMARK                         _______ _______ _______ _____ _____    ______ ____
ROOT
ATOM      1  C   LIG    1       -5.364   1.733  -1.052  0.00  0.00    +0.104 C 
ENDROOT
BRANCH   1   2
ATOM      2  N   LIG    1       -6.135   1.655  -2.296  0.00  0.00    -0.314 N 
ATOM      3  H   LIG    1       -6.210   0.811  -2.768  0.00  0.00    +0.149 HD
ATOM      4  C   LIG    1       -6.739   2.757  -2.783  0.00  0.00    +0.234 C 
ATOM      5  O   LIG    1       -6.645   3.812  -2.193  0.00  0.00    -0.274 OA
BRANCH   4   6
ATOM      6  C   LIG    1       -7.533   2.677  -4.062  0.00  0.00    +0.174 C 
BRANCH   6   7
ATOM      7  N   LIG    1       -8.456   3.812  -4.136  0.00  0.00    -0.269 N 
ATOM      8  H   LIG    1       -9.412   3.656  -4.190  0.00  0.00    +0.153 HD
ATOM      9  C   LIG    1       -7.978   5.072  -4.127  0.00  0.00    +0.401 C 
ATOM     10  O   LIG    1       -6.780   5.266  -4.059  0.00  0.00    -0.226 OA
BRANCH   9  11
ATOM     11  O   LIG    1       -8.826   6.115  -4.194  0.00  0.00    -0.454 OA
ATOM     12  C   LIG    1       -8.250   7.422  -4.181  0.00  0.00    +0.282 C 
ENDBRANCH   9  11
ENDBRANCH   6   7
BRANCH   6  13
ATOM     13  C   LIG    1       -6.579   2.718  -5.258  0.00  0.00    +0.078 C 
BRANCH  13  14
ATOM     14  C   LIG    1       -5.629   1.550  -5.182  0.00  0.00    -0.038 A 
ATOM     15  C   LIG    1       -6.121   0.259  -5.163  0.00  0.00    +0.004 A 
ATOM     16  C   LIG    1       -5.250  -0.812  -5.094  0.00  0.00    +0.000 A 
ATOM     17  C   LIG    1       -3.886  -0.591  -5.044  0.00  0.00    +0.000 A 
ATOM     18  C   LIG    1       -3.393   0.700  -5.064  0.00  0.00    +0.000 A 
ATOM     19  C   LIG    1       -4.265   1.771  -5.138  0.00  0.00    +0.004 A 
ENDBRANCH  13  14
BRANCH  13  20
ATOM     20  C   LIG    1       -7.372   2.638  -6.536  0.00  0.00    -0.038 A 
ATOM     21  C   LIG    1       -8.321   1.647  -6.700  0.00  0.00    +0.004 A 
ATOM     22  C   LIG    1       -9.049   1.574  -7.873  0.00  0.00    +0.000 A 
ATOM     23  C   LIG    1       -8.828   2.492  -8.882  0.00  0.00    +0.000 A 
ATOM     24  C   LIG    1       -7.879   3.484  -8.718  0.00  0.00    +0.000 A 
ATOM     25  C   LIG    1       -7.154   3.560  -7.543  0.00  0.00    +0.004 A 
ENDBRANCH  13  20
ENDBRANCH   6  13
ENDBRANCH   4   6
ENDBRANCH   1   2
BRANCH   1  26
ATOM     26  C   LIG    1       -4.787   0.354  -0.724  0.00  0.00    +0.019 C 
BRANCH  26  27
ATOM     27  C   LIG    1       -3.981   0.435   0.575  0.00  0.00    +0.003 C 
BRANCH  27  28
ATOM     28  C   LIG    1       -3.404  -0.943   0.904  0.00  0.00    +0.023 C 
BRANCH  28  29
ATOM     29  C   LIG    1       -2.599  -0.862   2.202  0.00  0.00    +0.105 C 
BRANCH  29  30
ATOM     30  C   LIG    1       -2.138  -2.265   2.605  0.00  0.00    +0.176 C 
BRANCH  30  31
ATOM     31  O   LIG    1       -1.443  -2.870   1.512  0.00  0.00    -0.393 OA
ATOM     32  H   LIG    1       -1.122  -3.763   1.697  0.00  0.00    +0.209 HD
ENDBRANCH  30  31
ENDBRANCH  29  30
BRANCH  29  33
ATOM     33  N   LIG    1       -1.429  -0.004   1.998  0.00  0.00    -0.171 NA
BRANCH  33  34
ATOM     34  S   LIG    1       -1.256   1.384   2.886  0.00  0.00    +0.061 S 
ATOM     35  O   LIG    1        0.101   1.784   2.753  0.00  0.00    -0.153 OA
ATOM     36  O   LIG    1       -1.857   1.136   4.149  0.00  0.00    -0.153 OA
BRANCH  34  37
ATOM     37  C   LIG    1       -2.226   2.628   2.101  0.00  0.00    +0.106 A 
ATOM     38  C   LIG    1       -1.699   3.352   1.048  0.00  0.00    +0.030 A 
ATOM     39  C   LIG    1       -2.456   4.328   0.431  0.00  0.00    +0.024 A 
ATOM     40  C   LIG    1       -3.750   4.582   0.870  0.00  0.00    +0.025 A 
ATOM     41  C   LIG    1       -4.276   3.853   1.929  0.00  0.00    +0.024 A 
ATOM     42  C   LIG    1       -3.515   2.874   2.537  0.00  0.00    +0.030 A 
BRANCH  40  43
ATOM     43  N   LIG    1       -4.519   5.569   0.249  0.00  0.00    -0.358 N 
ATOM     44  H   LIG    1       -5.421   5.745   0.556  0.00  0.00    +0.142 HD
ATOM     45  H   LIG    1       -4.150   6.078  -0.490  0.00  0.00    +0.142 HD
ENDBRANCH  40  43
ENDBRANCH  34  37
ENDBRANCH  33  34
BRANCH  33  46
ATOM     46  C   LIG    1       -0.413  -0.373   1.010  0.00  0.00    +0.113 C 
BRANCH  46  48
ATOM     47  C   LIG    1        0.754  -1.838   2.663  0.00  0.00    +0.008 C 
ATOM     48  C   LIG    1        0.915  -0.644   1.720  0.00  0.00    -0.001 C 
ATOM     49  C   LIG    1        1.995  -0.956   0.682  0.00  0.00    +0.008 C 
ENDBRANCH  46  48
ENDBRANCH  33  46
ENDBRANCH  29  33
ENDBRANCH  28  29
ENDBRANCH  27  28
ENDBRANCH  26  27
ENDBRANCH   1  26
TORSDOF 19
