REMARK  Name = ZINC03959835
REMARK                            x       y       z     vdW  Elec       q    Type
REMARK                         _______ _______ _______ _____ _____    ______ ____
ROOT
ATOM      1  C   LIG    1        2.392   4.200   0.092  0.00  0.00    +0.069 A 
ATOM      2  C   LIG    1        3.631   3.570   0.076  0.00  0.00    +0.027 A 
ATOM      3  C   LIG    1        4.786   4.317   0.152  0.00  0.00    +0.015 A 
ATOM      4  C   LIG    1        4.713   5.708   0.256  0.00  0.00    +0.040 A 
ATOM      5  C   LIG    1        3.467   6.339   0.277  0.00  0.00    +0.053 A 
ATOM      6  C   LIG    1        2.314   5.587   0.196  0.00  0.00    +0.145 A 
ATOM      7  F   LIG    1        1.108   6.196   0.216  0.00  0.00    -0.204 F 
ENDROOT
BRANCH   4   8
ATOM      8  C   LIG    1        5.950   6.509   0.343  0.00  0.00    +0.228 A 
ATOM      9  N   LIG    1        7.165   6.020   0.332  0.00  0.00    -0.209 NA
ATOM     10  C   LIG    1        8.050   7.045   0.429  0.00  0.00    +0.110 A 
ATOM     11  C   LIG    1        9.444   7.115   0.464  0.00  0.00    +0.035 A 
ATOM     12  C   LIG    1       10.064   8.340   0.570  0.00  0.00    -0.035 A 
ATOM     13  C   LIG    1        9.312   9.503   0.642  0.00  0.00    +0.008 A 
ATOM     14  C   LIG    1        7.934   9.450   0.609  0.00  0.00    +0.049 A 
ATOM     15  C   LIG    1        7.293   8.226   0.502  0.00  0.00    +0.156 A 
ATOM     16  O   LIG    1        5.995   7.852   0.440  0.00  0.00    -0.435 OA
BRANCH  12  17
ATOM     17  C   LIG    1       11.569   8.417   0.608  0.00  0.00    +0.155 C 
BRANCH  17  18
ATOM     18  C   LIG    1       12.100   8.551  -0.795  0.00  0.00    +0.309 C 
ATOM     19  O   LIG    1       11.336   8.580  -1.731  0.00  0.00    -0.251 OA
BRANCH  18  20
ATOM     20  O   LIG    1       13.423   8.637  -1.007  0.00  0.00    -0.480 OA
ATOM     21  H   LIG    1       14.016   8.614  -0.281  0.00  0.00    +0.295 HD
ENDBRANCH  18  20
ENDBRANCH  17  18
ENDBRANCH  12  17
ENDBRANCH   4   8
BRANCH   1  23
ATOM     22  C   LIG    1        1.167   2.225   0.587  0.00  0.00    +0.241 C 
ATOM     23  N   LIG    1        1.223   3.441   0.009  0.00  0.00    -0.280 N 
ATOM     24  H   LIG    1        0.451   3.789  -0.465  0.00  0.00    +0.155 HD
ATOM     25  O   LIG    1        2.160   1.754   1.111  0.00  0.00    -0.270 OA
BRANCH  22  27
ATOM     26  C   LIG    1       -0.143   0.254   1.165  0.00  0.00    +0.013 C 
ATOM     27  C   LIG    1       -0.087   1.471   0.586  0.00  0.00    +0.068 C 
BRANCH  26  34
ATOM     28  C   LIG    1       -2.549   0.037   0.568  0.00  0.00    +0.009 A 
ATOM     29  C   LIG    1       -3.726  -0.681   0.567  0.00  0.00    +0.016 A 
ATOM     30  C   LIG    1       -3.780  -1.930   1.162  0.00  0.00    +0.018 A 
ATOM     31 BR   LIG    1       -5.401  -2.904   1.163  0.00  0.00    -0.050 Br
ATOM     32  C   LIG    1       -2.652  -2.470   1.758  0.00  0.00    +0.016 A 
ATOM     33  C   LIG    1       -1.467  -1.766   1.763  0.00  0.00    +0.009 A 
ATOM     34  C   LIG    1       -1.405  -0.504   1.163  0.00  0.00    -0.025 A 
ENDBRANCH  26  34
ENDBRANCH  22  27
ENDBRANCH   1  23
TORSDOF 7
