REMARK  Name = ZINC03872809
REMARK                            x       y       z     vdW  Elec       q    Type
REMARK                         _______ _______ _______ _____ _____    ______ ____
ROOT
ATOM      1  C   LIG    1       -1.412  -0.526   0.013  0.00  0.00    -0.041 A 
ATOM      2  C   LIG    1       -1.763  -1.314  -1.063  0.00  0.00    +0.004 A 
ATOM      3  C   LIG    1       -2.980  -1.934  -1.336  0.00  0.00    +0.004 A 
ATOM      4  C   LIG    1       -4.141  -1.916  -0.596  0.00  0.00    +0.054 A 
ATOM      5  C   LIG    1       -4.388  -1.264   0.625  0.00  0.00    +0.220 A 
ATOM      6  C   LIG    1       -3.498  -0.466   1.388  0.00  0.00    +0.164 A 
ATOM      7  O   LIG    1       -5.513  -1.402   1.087  0.00  0.00    -0.284 OA
ATOM      8  C   LIG    1       -2.182  -0.150   1.110  0.00  0.00    +0.053 A 
ENDROOT
BRANCH   1  10
ATOM      9  C   LIG    1       -0.019   1.526   0.010  0.00  0.00    +0.012 C 
ATOM     10  C   LIG    1        0.002  -0.004   0.002  0.00  0.00    +0.013 C 
ATOM     11  C   LIG    1        0.742  -0.511   1.242  0.00  0.00    +0.012 C 
ENDBRANCH   1  10
BRANCH   6  12
ATOM     12  O   LIG    1       -4.000   0.047   2.537  0.00  0.00    -0.503 OA
ATOM     13  H   LIG    1       -4.887  -0.131   2.781  0.00  0.00    +0.292 HD
ENDBRANCH   6  12
TORSDOF 2
