REMARK  Name = ZINC03894450
REMARK                            x       y       z     vdW  Elec       q    Type
REMARK                         _______ _______ _______ _____ _____    ______ ____
ROOT
ATOM      1  C   LIG    1        2.113  -0.526   1.194  0.00  0.00    +0.125 C 
ATOM      2  C   LIG    1        2.806  -0.814   2.379  0.00  0.00    +0.038 C 
ATOM      3  C   LIG    1        4.152  -1.020   2.344  0.00  0.00    -0.007 C 
ATOM      4  C   LIG    1        4.918  -1.331   3.604  0.00  0.00    +0.008 C 
ATOM      5  C   LIG    1        4.809  -0.936   1.099  0.00  0.00    +0.011 C 
ATOM      6  C   LIG    1        6.194  -1.138   0.994  0.00  0.00    +0.027 C 
ATOM      7  C   LIG    1        6.801  -1.047  -0.239  0.00  0.00    +0.073 C 
ATOM      8  C   LIG    1        6.048  -0.756  -1.382  0.00  0.00    +0.024 C 
ATOM      9  C   LIG    1        4.706  -0.555  -1.304  0.00  0.00    +0.021 C 
ATOM     10  C   LIG    1        4.053  -0.641  -0.061  0.00  0.00    +0.059 C 
ATOM     11  N   LIG    1        2.732  -0.454   0.034  0.00  0.00    -0.298 NA
ATOM     12  H   LIG    1        2.220  -0.257  -0.766  0.00  0.00    +0.124 HD
ENDROOT
BRANCH   7  13
ATOM     13  N   LIG    1        8.182  -1.248  -0.349  0.00  0.00    -0.312 N 
ATOM     14  H   LIG    1        8.693  -0.753  -1.009  0.00  0.00    +0.149 HD
ATOM     15  C   LIG    1        8.801  -2.130   0.460  0.00  0.00    +0.216 C 
ATOM     16  O   LIG    1        8.151  -2.818   1.217  0.00  0.00    -0.276 OA
BRANCH  15  17
ATOM     17  C   LIG    1       10.302  -2.260   0.424  0.00  0.00    +0.075 C 
ATOM     18  C   LIG    1       10.744  -2.674  -0.981  0.00  0.00    +0.013 C 
ATOM     19  C   LIG    1       10.107  -4.018  -1.341  0.00  0.00    +0.004 C 
ATOM     20  C   LIG    1       10.551  -5.080  -0.333  0.00  0.00    -0.014 C 
ATOM     21  C   LIG    1        9.914  -6.423  -0.694  0.00  0.00    +0.007 C 
ATOM     22  C   LIG    1       10.109  -4.666   1.072  0.00  0.00    +0.004 C 
ATOM     23  C   LIG    1       10.746  -3.322   1.432  0.00  0.00    +0.013 C 
ENDBRANCH  15  17
ENDBRANCH   7  13
BRANCH   1  24
ATOM     24  N   LIG    1        0.742  -0.318   1.244  0.00  0.00    -0.288 NA
BRANCH  24  26
ATOM     25  C   LIG    1       -0.037   1.491  -0.205  0.00  0.00    +0.020 C 
ATOM     26  C   LIG    1        0.000  -0.022   0.016  0.00  0.00    +0.082 C 
ENDBRANCH  24  26
BRANCH  24  27
ATOM     27  C   LIG    1        0.036  -0.395   2.526  0.00  0.00    +0.082 C 
ATOM     28  C   LIG    1       -0.431  -1.832   2.766  0.00  0.00    +0.020 C 
ENDBRANCH  24  27
ENDBRANCH   1  24
TORSDOF 5
