REMARK  Name = ZINC03944422
REMARK                            x       y       z     vdW  Elec       q    Type
REMARK                         _______ _______ _______ _____ _____    ______ ____
ROOT
ATOM      1  C   LIG    1       -6.350  -0.862   3.026  0.00  0.00    +0.080 C 
ENDROOT
BRANCH   1   3
ATOM      2  C   LIG    1       -7.180  -2.831   1.856  0.00  0.00    +0.234 C 
ATOM      3  N   LIG    1       -6.205  -2.250   2.583  0.00  0.00    -0.311 N 
ATOM      4  H   LIG    1       -5.300  -2.819   2.843  0.00  0.00    +0.149 HD
ATOM      5  O   LIG    1       -8.138  -2.180   1.497  0.00  0.00    -0.274 OA
BRANCH   2   6
ATOM      6  C   LIG    1       -7.079  -4.289   1.488  0.00  0.00    +0.163 C 
BRANCH   6   9
ATOM      7  N   LIG    1       -9.863  -6.449   0.437  0.00  0.00    -0.283 N 
ATOM      8  C   LIG    1       -8.694  -6.038   0.968  0.00  0.00    +0.303 C 
ATOM      9  N   LIG    1       -8.349  -4.736   0.910  0.00  0.00    -0.288 N 
ATOM     10  H   LIG    1       -9.020  -4.010   0.429  0.00  0.00    +0.151 HD
ATOM     11  O   LIG    1       -7.952  -6.841   1.500  0.00  0.00    -0.253 OA
ATOM     12  C   LIG    1      -10.757  -5.481  -0.204  0.00  0.00    +0.134 C 
BRANCH   7  13
ATOM     13  C   LIG    1      -10.238  -7.864   0.499  0.00  0.00    +0.164 C 
BRANCH  13  16
ATOM     14  C   LIG    1      -11.054  -8.599   4.009  0.00  0.00    +0.081 A 
ATOM     15  N   LIG    1      -10.391  -8.378   2.897  0.00  0.00    -0.247 NA
ATOM     16  C   LIG    1      -11.014  -8.121   1.766  0.00  0.00    +0.066 A 
ATOM     17  C   LIG    1      -12.371  -8.101   1.766  0.00  0.00    +0.071 A 
ATOM     18  S   LIG    1      -12.704  -8.462   3.485  0.00  0.00    -0.080 S 
BRANCH  14  20
ATOM     19  C   LIG    1      -10.994  -7.824   6.364  0.00  0.00    +0.014 C 
ATOM     20  C   LIG    1      -10.520  -8.901   5.385  0.00  0.00    +0.038 C 
ATOM     21  C   LIG    1      -11.033 -10.268   5.843  0.00  0.00    +0.014 C 
ENDBRANCH  14  20
ENDBRANCH  13  16
ENDBRANCH   7  13
ENDBRANCH   6   9
BRANCH   6  22
ATOM     22  C   LIG    1       -5.957  -4.481   0.466  0.00  0.00    +0.012 C 
ATOM     23  C   LIG    1       -5.966  -5.927  -0.035  0.00  0.00    +0.009 C 
ATOM     24  C   LIG    1       -4.610  -4.178   1.123  0.00  0.00    +0.009 C 
ENDBRANCH   6  22
ENDBRANCH   2   6
ENDBRANCH   1   3
BRANCH   1  25
ATOM     25  C   LIG    1       -5.030  -0.118   2.814  0.00  0.00    +0.055 C 
BRANCH  25  26
ATOM     26  C   LIG    1       -4.752   0.009   1.315  0.00  0.00    +0.137 C 
BRANCH  26  27
ATOM     27  O   LIG    1       -4.636  -1.294   0.740  0.00  0.00    -0.390 OA
ATOM     28  H   LIG    1       -4.435  -1.404  -0.336  0.00  0.00    +0.210 HD
ENDBRANCH  26  27
BRANCH  26  29
ATOM     29  C   LIG    1       -3.446   0.778   1.102  0.00  0.00    +0.109 C 
BRANCH  29  30
ATOM     30  N   LIG    1       -2.345   0.057   1.744  0.00  0.00    -0.275 N 
ATOM     31  H   LIG    1       -2.418  -1.028   1.905  0.00  0.00    +0.152 HD
ATOM     32  C   LIG    1       -1.241   0.724   2.137  0.00  0.00    +0.401 C 
ATOM     33  O   LIG    1       -1.160   1.923   1.958  0.00  0.00    -0.226 OA
BRANCH  32  34
ATOM     34  O   LIG    1       -0.228   0.061   2.727  0.00  0.00    -0.445 OA
BRANCH  34  35
ATOM     35  C   LIG    1        0.929   0.843   3.124  0.00  0.00    +0.278 C 
BRANCH  35  36
ATOM     36  C   LIG    1        1.951  -0.061   3.762  0.00  0.00    +0.046 A 
ATOM     37  C   LIG    1        2.974  -0.750   3.195  0.00  0.00    +0.125 A 
ATOM     38  N   LIG    1        3.743  -1.483   3.973  0.00  0.00    -0.255 NA
ATOM     39  C   LIG    1        3.536  -1.556   5.268  0.00  0.00    +0.156 A 
ATOM     40  S   LIG    1        2.159  -0.519   5.477  0.00  0.00    -0.077 S 
ENDBRANCH  35  36
ENDBRANCH  34  35
ENDBRANCH  32  34
ENDBRANCH  29  30
BRANCH  29  41
ATOM     41  C   LIG    1       -3.168   0.905  -0.397  0.00  0.00    +0.060 C 
BRANCH  41  42
ATOM     42  C   LIG    1       -1.950   1.766  -0.611  0.00  0.00    -0.046 A 
ATOM     43  C   LIG    1       -0.695   1.188  -0.662  0.00  0.00    +0.004 A 
ATOM     44  C   LIG    1        0.422   1.978  -0.863  0.00  0.00    +0.000 A 
ATOM     45  C   LIG    1        0.285   3.345  -1.008  0.00  0.00    +0.000 A 
ATOM     46  C   LIG    1       -0.970   3.924  -0.952  0.00  0.00    +0.000 A 
ATOM     47  C   LIG    1       -2.086   3.135  -0.750  0.00  0.00    +0.004 A 
ENDBRANCH  41  42
ENDBRANCH  29  41
ENDBRANCH  26  29
ENDBRANCH  25  26
ENDBRANCH   1  25
BRANCH   1  48
ATOM     48  C   LIG    1       -6.716  -0.837   4.511  0.00  0.00    +0.057 C 
BRANCH  48  49
ATOM     49  C   LIG    1       -8.074  -1.461   4.704  0.00  0.00    -0.046 A 
ATOM     50  C   LIG    1       -9.210  -0.675   4.654  0.00  0.00    +0.004 A 
ATOM     51  C   LIG    1      -10.456  -1.249   4.826  0.00  0.00    +0.000 A 
ATOM     52  C   LIG    1      -10.565  -2.607   5.059  0.00  0.00    +0.000 A 
ATOM     53  C   LIG    1       -9.429  -3.392   5.115  0.00  0.00    +0.000 A 
ATOM     54  C   LIG    1       -8.184  -2.819   4.938  0.00  0.00    +0.004 A 
ENDBRANCH  48  49
ENDBRANCH   1  48
TORSDOF 19
