REMARK  Name = ZINC03885905
REMARK                            x       y       z     vdW  Elec       q    Type
REMARK                         _______ _______ _______ _____ _____    ______ ____
ROOT
ATOM      1  C   LIG    1        2.380   1.416  -0.013  0.00  0.00    +0.002 A 
ATOM      2  C   LIG    1        1.171   2.087   0.002  0.00  0.00    +0.003 A 
ATOM      3  C   LIG    1       -0.017   1.379   0.010  0.00  0.00    +0.040 A 
ATOM      4  C   LIG    1        0.002  -0.004   0.002  0.00  0.00    +0.145 A 
ATOM      5  F   LIG    1       -1.158  -0.697   0.009  0.00  0.00    -0.204 F 
ATOM      6  C   LIG    1        1.216  -0.680  -0.013  0.00  0.00    +0.080 A 
ATOM      7  C   LIG    1        2.405   0.035  -0.021  0.00  0.00    +0.027 A 
ENDROOT
BRANCH   6   8
ATOM      8  N   LIG    1        1.240  -2.083  -0.021  0.00  0.00    -0.201 N 
ATOM      9  C   LIG    1        1.237  -2.852  -1.125  0.00  0.00    +0.251 C 
ATOM     10  C   LIG    1        1.269  -4.271  -0.706  0.00  0.00    +0.073 C 
ATOM     11  C   LIG    1        1.282  -4.279   0.637  0.00  0.00    +0.073 C 
ATOM     12  O   LIG    1        1.214  -2.450  -2.270  0.00  0.00    -0.270 OA
ATOM     13  C   LIG    1        1.263  -2.865   1.073  0.00  0.00    +0.251 C 
ATOM     14  O   LIG    1        1.268  -2.476   2.223  0.00  0.00    -0.270 OA
ENDBRANCH   6   8
TORSDOF 1
