REMARK  Name = ZINC03954602
REMARK                            x       y       z     vdW  Elec       q    Type
REMARK                         _______ _______ _______ _____ _____    ______ ____
ROOT
ATOM      1  C   LIG    1        5.393   2.609  -0.035  0.00  0.00    +0.151 A 
ATOM      2  C   LIG    1        6.460   1.699  -0.045  0.00  0.00    +0.146 A 
ATOM      3  C   LIG    1        7.769   2.158  -0.059  0.00  0.00    +0.048 A 
ATOM      4  C   LIG    1        8.035   3.511  -0.055  0.00  0.00    +0.014 A 
ATOM      5  C   LIG    1        6.989   4.432  -0.041  0.00  0.00    +0.010 A 
ATOM      6  C   LIG    1        6.939   5.906  -0.033  0.00  0.00    +0.007 A 
ATOM      7  C   LIG    1        7.916   6.898  -0.036  0.00  0.00    +0.010 A 
ATOM      8  C   LIG    1        7.544   8.226  -0.026  0.00  0.00    +0.001 A 
ATOM      9  C   LIG    1        6.203   8.574  -0.012  0.00  0.00    +0.002 A 
ATOM     10  C   LIG    1        5.225   7.602  -0.008  0.00  0.00    +0.026 A 
ATOM     11  C   LIG    1        5.581   6.257  -0.018  0.00  0.00    +0.048 A 
ATOM     12  N   LIG    1        4.832   5.094  -0.017  0.00  0.00    -0.352 N 
ATOM     13  H   LIG    1        3.863   5.059  -0.009  0.00  0.00    +0.166 HD
ATOM     14  C   LIG    1        5.659   3.991  -0.031  0.00  0.00    +0.079 A 
ENDROOT
BRANCH   1  16
ATOM     15  N   LIG    1        3.871   0.891  -0.030  0.00  0.00    -0.149 NA
ATOM     16  N   LIG    1        4.110   2.159  -0.026  0.00  0.00    -0.143 NA
BRANCH  15  20
ATOM     17  C   LIG    1       -0.035  -0.479  -0.000  0.00  0.00    +0.061 A 
ATOM     18  C   LIG    1        0.223   0.893   0.005  0.00  0.00    +0.018 A 
ATOM     19  C   LIG    1        1.521   1.350  -0.005  0.00  0.00    +0.030 A 
ATOM     20  C   LIG    1        2.582   0.439  -0.020  0.00  0.00    +0.086 A 
ATOM     21  C   LIG    1        2.322  -0.935  -0.025  0.00  0.00    +0.030 A 
ATOM     22  C   LIG    1        1.023  -1.390  -0.015  0.00  0.00    +0.018 A 
BRANCH  17  26
ATOM     23  H   LIG    1       -3.369  -0.343   0.034  0.00  0.00    +0.301 HD
ATOM     24  N   LIG    1       -2.390  -0.055   0.026  0.00  0.00    -0.288 N 
ATOM     25  H   LIG    1       -2.149   0.943   0.029  0.00  0.00    +0.301 HD
ATOM     26  C   LIG    1       -1.431  -0.969   0.011  0.00  0.00    +0.266 C 
BRANCH  26  27
ATOM     27  N   LIG    1       -1.687  -2.323   0.006  0.00  0.00    -0.250 N 
ATOM     28  H   LIG    1       -2.602  -2.644   0.014  0.00  0.00    +0.288 HD
ATOM     29  H   LIG    1       -0.951  -2.955  -0.004  0.00  0.00    +0.288 HD
ENDBRANCH  26  27
ENDBRANCH  17  26
ENDBRANCH  15  20
ENDBRANCH   1  16
BRANCH   2  30
ATOM     30  O   LIG    1        6.210   0.365  -0.044  0.00  0.00    -0.505 OA
ATOM     31  H   LIG    1        6.131  -0.021  -0.927  0.00  0.00    +0.292 HD
ENDBRANCH   2  30
TORSDOF 5
