REMARK  Name = ZINC03873083
REMARK                            x       y       z     vdW  Elec       q    Type
REMARK                         _______ _______ _______ _____ _____    ______ ____
ROOT
ATOM      1  N   LIG    1        1.347  -2.684   1.485  0.00  0.00    -0.321 N 
ENDROOT
BRANCH   1   2
ATOM      2  C   LIG    1        2.529  -2.897   2.204  0.00  0.00    +0.031 A 
ATOM      3  C   LIG    1        3.513  -3.735   1.690  0.00  0.00    +0.027 A 
ATOM      4  C   LIG    1        4.681  -3.952   2.391  0.00  0.00    +0.048 A 
ATOM      5  C   LIG    1        4.884  -3.334   3.616  0.00  0.00    +0.131 A 
ATOM      6  C   LIG    1        3.897  -2.487   4.142  0.00  0.00    +0.102 A 
ATOM      7  C   LIG    1        2.717  -2.269   3.422  0.00  0.00    +0.041 A 
BRANCH   5   8
ATOM      8  O   LIG    1        6.033  -3.549   4.305  0.00  0.00    -0.506 OA
ATOM      9  H   LIG    1        6.740  -2.923   4.096  0.00  0.00    +0.292 HD
ENDBRANCH   5   8
BRANCH   6  10
ATOM     10  C   LIG    1        4.103  -1.828   5.442  0.00  0.00    +0.340 C 
ATOM     11  O   LIG    1        3.240  -1.090   5.897  0.00  0.00    -0.245 OA
BRANCH  10  12
ATOM     12  O   LIG    1        5.138  -2.018   6.066  0.00  0.00    -0.477 OA
ATOM     13  H   LIG    1        5.799  -2.583   5.717  0.00  0.00    +0.295 HD
ENDBRANCH  10  12
ENDBRANCH   6  10
ENDBRANCH   1   2
BRANCH   1  14
ATOM     14  C   LIG    1        1.393  -2.012   0.183  0.00  0.00    +0.144 C 
BRANCH  14  19
ATOM     15  C   LIG    1       -0.413   1.302   0.285  0.00  0.00    +0.001 A 
ATOM     16  C   LIG    1        0.592   2.156   0.701  0.00  0.00    +0.004 A 
ATOM     17  C   LIG    1        1.858   1.663   0.951  0.00  0.00    +0.046 A 
ATOM     18  C   LIG    1        2.121   0.311   0.784  0.00  0.00    +0.122 A 
ATOM     19  C   LIG    1        1.111  -0.543   0.366  0.00  0.00    +0.011 A 
ATOM     20  C   LIG    1       -0.154  -0.045   0.118  0.00  0.00    +0.009 A 
BRANCH  18  21
ATOM     21  O   LIG    1        3.366  -0.175   1.028  0.00  0.00    -0.506 OA
ATOM     22  H   LIG    1        3.526  -0.400   1.955  0.00  0.00    +0.292 HD
ENDBRANCH  18  21
ENDBRANCH  14  19
ENDBRANCH   1  14
BRANCH   1  23
ATOM     23  C   LIG    1        0.065  -3.132   2.032  0.00  0.00    +0.144 C 
BRANCH  23  24
ATOM     24  C   LIG    1       -0.260  -4.502   1.494  0.00  0.00    +0.015 A 
ATOM     25  C   LIG    1       -1.157  -4.640   0.453  0.00  0.00    +0.054 A 
ATOM     26  C   LIG    1       -1.455  -5.901  -0.043  0.00  0.00    +0.117 A 
ATOM     27  C   LIG    1       -0.853  -7.023   0.507  0.00  0.00    +0.049 A 
ATOM     28  C   LIG    1        0.044  -6.884   1.548  0.00  0.00    +0.049 A 
ATOM     29  C   LIG    1        0.347  -5.623   2.041  0.00  0.00    +0.122 A 
BRANCH  26  30
ATOM     30  O   LIG    1       -2.339  -6.037  -1.067  0.00  0.00    -0.507 OA
ATOM     31  H   LIG    1       -1.932  -6.005  -1.944  0.00  0.00    +0.292 HD
ENDBRANCH  26  30
BRANCH  29  32
ATOM     32  O   LIG    1        1.234  -5.487   3.062  0.00  0.00    -0.506 OA
ATOM     33  H   LIG    1        0.831  -5.520   3.940  0.00  0.00    +0.292 HD
ENDBRANCH  29  32
ENDBRANCH  23  24
ENDBRANCH   1  23
TORSDOF 11
