REMARK  Name = ZINC03883170
REMARK                            x       y       z     vdW  Elec       q    Type
REMARK                         _______ _______ _______ _____ _____    ______ ____
ROOT
ATOM      1  C   LIG    1        4.171  -0.963   1.399  0.00  0.00    +0.189 C 
ENDROOT
BRANCH   1   2
ATOM      2  N   LIG    1        3.229  -1.870   2.059  0.00  0.00    -0.176 NA
ATOM      3  H   LIG    1        2.799  -2.576   1.552  0.00  0.00    +0.149 HD
BRANCH   2   4
ATOM      4  S   LIG    1        2.897  -1.689   3.672  0.00  0.00    +0.059 S 
ATOM      5  O   LIG    1        4.149  -1.582   4.334  0.00  0.00    -0.153 OA
ATOM      6  O   LIG    1        1.942  -2.686   4.004  0.00  0.00    -0.153 OA
BRANCH   4   7
ATOM      7  C   LIG    1        2.091  -0.134   3.866  0.00  0.00    +0.105 A 
ATOM      8  C   LIG    1        2.836   1.007   4.095  0.00  0.00    +0.029 A 
ATOM      9  C   LIG    1        2.204   2.227   4.247  0.00  0.00    +0.017 A 
ATOM     10  C   LIG    1        0.825   2.305   4.170  0.00  0.00    +0.018 A 
ATOM     11 BR   LIG    1       -0.040   3.974   4.379  0.00  0.00    -0.050 Br
ATOM     12  C   LIG    1        0.080   1.163   3.941  0.00  0.00    +0.017 A 
ATOM     13  C   LIG    1        0.713  -0.055   3.783  0.00  0.00    +0.029 A 
ENDBRANCH   4   7
ENDBRANCH   2   4
ENDBRANCH   1   2
BRANCH   1  14
ATOM     14  C   LIG    1        5.543  -1.588   1.383  0.00  0.00    +0.324 C 
ATOM     15  O   LIG    1        6.535  -0.881   1.408  0.00  0.00    -0.249 OA
BRANCH  14  16
ATOM     16  O   LIG    1        5.659  -2.801   1.346  0.00  0.00    -0.479 OA
ATOM     17  H   LIG    1        4.896  -3.345   1.327  0.00  0.00    +0.295 HD
ENDBRANCH  14  16
ENDBRANCH   1  14
BRANCH   1  18
ATOM     18  C   LIG    1        3.711  -0.707  -0.038  0.00  0.00    +0.067 C 
BRANCH  18  22
ATOM     19  C   LIG    1       -0.017   1.378   0.010  0.00  0.00    +0.000 A 
ATOM     20  C   LIG    1        1.171   2.086   0.002  0.00  0.00    +0.000 A 
ATOM     21  C   LIG    1        2.377   1.411  -0.013  0.00  0.00    +0.004 A 
ATOM     22  C   LIG    1        2.396   0.029  -0.020  0.00  0.00    -0.045 A 
ATOM     23  C   LIG    1        1.208  -0.679  -0.012  0.00  0.00    +0.004 A 
ATOM     24  C   LIG    1        0.002  -0.004   0.002  0.00  0.00    +0.000 A 
ENDBRANCH  18  22
ENDBRANCH   1  18
TORSDOF 7
