REMARK  Name = ZINC03924157
REMARK                            x       y       z     vdW  Elec       q    Type
REMARK                         _______ _______ _______ _____ _____    ______ ____
ROOT
ATOM      1  C   LIG    1       -2.538  -3.949   0.034  0.00  0.00    +0.145 A 
ATOM      2  C   LIG    1       -2.405  -4.690  -1.153  0.00  0.00    +0.081 A 
ATOM      3  C   LIG    1       -2.184  -4.338  -2.506  0.00  0.00    +0.148 A 
ATOM      4  N   LIG    1       -2.143  -5.429  -3.214  0.00  0.00    -0.180 NA
ATOM      5  N   LIG    1       -2.330  -6.539  -2.382  0.00  0.00    -0.260 N 
ATOM      6  H   LIG    1       -2.341  -7.466  -2.667  0.00  0.00    +0.191 HD
ATOM      7  C   LIG    1       -2.494  -6.093  -1.101  0.00  0.00    +0.159 A 
ATOM      8  N   LIG    1       -2.702  -6.713   0.059  0.00  0.00    -0.235 NA
ATOM      9  C   LIG    1       -2.831  -6.055   1.186  0.00  0.00    +0.128 A 
ATOM     10  C   LIG    1       -2.750  -4.656   1.228  0.00  0.00    +0.083 A 
ENDROOT
BRANCH  10  11
ATOM     11  C   LIG    1       -2.891  -3.938   2.506  0.00  0.00    +0.204 C 
ATOM     12  O   LIG    1       -2.848  -2.722   2.529  0.00  0.00    -0.286 OA
BRANCH  11  13
ATOM     13  C   LIG    1       -3.085  -4.693   3.759  0.00  0.00    +0.093 A 
ATOM     14  C   LIG    1       -1.980  -5.197   4.455  0.00  0.00    +0.137 A 
ATOM     15  F   LIG    1       -0.731  -4.994   3.982  0.00  0.00    -0.205 F 
ATOM     16  C   LIG    1       -2.171  -5.902   5.628  0.00  0.00    +0.042 A 
ATOM     17  C   LIG    1       -3.449  -6.111   6.114  0.00  0.00    -0.045 A 
ATOM     18  C   LIG    1       -3.647  -6.882   7.394  0.00  0.00    +0.044 C 
ATOM     19  C   LIG    1       -4.546  -5.617   5.432  0.00  0.00    +0.042 A 
ATOM     20  C   LIG    1       -4.374  -4.904   4.261  0.00  0.00    +0.137 A 
ATOM     21  F   LIG    1       -5.447  -4.417   3.600  0.00  0.00    -0.205 F 
ENDBRANCH  11  13
ENDBRANCH  10  11
BRANCH   1  22
ATOM     22  O   LIG    1       -2.458  -2.598   0.027  0.00  0.00    -0.490 OA
BRANCH  22  23
ATOM     23  C   LIG    1       -1.161  -2.024   0.204  0.00  0.00    +0.229 C 
BRANCH  23  24
ATOM     24  C   LIG    1       -1.270  -0.498   0.167  0.00  0.00    +0.041 C 
BRANCH  24  26
ATOM     25  C   LIG    1        0.010   1.642   0.320  0.00  0.00    +0.004 C 
ATOM     26  C   LIG    1        0.119   0.116   0.357  0.00  0.00    -0.000 C 
ENDBRANCH  24  26
ENDBRANCH  23  24
ENDBRANCH  22  23
ENDBRANCH   1  22
TORSDOF 6
