REMARK  Name = ZINC03929313
REMARK                            x       y       z     vdW  Elec       q    Type
REMARK                         _______ _______ _______ _____ _____    ______ ____
ROOT
ATOM      1  C   LIG    1        0.827  -4.969   1.216  0.00  0.00    +0.132 A 
ATOM      2  C   LIG    1        0.090  -3.953   1.807  0.00  0.00    +0.046 A 
ATOM      3  C   LIG    1        0.577  -2.661   1.815  0.00  0.00    +0.007 A 
ATOM      4  C   LIG    1        1.796  -2.367   1.226  0.00  0.00    -0.045 A 
ATOM      5  C   LIG    1        2.540  -3.364   0.634  0.00  0.00    +0.020 A 
ATOM      6  C   LIG    1        2.062  -4.677   0.624  0.00  0.00    +0.078 A 
ENDROOT
BRANCH   6   7
ATOM      7  C   LIG    1        2.854  -5.750  -0.008  0.00  0.00    +0.248 C 
ATOM      8  N   LIG    1        4.043  -5.465  -0.577  0.00  0.00    -0.307 N 
ATOM      9  H   LIG    1        4.377  -4.554  -0.571  0.00  0.00    +0.149 HD
ATOM     10  O   LIG    1        2.435  -6.891  -0.015  0.00  0.00    -0.270 OA
BRANCH   8  11
ATOM     11  C   LIG    1        4.829  -6.530  -1.204  0.00  0.00    +0.139 C 
BRANCH  11  12
ATOM     12  C   LIG    1        6.104  -5.951  -1.760  0.00  0.00    -0.030 A 
ATOM     13  C   LIG    1        6.141  -5.483  -3.060  0.00  0.00    +0.006 A 
ATOM     14  C   LIG    1        7.310  -4.948  -3.569  0.00  0.00    +0.013 A 
ATOM     15  C   LIG    1        8.445  -4.891  -2.781  0.00  0.00    +0.055 A 
ATOM     16  C   LIG    1        8.409  -5.364  -1.483  0.00  0.00    +0.013 A 
ATOM     17  C   LIG    1        7.239  -5.895  -0.973  0.00  0.00    +0.006 A 
BRANCH  15  18
ATOM     18  C   LIG    1        9.720  -4.314  -3.338  0.00  0.00    +0.417 C 
ATOM     19  F   LIG    1       10.462  -3.736  -2.302  0.00  0.00    -0.166 F 
ATOM     20  F   LIG    1        9.413  -3.338  -4.292  0.00  0.00    -0.166 F 
ATOM     21  F   LIG    1       10.471  -5.331  -3.937  0.00  0.00    -0.166 F 
ENDBRANCH  15  18
ENDBRANCH  11  12
ENDBRANCH   8  11
ENDBRANCH   6   7
BRANCH   1  23
ATOM     22  C   LIG    1       -0.915  -6.462   1.834  0.00  0.00    +0.277 C 
ATOM     23  O   LIG    1        0.352  -6.240   1.212  0.00  0.00    -0.494 OA
ENDBRANCH   1  23
BRANCH   4  24
ATOM     24  C   LIG    1        2.313  -0.952   1.237  0.00  0.00    +0.059 C 
BRANCH  24  25
ATOM     25  C   LIG    1        1.826  -0.221  -0.017  0.00  0.00    +0.146 C 
ATOM     26  C   LIG    1        2.262   1.237  -0.013  0.00  0.00    +0.234 C 
ATOM     27  N   LIG    1        1.280   2.123   0.001  0.00  0.00    -0.246 N 
ATOM     28  H   LIG    1        1.510   3.065   0.004  0.00  0.00    +0.158 HD
ATOM     29  C   LIG    1       -0.022   1.782   0.012  0.00  0.00    +0.279 C 
ATOM     30  O   LIG    1       -0.989   2.519   0.021  0.00  0.00    -0.263 OA
ATOM     31  O   LIG    1        3.430   1.565  -0.022  0.00  0.00    -0.274 OA
ATOM     32  S   LIG    1        0.002  -0.004   0.002  0.00  0.00    -0.054 S 
ENDBRANCH  24  25
ENDBRANCH   4  24
TORSDOF 7
