REMARK  Name = ZINC04095712
REMARK                            x       y       z     vdW  Elec       q    Type
REMARK                         _______ _______ _______ _____ _____    ______ ____
ROOT
ATOM      1  C   LIG    1       -2.026   0.993  -1.337  0.00  0.00    -0.096 C 
ATOM      2  N   LIG    1       -0.653   1.522  -1.269  0.00  0.00    +0.380 N 
ATOM      3  H   LIG    1       -0.173   1.316  -2.153  0.00  0.00    -0.082 HD
ATOM      4  C   LIG    1        0.089   0.865  -0.161  0.00  0.00    -0.057 C 
ATOM      5  C   LIG    1       -0.629   1.052   1.165  0.00  0.00    +0.021 C 
ATOM      6  C   LIG    1       -0.250   2.294   1.884  0.00  0.00    -0.041 A 
ATOM      7  C   LIG    1       -0.797   2.725   3.079  0.00  0.00    +0.007 A 
ATOM      8  C   LIG    1       -0.310   3.866   3.697  0.00  0.00    +0.049 A 
ATOM      9  C   LIG    1        0.740   4.625   3.186  0.00  0.00    +0.159 A 
ATOM     10  C   LIG    1        1.296   4.205   1.973  0.00  0.00    +0.167 A 
ATOM     11  O   LIG    1        2.343   4.662   1.246  0.00  0.00    -0.476 OA
ATOM     12  C   LIG    1        2.817   3.557   0.400  0.00  0.00    +0.254 C 
ATOM     13  C   LIG    1        3.600   2.679   1.359  0.00  0.00    +0.197 C 
ATOM     14  C   LIG    1        3.400   1.238   1.404  0.00  0.00    +0.046 C 
ATOM     15  C   LIG    1        2.435   0.636   0.719  0.00  0.00    -0.020 C 
ATOM     16  O   LIG    1        4.411   3.189   2.103  0.00  0.00    -0.289 OA
ATOM     17  C   LIG    1        1.491   2.871   0.070  0.00  0.00    +0.047 C 
ATOM     18  C   LIG    1        0.735   3.563  -1.066  0.00  0.00    -0.002 C 
ATOM     19  C   LIG    1        0.740   3.091   1.359  0.00  0.00    +0.012 A 
ATOM     20  C   LIG    1        1.524   1.382  -0.186  0.00  0.00    +0.013 C 
ATOM     21  C   LIG    1       -0.692   2.994  -1.081  0.00  0.00    -0.078 C 
ENDROOT
BRANCH   9  22
ATOM     22  O   LIG    1        1.204   5.726   3.836  0.00  0.00    -0.503 OA
ATOM     23  H   LIG    1        1.916   5.541   4.464  0.00  0.00    +0.292 HD
ENDBRANCH   9  22
TORSDOF 1
