REMARK  Name = ZINC03918045
REMARK                            x       y       z     vdW  Elec       q    Type
REMARK                         _______ _______ _______ _____ _____    ______ ____
ROOT
ATOM      1  N   LIG    1       -4.148  -5.487   1.230  0.00  0.00    -0.285 N 
ATOM      2  C   LIG    1       -3.001  -5.957   1.800  0.00  0.00    +0.203 A 
ATOM      3  N   LIG    1       -3.227  -7.103   2.372  0.00  0.00    -0.231 NA
ATOM      4  C   LIG    1       -4.529  -7.442   2.206  0.00  0.00    +0.147 A 
ATOM      5  C   LIG    1       -5.321  -8.536   2.595  0.00  0.00    +0.149 A 
ATOM      6  N   LIG    1       -6.607  -8.539   2.263  0.00  0.00    -0.198 NA
ATOM      7  C   LIG    1       -7.139  -7.540   1.570  0.00  0.00    +0.219 A 
ATOM      8  N   LIG    1       -6.429  -6.494   1.181  0.00  0.00    -0.195 NA
ATOM      9  C   LIG    1       -5.136  -6.406   1.476  0.00  0.00    +0.169 A 
ENDROOT
BRANCH   1  13
ATOM     10  C   LIG    1       -3.014  -2.361   0.018  0.00  0.00    +0.237 C 
ATOM     11  C   LIG    1       -3.708  -2.029   1.364  0.00  0.00    +0.185 C 
ATOM     12  C   LIG    1       -4.800  -3.124   1.444  0.00  0.00    +0.196 C 
ATOM     13  C   LIG    1       -4.298  -4.229   0.495  0.00  0.00    +0.254 C 
ATOM     14  O   LIG    1       -3.024  -3.804  -0.023  0.00  0.00    -0.339 OA
BRANCH  10  17
ATOM     15  N   LIG    1       -1.372  -0.511   0.012  0.00  0.00    -0.313 N 
ATOM     16  H   LIG    1       -2.118   0.109   0.023  0.00  0.00    +0.149 HD
ATOM     17  C   LIG    1       -1.601  -1.839   0.007  0.00  0.00    +0.245 C 
ATOM     18  O   LIG    1       -0.668  -2.615  -0.006  0.00  0.00    -0.273 OA
BRANCH  15  20
ATOM     19  C   LIG    1       -0.019   1.526   0.010  0.00  0.00    +0.024 C 
ATOM     20  C   LIG    1        0.002  -0.004   0.002  0.00  0.00    +0.101 C 
ENDBRANCH  15  20
ENDBRANCH  10  17
BRANCH  11  21
ATOM     21  O   LIG    1       -4.294  -0.726   1.328  0.00  0.00    -0.386 OA
ATOM     22  H   LIG    1       -3.656  -0.012   1.188  0.00  0.00    +0.210 HD
ENDBRANCH  11  21
BRANCH  12  23
ATOM     23  O   LIG    1       -6.057  -2.611   0.998  0.00  0.00    -0.385 OA
ATOM     24  H   LIG    1       -6.391  -1.874   1.528  0.00  0.00    +0.210 HD
ENDBRANCH  12  23
ENDBRANCH   1  13
BRANCH   5  25
ATOM     25  N   LIG    1       -4.776  -9.581   3.319  0.00  0.00    -0.341 N 
ATOM     26  H   LIG    1       -5.332 -10.331   3.582  0.00  0.00    +0.144 HD
ATOM     27  H   LIG    1       -3.837  -9.564   3.564  0.00  0.00    +0.144 HD
ENDBRANCH   5  25
BRANCH   7  28
ATOM     28  N   LIG    1       -8.484  -7.594   1.243  0.00  0.00    -0.313 N 
ATOM     29  H   LIG    1       -8.890  -6.873   0.737  0.00  0.00    +0.149 HD
BRANCH  28  30
ATOM     30  C   LIG    1       -9.294  -8.741   1.662  0.00  0.00    +0.109 C 
BRANCH  30  31
ATOM     31  C   LIG    1      -10.733  -8.554   1.177  0.00  0.00    +0.054 C 
BRANCH  31  32
ATOM     32  C   LIG    1      -11.566  -9.733   1.608  0.00  0.00    -0.046 A 
ATOM     33  C   LIG    1      -11.673 -10.841   0.787  0.00  0.00    +0.004 A 
ATOM     34  C   LIG    1      -12.437 -11.923   1.182  0.00  0.00    +0.004 A 
ATOM     35  C   LIG    1      -13.094 -11.898   2.398  0.00  0.00    -0.047 A 
ATOM     36  C   LIG    1      -12.986 -10.791   3.219  0.00  0.00    +0.004 A 
ATOM     37  C   LIG    1      -12.219  -9.710   2.826  0.00  0.00    +0.004 A 
BRANCH  35  38
ATOM     38  C   LIG    1      -13.928 -13.077   2.829  0.00  0.00    +0.046 C 
BRANCH  38  39
ATOM     39  C   LIG    1      -13.055 -14.061   3.610  0.00  0.00    +0.125 C 
BRANCH  39  40
ATOM     40  C   LIG    1      -13.888 -15.240   4.041  0.00  0.00    +0.305 C 
ATOM     41  O   LIG    1      -15.071 -15.289   3.749  0.00  0.00    -0.251 OA
BRANCH  40  42
ATOM     42  O   LIG    1      -13.380 -16.145   4.680  0.00  0.00    -0.481 OA
ATOM     43  H   LIG    1      -12.471 -16.107   4.904  0.00  0.00    +0.295 HD
ENDBRANCH  40  42
ENDBRANCH  39  40
ENDBRANCH  38  39
ENDBRANCH  35  38
ENDBRANCH  31  32
ENDBRANCH  30  31
ENDBRANCH  28  30
ENDBRANCH   7  28
TORSDOF 14
