REMARK  Name = ZINC03963295
REMARK                            x       y       z     vdW  Elec       q    Type
REMARK                         _______ _______ _______ _____ _____    ______ ____
ROOT
ATOM      1  C   LIG    1       -5.497  -3.205   1.200  0.00  0.00    -0.018 A 
ATOM      2  C   LIG    1       -4.195  -3.664   1.399  0.00  0.00    +0.009 A 
ATOM      3  C   LIG    1       -3.216  -2.796   1.826  0.00  0.00    +0.013 A 
ATOM      4  C   LIG    1       -3.526  -1.454   2.061  0.00  0.00    +0.037 A 
ATOM      5  C   LIG    1       -4.832  -0.996   1.867  0.00  0.00    +0.013 A 
ATOM      6  C   LIG    1       -5.809  -1.865   1.434  0.00  0.00    +0.009 A 
ENDROOT
BRANCH   1  13
ATOM      7  C   LIG    1       -8.016  -3.322   2.611  0.00  0.00    +0.044 C 
ATOM      8  C   LIG    1       -7.770  -4.204   1.414  0.00  0.00    -0.042 A 
ATOM      9  C   LIG    1       -8.749  -5.074   0.986  0.00  0.00    +0.019 A 
ATOM     10  C   LIG    1       -8.521  -5.891  -0.122  0.00  0.00    +0.061 A 
ATOM     11  C   LIG    1       -7.300  -5.827  -0.796  0.00  0.00    +0.016 A 
ATOM     12  C   LIG    1       -6.324  -4.953  -0.372  0.00  0.00    +0.009 A 
ATOM     13  C   LIG    1       -6.550  -4.140   0.739  0.00  0.00    -0.015 A 
BRANCH  10  14
ATOM     14  C   LIG    1       -9.572  -6.825  -0.582  0.00  0.00    +0.266 C 
ATOM     15  N   LIG    1      -10.707  -6.837   0.101  0.00  0.00    -0.288 N 
ATOM     16  H   LIG    1      -10.827  -6.216   0.909  0.00  0.00    +0.301 HD
ATOM     17  H   LIG    1      -11.463  -7.464  -0.178  0.00  0.00    +0.301 HD
BRANCH  14  18
ATOM     18  N   LIG    1       -9.347  -7.632  -1.676  0.00  0.00    -0.250 N 
ATOM     19  H   LIG    1      -10.037  -8.244  -1.978  0.00  0.00    +0.288 HD
ATOM     20  H   LIG    1       -8.499  -7.587  -2.145  0.00  0.00    +0.288 HD
ENDBRANCH  14  18
ENDBRANCH  10  14
ENDBRANCH   1  13
BRANCH   4  21
ATOM     21  C   LIG    1       -2.477  -0.522   2.520  0.00  0.00    +0.248 C 
ATOM     22  N   LIG    1       -2.777   0.772   2.746  0.00  0.00    -0.281 N 
ATOM     23  H   LIG    1       -3.696   1.075   2.682  0.00  0.00    +0.155 HD
ATOM     24  O   LIG    1       -1.342  -0.922   2.693  0.00  0.00    -0.270 OA
BRANCH  22  25
ATOM     25  C   LIG    1       -1.762   1.680   3.074  0.00  0.00    +0.036 A 
ATOM     26  C   LIG    1       -0.492   1.525   2.534  0.00  0.00    +0.027 A 
ATOM     27  C   LIG    1        0.512   2.419   2.856  0.00  0.00    +0.049 A 
ATOM     28  C   LIG    1        0.253   3.473   3.717  0.00  0.00    +0.141 A 
ATOM     29  C   LIG    1       -1.020   3.632   4.260  0.00  0.00    +0.074 A 
ATOM     30  C   LIG    1       -2.026   2.735   3.937  0.00  0.00    +0.050 A 
BRANCH  29  31
ATOM     31  N   LIG    1       -1.283   4.697   5.129  0.00  0.00    -0.331 N 
ATOM     32  C   LIG    1       -1.635   4.207   6.469  0.00  0.00    +0.086 C 
ATOM     33  C   LIG    1       -1.837   5.399   7.408  0.00  0.00    -0.060 C 
ATOM     34  N   LIG    1       -2.918   6.252   6.870  0.00  0.00    +0.380 N 
ATOM     35  H   LIG    1       -3.775   5.692   6.787  0.00  0.00    -0.082 HD
ATOM     36  C   LIG    1       -3.171   7.385   7.785  0.00  0.00    -0.096 C 
ATOM     37  C   LIG    1       -2.542   6.757   5.532  0.00  0.00    -0.060 C 
ATOM     38  C   LIG    1       -2.340   5.565   4.594  0.00  0.00    +0.086 C 
ENDBRANCH  29  31
BRANCH  28  39
ATOM     39  O   LIG    1        1.242   4.353   4.031  0.00  0.00    -0.493 OA
ATOM     40  C   LIG    1        2.523   4.129   3.438  0.00  0.00    +0.277 C 
ENDBRANCH  28  39
ENDBRANCH  22  25
ENDBRANCH   4  21
TORSDOF 7
