REMARK  Name = ZINC03946466
REMARK                            x       y       z     vdW  Elec       q    Type
REMARK                         _______ _______ _______ _____ _____    ______ ____
ROOT
ATOM      1  N   LIG    1        4.329   3.868   0.707  0.00  0.00    -0.265 N 
ATOM      2  H   LIG    1        4.669   4.631   0.215  0.00  0.00    +0.259 HD
ENDROOT
BRANCH   1   3
ATOM      3  C   LIG    1        4.855   2.528   0.435  0.00  0.00    +0.112 C 
ATOM      4  C   LIG    1        6.211   2.532  -0.291  0.00  0.00    +0.049 C 
ATOM      5  C   LIG    1        6.867   2.566   1.100  0.00  0.00    +0.008 C 
ATOM      6  C   LIG    1        5.587   1.899   1.632  0.00  0.00    +0.049 C 
BRANCH   3   9
ATOM      7  C   LIG    1        1.563   1.132  -0.779  0.00  0.00    +0.002 A 
ATOM      8  C   LIG    1        2.499   1.969  -0.200  0.00  0.00    +0.007 A 
ATOM      9  C   LIG    1        3.836   1.615  -0.197  0.00  0.00    -0.007 A 
ATOM     10  C   LIG    1        4.237   0.425  -0.773  0.00  0.00    +0.027 A 
ATOM     11  C   LIG    1        3.301  -0.413  -1.353  0.00  0.00    +0.041 A 
ATOM     12 CL   LIG    1        3.804  -1.908  -2.078  0.00  0.00    -0.084 Cl
ATOM     13  C   LIG    1        1.963  -0.058  -1.355  0.00  0.00    +0.020 A 
ENDBRANCH   3   9
ENDBRANCH   1   3
BRANCH   1  14
ATOM     14  C   LIG    1        3.357   4.041   1.652  0.00  0.00    +0.403 C 
ATOM     15  N   LIG    1        2.967   3.019   2.393  0.00  0.00    +0.011 NA
BRANCH  14  16
ATOM     16  N   LIG    1        2.790   5.272   1.832  0.00  0.00    -0.241 N 
ATOM     17  H   LIG    1        2.337   5.481   2.664  0.00  0.00    +0.265 HD
BRANCH  16  18
ATOM     18  C   LIG    1        2.862   6.231   0.815  0.00  0.00    +0.118 A 
ATOM     19  C   LIG    1        2.700   7.583   1.106  0.00  0.00    +0.045 A 
ATOM     20  C   LIG    1        2.780   8.494   0.066  0.00  0.00    +0.023 A 
ATOM     21  C   LIG    1        3.016   8.035  -1.217  0.00  0.00    +0.111 A 
ATOM     22  N   LIG    1        3.164   6.748  -1.460  0.00  0.00    -0.260 NA
ATOM     23  C   LIG    1        3.102   5.848  -0.498  0.00  0.00    +0.152 A 
ENDBRANCH  16  18
ENDBRANCH  14  16
BRANCH  15  24
ATOM     24  C   LIG    1        2.079   3.211   3.398  0.00  0.00    +0.295 C 
ATOM     25  N   LIG    1        1.334   3.373   4.241  0.00  0.00    -0.151 NA
ENDBRANCH  15  24
ENDBRANCH   1  14
TORSDOF 6
