REMARK  Name = ZINC03952356
REMARK                            x       y       z     vdW  Elec       q    Type
REMARK                         _______ _______ _______ _____ _____    ______ ____
ROOT
ATOM      1  C   LIG    1        8.134  -3.469  -1.951  0.00  0.00    -0.028 C 
ATOM      2  C   LIG    1        8.341  -3.042  -3.406  0.00  0.00    +0.002 C 
ATOM      3  C   LIG    1        8.268  -4.271  -4.313  0.00  0.00    +0.005 C 
ATOM      4  C   LIG    1        9.361  -5.265  -3.914  0.00  0.00    +0.005 C 
ATOM      5  C   LIG    1        9.155  -5.692  -2.459  0.00  0.00    +0.005 C 
ATOM      6  C   LIG    1        9.227  -4.462  -1.552  0.00  0.00    +0.002 C 
ENDROOT
BRANCH   1   7
ATOM      7  C   LIG    1        8.207  -2.239  -1.044  0.00  0.00    -0.079 C 
BRANCH   7   8
ATOM      8  N   LIG    1        7.085  -1.340  -1.347  0.00  0.00    +0.379 N 
ATOM      9  H   LIG    1        7.139  -1.049  -2.312  0.00  0.00    -0.086 HD
ATOM     10  H   LIG    1        6.214  -1.823  -1.190  0.00  0.00    -0.086 HD
BRANCH   8  11
ATOM     11  C   LIG    1        7.155  -0.159  -0.476  0.00  0.00    -0.079 C 
BRANCH  11  17
ATOM     12  C   LIG    1        1.335   2.762  -0.674  0.00  0.00    +0.000 A 
ATOM     13  C   LIG    1        2.612   3.278  -0.602  0.00  0.00    +0.004 A 
ATOM     14  C   LIG    1        3.712   2.433  -0.531  0.00  0.00    -0.044 A 
ATOM     15  C   LIG    1        3.524   1.069  -0.529  0.00  0.00    -0.044 A 
ATOM     16  C   LIG    1        4.668   0.093  -0.438  0.00  0.00    +0.037 C 
ATOM     17  C   LIG    1        5.987   0.778  -0.793  0.00  0.00    -0.023 C 
ATOM     18  C   LIG    1        6.109   2.057   0.043  0.00  0.00    +0.006 C 
ATOM     19  C   LIG    1        2.238   0.551  -0.605  0.00  0.00    +0.004 A 
ATOM     20  C   LIG    1        5.078   3.064  -0.463  0.00  0.00    +0.035 C 
ATOM     21  C   LIG    1        1.147   1.393  -0.677  0.00  0.00    +0.000 A 
ENDBRANCH  11  17
ENDBRANCH   8  11
ENDBRANCH   7   8
ENDBRANCH   1   7
BRANCH   4  22
ATOM     22  C   LIG    1        9.289  -6.495  -4.821  0.00  0.00    +0.109 C 
BRANCH  22  23
ATOM     23  N   LIG    1       10.407  -7.392  -4.518  0.00  0.00    -0.190 NA
ATOM     24  H   LIG    1       11.174  -7.061  -4.025  0.00  0.00    +0.148 HD
BRANCH  23  25
ATOM     25  S   LIG    1       10.362  -8.970  -5.018  0.00  0.00    +0.061 S 
ATOM     26  O   LIG    1        9.108  -9.492  -4.601  0.00  0.00    -0.153 OA
ATOM     27  O   LIG    1       11.597  -9.554  -4.630  0.00  0.00    -0.153 OA
BRANCH  25  28
ATOM     28  C   LIG    1       10.341  -8.958  -6.780  0.00  0.00    +0.135 A 
ATOM     29  C   LIG    1       11.413  -8.436  -7.480  0.00  0.00    +0.148 A 
ATOM     30  C   LIG    1       11.396  -8.427  -8.862  0.00  0.00    +0.034 A 
ATOM     31  C   LIG    1       10.309  -8.940  -9.544  0.00  0.00    +0.002 A 
ATOM     32  C   LIG    1        9.238  -9.463  -8.844  0.00  0.00    +0.002 A 
ATOM     33  C   LIG    1        9.256  -9.476  -7.462  0.00  0.00    +0.031 A 
BRANCH  29  34
ATOM     34  N   LIG    1       12.577  -7.886  -6.750  0.00  0.00    +0.008 N 
ATOM     35  O   LIG    1       13.566  -7.548  -7.357  0.00  0.00    -0.130 OA
BRANCH  34  36
ATOM     36  O   LIG    1       12.539  -7.776  -5.546  0.00  0.00    -0.396 OA
ATOM     37  H   LIG    1       11.772  -8.038  -5.076  0.00  0.00    +0.329 HD
ENDBRANCH  34  36
ENDBRANCH  29  34
ENDBRANCH  25  28
ENDBRANCH  23  25
ENDBRANCH  22  23
ENDBRANCH   4  22
TORSDOF 10
