REMARK  Name = ZINC04086591
REMARK                            x       y       z     vdW  Elec       q    Type
REMARK                         _______ _______ _______ _____ _____    ______ ____
ROOT
ATOM      1  C   LIG    1        5.754  -1.850  -1.609  0.00  0.00    +0.160 A 
ATOM      2  N   LIG    1        6.420  -2.223  -0.526  0.00  0.00    -0.133 NA
ATOM      3  N   LIG    1        7.519  -2.838  -0.599  0.00  0.00    -0.125 NA
ATOM      4  C   LIG    1        8.074  -3.148  -1.759  0.00  0.00    +0.189 A 
ATOM      5  S   LIG    1        6.852  -2.472  -2.879  0.00  0.00    -0.024 S 
ENDROOT
BRANCH   4   6
ATOM      6  N   LIG    1        9.265  -3.814  -2.031  0.00  0.00    -0.259 N 
ATOM      7  H   LIG    1        9.537  -3.966  -2.950  0.00  0.00    +0.157 HD
ATOM      8  C   LIG    1       10.041  -4.249  -1.018  0.00  0.00    +0.251 C 
ATOM      9  O   LIG    1        9.700  -4.059   0.133  0.00  0.00    -0.270 OA
BRANCH   8  10
ATOM     10  C   LIG    1       11.305  -4.957  -1.307  0.00  0.00    +0.055 A 
ATOM     11  C   LIG    1       11.697  -5.182  -2.628  0.00  0.00    +0.014 A 
ATOM     12  C   LIG    1       12.880  -5.839  -2.891  0.00  0.00    +0.001 A 
ATOM     13  C   LIG    1       13.675  -6.284  -1.849  0.00  0.00    +0.001 A 
ATOM     14  C   LIG    1       13.292  -6.070  -0.538  0.00  0.00    +0.021 A 
ATOM     15  C   LIG    1       12.112  -5.409  -0.260  0.00  0.00    +0.053 A 
ATOM     16 CL   LIG    1       11.631  -5.141   1.387  0.00  0.00    -0.083 Cl
ENDBRANCH   8  10
ENDBRANCH   4   6
BRANCH   1  17
ATOM     17  S   LIG    1        4.221  -0.993  -1.756  0.00  0.00    -0.092 S 
BRANCH  17  18
ATOM     18  C   LIG    1        3.711  -0.707  -0.039  0.00  0.00    +0.111 C 
BRANCH  18  22
ATOM     19  C   LIG    1       -0.017   1.378   0.010  0.00  0.00    +0.000 A 
ATOM     20  C   LIG    1        1.171   2.086   0.002  0.00  0.00    +0.000 A 
ATOM     21  C   LIG    1        2.377   1.411  -0.014  0.00  0.00    +0.004 A 
ATOM     22  C   LIG    1        2.396   0.029  -0.022  0.00  0.00    -0.037 A 
ATOM     23  C   LIG    1        1.208  -0.679  -0.014  0.00  0.00    +0.004 A 
ATOM     24  C   LIG    1        0.002  -0.004   0.002  0.00  0.00    +0.000 A 
ENDBRANCH  18  22
ENDBRANCH  17  18
ENDBRANCH   1  17
TORSDOF 5
