REMARK  Name = ZINC03982130
REMARK                            x       y       z     vdW  Elec       q    Type
REMARK                         _______ _______ _______ _____ _____    ______ ____
ROOT
ATOM      1  C   LIG    1       -0.019   1.526   0.010  0.00  0.00    +0.052 C 
ATOM      2  C   LIG    1        0.002  -0.004   0.002  0.00  0.00    +0.177 C 
ATOM      3  C   LIG    1        0.718  -0.498  -1.257  0.00  0.00    +0.071 C 
ATOM      4  C   LIG    1        0.696   0.585  -2.305  0.00  0.00    -0.020 C 
ATOM      5  C   LIG    1        1.838   1.146  -2.708  0.00  0.00    +0.045 C 
ATOM      6  C   LIG    1        3.109   0.710  -2.131  0.00  0.00    +0.187 C 
ATOM      7  C   LIG    1        4.400   1.342  -2.585  0.00  0.00    +0.213 C 
ATOM      8  C   LIG    1        5.576   0.659  -1.886  0.00  0.00    +0.151 C 
ATOM      9  C   LIG    1        5.692   1.183  -0.453  0.00  0.00    +0.035 C 
ATOM     10  C   LIG    1        4.875   0.290   0.484  0.00  0.00    +0.007 C 
ATOM     11  C   LIG    1        4.603   1.036   1.792  0.00  0.00    +0.036 C 
ATOM     12  C   LIG    1        3.979   0.091   2.786  0.00  0.00    -0.026 A 
ATOM     13  C   LIG    1        4.675  -0.282   3.912  0.00  0.00    +0.050 A 
ATOM     14  C   LIG    1        4.104  -1.157   4.832  0.00  0.00    +0.124 A 
ATOM     15  C   LIG    1        2.829  -1.661   4.619  0.00  0.00    +0.091 A 
ATOM     16  C   LIG    1        2.118  -1.293   3.491  0.00  0.00    +0.135 A 
ATOM     17  C   LIG    1        2.691  -0.407   2.564  0.00  0.00    +0.104 A 
ATOM     18  C   LIG    1        1.940  -0.005   1.364  0.00  0.00    +0.343 C 
ATOM     19  O   LIG    1        2.443   0.752   0.558  0.00  0.00    -0.245 OA
ATOM     20  O   LIG    1        3.125  -0.161  -1.287  0.00  0.00    -0.290 OA
ATOM     21  O   LIG    1        0.693  -0.477   1.159  0.00  0.00    -0.458 OA
ENDROOT
BRANCH   7  22
ATOM     22  O   LIG    1        4.391   2.732  -2.254  0.00  0.00    -0.381 OA
ATOM     23  H   LIG    1        3.670   3.230  -2.664  0.00  0.00    +0.210 HD
ENDBRANCH   7  22
BRANCH   8  24
ATOM     24  O   LIG    1        5.360  -0.754  -1.860  0.00  0.00    -0.389 OA
ATOM     25  H   LIG    1        5.277  -1.155  -2.736  0.00  0.00    +0.210 HD
ENDBRANCH   8  24
BRANCH  14  26
ATOM     26  O   LIG    1        4.798  -1.520   5.940  0.00  0.00    -0.495 OA
ATOM     27  C   LIG    1        4.154  -2.421   6.843  0.00  0.00    +0.277 C 
ENDBRANCH  14  26
BRANCH  16  28
ATOM     28  O   LIG    1        0.871  -1.785   3.281  0.00  0.00    -0.506 OA
ATOM     29  H   LIG    1        0.166  -1.244   3.660  0.00  0.00    +0.292 HD
ENDBRANCH  16  28
TORSDOF 4
