REMARK  Name = ZINC03958756
REMARK                            x       y       z     vdW  Elec       q    Type
REMARK                         _______ _______ _______ _____ _____    ______ ____
ROOT
ATOM      1  N   LIG    1       -0.342  -2.374   0.348  0.00  0.00    -0.324 N 
ATOM      2  C   LIG    1       -1.624  -3.040   0.079  0.00  0.00    +0.124 C 
ATOM      3  C   LIG    1       -1.391  -4.556   0.045  0.00  0.00    +0.127 C 
ATOM      4  N   LIG    1       -0.631  -4.941   1.242  0.00  0.00    -0.293 N 
ATOM      5  C   LIG    1       -1.101  -5.888   2.078  0.00  0.00    +0.268 C 
ATOM      6  O   LIG    1       -2.217  -6.340   1.917  0.00  0.00    -0.268 OA
ATOM      7  C   LIG    1        0.651  -4.275   1.511  0.00  0.00    +0.127 C 
ATOM      8  C   LIG    1        0.422  -2.764   1.542  0.00  0.00    +0.124 C 
ENDROOT
BRANCH   1  14
ATOM      9  C   LIG    1       -0.179  -0.052  -0.313  0.00  0.00    +0.141 A 
ATOM     10  C   LIG    1        0.312   0.917  -1.172  0.00  0.00    +0.047 A 
ATOM     11  C   LIG    1        1.118   0.555  -2.236  0.00  0.00    +0.004 A 
ATOM     12  C   LIG    1        1.437  -0.774  -2.445  0.00  0.00    +0.002 A 
ATOM     13  C   LIG    1        0.951  -1.748  -1.592  0.00  0.00    +0.027 A 
ATOM     14  C   LIG    1        0.146  -1.391  -0.520  0.00  0.00    +0.072 A 
BRANCH   9  16
ATOM     15  C   LIG    1       -1.264   1.693   0.883  0.00  0.00    +0.277 C 
ATOM     16  O   LIG    1       -0.973   0.302   0.733  0.00  0.00    -0.493 OA
ENDBRANCH   9  16
ENDBRANCH   1  14
BRANCH   5  17
ATOM     17  C   LIG    1       -0.255  -6.377   3.195  0.00  0.00    +0.168 A 
ATOM     18  C   LIG    1       -0.665  -7.253   4.224  0.00  0.00    +0.086 A 
ATOM     19  C   LIG    1        0.398  -7.457   5.047  0.00  0.00    +0.168 A 
ATOM     20  O   LIG    1        1.435  -6.747   4.567  0.00  0.00    -0.354 OA
ATOM     21  N   LIG    1        1.006  -6.077   3.396  0.00  0.00    -0.073 NA
BRANCH  19  22
ATOM     22  C   LIG    1        0.411  -8.308   6.255  0.00  0.00    +0.020 A 
ATOM     23  C   LIG    1       -0.741  -8.997   6.639  0.00  0.00    +0.013 A 
ATOM     24  C   LIG    1       -0.723  -9.790   7.768  0.00  0.00    +0.021 A 
ATOM     25  C   LIG    1        0.435  -9.902   8.520  0.00  0.00    +0.041 A 
ATOM     26 CL   LIG    1        0.450 -10.901   9.940  0.00  0.00    -0.084 Cl
ATOM     27  C   LIG    1        1.580  -9.220   8.145  0.00  0.00    +0.021 A 
ATOM     28  C   LIG    1        1.576  -8.429   7.014  0.00  0.00    +0.013 A 
ENDBRANCH  19  22
ENDBRANCH   5  17
TORSDOF 4
