REMARK  Name = ZINC03984030
REMARK                            x       y       z     vdW  Elec       q    Type
REMARK                         _______ _______ _______ _____ _____    ______ ____
ROOT
ATOM      1  C   LIG    1       -6.756   1.884   3.616  0.00  0.00    +0.139 A 
ATOM      2  C   LIG    1       -7.955   2.518   3.717  0.00  0.00    +0.098 A 
ATOM      3  C   LIG    1       -8.650   2.888   2.542  0.00  0.00    +0.197 A 
ATOM      4  C   LIG    1       -8.023   2.558   1.251  0.00  0.00    +0.106 A 
ATOM      5  C   LIG    1       -8.641   2.887   0.037  0.00  0.00    +0.135 A 
ATOM      6  C   LIG    1       -8.024   2.563  -1.158  0.00  0.00    +0.092 A 
ATOM      7  C   LIG    1       -6.796   1.915  -1.159  0.00  0.00    +0.132 A 
ATOM      8  C   LIG    1       -6.169   1.581   0.044  0.00  0.00    +0.070 A 
ATOM      9  C   LIG    1       -6.785   1.897   1.258  0.00  0.00    +0.154 A 
ATOM     10  O   LIG    1       -9.728   3.458   2.595  0.00  0.00    -0.287 OA
ATOM     11  O   LIG    1       -6.195   1.589   2.432  0.00  0.00    -0.454 OA
ENDROOT
BRANCH   1  17
ATOM     12  C   LIG    1       -6.602   1.804   6.099  0.00  0.00    +0.015 A 
ATOM     13  C   LIG    1       -5.938   1.444   7.251  0.00  0.00    +0.046 A 
ATOM     14  C   LIG    1       -4.712   0.795   7.174  0.00  0.00    +0.117 A 
ATOM     15  C   LIG    1       -4.152   0.502   5.936  0.00  0.00    +0.046 A 
ATOM     16  C   LIG    1       -4.812   0.853   4.780  0.00  0.00    +0.015 A 
ATOM     17  C   LIG    1       -6.046   1.506   4.852  0.00  0.00    +0.018 A 
BRANCH  14  18
ATOM     18  O   LIG    1       -4.058   0.448   8.312  0.00  0.00    -0.507 OA
ATOM     19  H   LIG    1       -3.455   1.128   8.643  0.00  0.00    +0.292 HD
ENDBRANCH  14  18
ENDBRANCH   1  17
BRANCH   8  20
ATOM     20  C   LIG    1       -4.859   0.888   0.033  0.00  0.00    +0.031 A 
ATOM     21  C   LIG    1       -3.681   1.626   0.035  0.00  0.00    +0.024 A 
ATOM     22  C   LIG    1       -2.451   0.967   0.019  0.00  0.00    +0.018 A 
ATOM     23  C   LIG    1       -2.408  -0.431   0.012  0.00  0.00    +0.015 A 
ATOM     24  C   LIG    1       -3.577  -1.159   0.015  0.00  0.00    +0.047 A 
ATOM     25  C   LIG    1       -4.804  -0.511   0.025  0.00  0.00    +0.125 A 
BRANCH  22  26
ATOM     26  C   LIG    1       -1.197   1.745   0.017  0.00  0.00    +0.139 A 
ATOM     27  C   LIG    1       -0.013   1.076   0.008  0.00  0.00    +0.098 A 
ATOM     28  C   LIG    1        1.200   1.805   0.000  0.00  0.00    +0.197 A 
ATOM     29  C   LIG    1        1.107   3.275   0.009  0.00  0.00    +0.105 A 
ATOM     30  C   LIG    1        2.256   4.076   0.001  0.00  0.00    +0.135 A 
ATOM     31  C   LIG    1        2.127   5.452   0.009  0.00  0.00    +0.091 A 
ATOM     32  C   LIG    1        0.864   6.035   0.023  0.00  0.00    +0.124 A 
ATOM     33  C   LIG    1       -0.277   5.248   0.031  0.00  0.00    +0.092 A 
ATOM     34  C   LIG    1       -0.167   3.866   0.023  0.00  0.00    +0.146 A 
ATOM     35  O   LIG    1        2.281   1.238  -0.012  0.00  0.00    -0.287 OA
ATOM     36  O   LIG    1       -1.268   3.085   0.029  0.00  0.00    -0.454 OA
BRANCH  30  37
ATOM     37  O   LIG    1        3.488   3.505  -0.014  0.00  0.00    -0.506 OA
ATOM     38  H   LIG    1        3.836   3.344  -0.901  0.00  0.00    +0.292 HD
ENDBRANCH  30  37
BRANCH  32  39
ATOM     39  O   LIG    1        0.748   7.387   0.030  0.00  0.00    -0.507 OA
ATOM     40  H   LIG    1        0.706   7.783  -0.851  0.00  0.00    +0.292 HD
ENDBRANCH  32  39
ENDBRANCH  22  26
BRANCH  25  41
ATOM     41  O   LIG    1       -5.953  -1.235   0.028  0.00  0.00    -0.506 OA
ATOM     42  H   LIG    1       -6.281  -1.449   0.912  0.00  0.00    +0.292 HD
ENDBRANCH  25  41
ENDBRANCH   8  20
BRANCH   5  43
ATOM     43  O   LIG    1       -9.840   3.522   0.034  0.00  0.00    -0.506 OA
ATOM     44  H   LIG    1      -10.601   2.925   0.031  0.00  0.00    +0.292 HD
ENDBRANCH   5  43
BRANCH   7  45
ATOM     45  O   LIG    1       -6.201   1.602  -2.338  0.00  0.00    -0.506 OA
ATOM     46  H   LIG    1       -6.441   0.731  -2.681  0.00  0.00    +0.292 HD
ENDBRANCH   7  45
TORSDOF 9
