REMARK  Name = ZINC03995307
REMARK                            x       y       z     vdW  Elec       q    Type
REMARK                         _______ _______ _______ _____ _____    ______ ____
ROOT
ATOM      1  N   LIG    1       -1.382  -3.580  -1.830  0.00  0.00    -0.329 N 
ATOM      2  C   LIG    1       -1.453  -4.210  -3.051  0.00  0.00    +0.069 A 
ATOM      3  C   LIG    1       -1.345  -3.754  -4.369  0.00  0.00    +0.030 A 
ATOM      4  C   LIG    1       -1.459  -4.620  -5.409  0.00  0.00    +0.030 A 
ATOM      5  C   LIG    1       -1.698  -6.041  -5.147  0.00  0.00    +0.076 A 
ATOM      6  C   LIG    1       -1.805  -6.488  -3.808  0.00  0.00    +0.058 A 
ATOM      7  C   LIG    1       -1.683  -5.573  -2.772  0.00  0.00    +0.091 A 
ATOM      8  N   LIG    1       -1.737  -5.695  -1.417  0.00  0.00    -0.232 NA
ATOM      9  C   LIG    1       -1.555  -4.530  -0.869  0.00  0.00    +0.115 A 
ENDROOT
BRANCH   5  10
ATOM     10  N   LIG    1       -1.812  -6.898  -6.151  0.00  0.00    -0.197 NA
ATOM     11  C   LIG    1       -1.717  -6.495  -7.331  0.00  0.00    +0.041 C 
ATOM     12  S   LIG    1       -1.598  -5.994  -8.796  0.00  0.00    +0.021 S 
ENDBRANCH   5  10
BRANCH   1  13
ATOM     13  C   LIG    1       -1.155  -2.151  -1.603  0.00  0.00    +0.105 C 
BRANCH  13  14
ATOM     14  C   LIG    1        0.348  -1.884  -1.496  0.00  0.00    -0.057 C 
BRANCH  14  15
ATOM     15  N   LIG    1        0.576  -0.451  -1.269  0.00  0.00    +0.380 N 
ATOM     16  H   LIG    1        0.124   0.081  -1.998  0.00  0.00    -0.082 HD
BRANCH  15  18
ATOM     17  C   LIG    1        0.129   1.449   0.210  0.00  0.00    -0.017 C 
ATOM     18  C   LIG    1        0.019  -0.067   0.035  0.00  0.00    -0.082 C 
ENDBRANCH  15  18
BRANCH  15  19
ATOM     19  C   LIG    1        2.019  -0.176  -1.285  0.00  0.00    -0.082 C 
ATOM     20  C   LIG    1        2.573  -0.440  -2.687  0.00  0.00    -0.017 C 
ENDBRANCH  15  19
ENDBRANCH  14  15
ENDBRANCH  13  14
ENDBRANCH   1  13
BRANCH   9  21
ATOM     21  C   LIG    1       -1.543  -4.267   0.615  0.00  0.00    +0.109 C 
BRANCH  21  22
ATOM     22  C   LIG    1       -2.941  -3.953   1.081  0.00  0.00    -0.040 A 
ATOM     23  C   LIG    1       -3.390  -2.645   1.082  0.00  0.00    +0.007 A 
ATOM     24  C   LIG    1       -4.671  -2.353   1.509  0.00  0.00    +0.046 A 
ATOM     25  C   LIG    1       -5.507  -3.374   1.937  0.00  0.00    +0.121 A 
ATOM     26  C   LIG    1       -5.054  -4.686   1.935  0.00  0.00    +0.046 A 
ATOM     27  C   LIG    1       -3.774  -4.972   1.502  0.00  0.00    +0.007 A 
BRANCH  25  28
ATOM     28  O   LIG    1       -6.768  -3.090   2.358  0.00  0.00    -0.492 OA
BRANCH  28  29
ATOM     29  C   LIG    1       -7.573  -4.191   2.785  0.00  0.00    +0.225 C 
ATOM     30  C   LIG    1       -8.947  -3.679   3.220  0.00  0.00    +0.048 C 
ENDBRANCH  28  29
ENDBRANCH  25  28
ENDBRANCH  21  22
ENDBRANCH   9  21
TORSDOF 10
