REMARK  Name = ZINC03874851
REMARK                            x       y       z     vdW  Elec       q    Type
REMARK                         _______ _______ _______ _____ _____    ______ ____
ROOT
ATOM      1  N   LIG    1       -0.732   1.579  -1.182  0.00  0.00    +0.381 N 
ATOM      2  H   LIG    1       -0.746   2.605  -1.168  0.00  0.00    -0.086 HD
ATOM      3  H   LIG    1       -1.695   1.223  -1.167  0.00  0.00    -0.086 HD
ENDROOT
BRANCH   1   5
ATOM      4  C   LIG    1        1.067   2.084  -2.772  0.00  0.00    -0.013 C 
ATOM      5  C   LIG    1       -0.062   1.117  -2.413  0.00  0.00    -0.071 C 
BRANCH   5   6
ATOM      6  C   LIG    1       -1.081   1.076  -3.553  0.00  0.00    +0.019 C 
BRANCH   6   7
ATOM      7  C   LIG    1       -2.128   0.034  -3.254  0.00  0.00    -0.049 A 
ATOM      8  C   LIG    1       -1.950  -1.268  -3.683  0.00  0.00    +0.003 A 
ATOM      9  C   LIG    1       -2.909  -2.224  -3.404  0.00  0.00    +0.000 A 
ATOM     10  C   LIG    1       -4.050  -1.876  -2.706  0.00  0.00    +0.000 A 
ATOM     11  C   LIG    1       -4.231  -0.573  -2.282  0.00  0.00    +0.000 A 
ATOM     12  C   LIG    1       -3.270   0.382  -2.556  0.00  0.00    +0.003 A 
ENDBRANCH   6   7
ENDBRANCH   5   6
ENDBRANCH   1   5
BRANCH   1  13
ATOM     13  C   LIG    1       -0.013   1.086   0.008  0.00  0.00    -0.082 C 
BRANCH  13  14
ATOM     14  C   LIG    1       -0.729   1.579   1.267  0.00  0.00    -0.014 C 
BRANCH  14  15
ATOM     15  C   LIG    1        0.011   1.072   2.506  0.00  0.00    +0.033 C 
BRANCH  15  16
ATOM     16  C   LIG    1       -0.694   1.558   3.746  0.00  0.00    -0.047 A 
ATOM     17  C   LIG    1       -0.336   2.765   4.317  0.00  0.00    +0.003 A 
ATOM     18  C   LIG    1       -0.986   3.213   5.452  0.00  0.00    +0.000 A 
ATOM     19  C   LIG    1       -1.988   2.450   6.021  0.00  0.00    +0.000 A 
ATOM     20  C   LIG    1       -2.342   1.240   5.454  0.00  0.00    +0.000 A 
ATOM     21  C   LIG    1       -1.696   0.794   4.316  0.00  0.00    +0.003 A 
ENDBRANCH  15  16
ENDBRANCH  14  15
ENDBRANCH  13  14
ENDBRANCH   1  13
TORSDOF 7
