REMARK  Name = ZINC03981368
REMARK                            x       y       z     vdW  Elec       q    Type
REMARK                         _______ _______ _______ _____ _____    ______ ____
ROOT
ATOM      1  C   LIG    1        3.262   2.466  -1.299  0.00  0.00    +0.040 C 
ATOM      2  C   LIG    1        3.680   1.435  -0.231  0.00  0.00    +0.009 C 
ATOM      3  C   LIG    1        3.603   1.847   1.241  0.00  0.00    +0.104 C 
ATOM      4  C   LIG    1        2.420   1.123   0.596  0.00  0.00    +0.009 C 
ATOM      5  C   LIG    1        1.280   1.975   0.000  0.00  0.00    +0.063 C 
ATOM      6  C   LIG    1        1.735   2.256  -1.453  0.00  0.00    +0.166 C 
ATOM      7  F   LIG    1        1.123   3.411  -1.950  0.00  0.00    -0.246 F 
ENDROOT
BRANCH   5   8
ATOM      8  N   LIG    1        1.157   3.241   0.744  0.00  0.00    +0.391 N 
ATOM      9  H   LIG    1        2.041   3.759   0.679  0.00  0.00    -0.088 HD
ATOM     10  H   LIG    1        0.954   3.053   1.724  0.00  0.00    -0.088 HD
ATOM     11  H   LIG    1        0.410   3.809   0.346  0.00  0.00    -0.088 HD
ENDBRANCH   5   8
BRANCH   3  12
ATOM     12  C   LIG    1        4.441   1.071   2.224  0.00  0.00    +0.308 C 
ATOM     13  O   LIG    1        4.167  -0.078   2.476  0.00  0.00    -0.251 OA
BRANCH  12  14
ATOM     14  O   LIG    1        5.492   1.657   2.820  0.00  0.00    -0.480 OA
ATOM     15  H   LIG    1        5.704   2.549   2.625  0.00  0.00    +0.295 HD
ENDBRANCH  12  14
ENDBRANCH   3  12
BRANCH   5  16
ATOM     16  C   LIG    1       -0.014   1.204   0.009  0.00  0.00    +0.296 C 
ATOM     17  O   LIG    1        0.002  -0.004   0.002  0.00  0.00    -0.252 OA
BRANCH  16  18
ATOM     18  O   LIG    1       -1.186   1.859   0.018  0.00  0.00    -0.482 OA
ATOM     19  H   LIG    1       -1.198   2.796   0.023  0.00  0.00    +0.295 HD
ENDBRANCH  16  18
ENDBRANCH   5  16
TORSDOF 5
