REMARK  Name = ZINC03960057
REMARK                            x       y       z     vdW  Elec       q    Type
REMARK                         _______ _______ _______ _____ _____    ______ ____
ROOT
ATOM      1  C   LIG    1        4.924   1.352  -0.121  0.00  0.00    -0.017 A 
ATOM      2  C   LIG    1        4.925  -0.051  -0.128  0.00  0.00    +0.009 A 
ATOM      3  C   LIG    1        6.092  -0.749  -0.116  0.00  0.00    +0.011 A 
ATOM      4  C   LIG    1        7.314  -0.061  -0.098  0.00  0.00    +0.007 A 
ATOM      5  C   LIG    1        7.324   1.357  -0.092  0.00  0.00    +0.045 A 
ATOM      6  C   LIG    1        8.618   2.038  -0.074  0.00  0.00    +0.240 A 
ATOM      7  N   LIG    1        9.728   1.309  -0.063  0.00  0.00    -0.220 NA
ATOM      8  C   LIG    1        9.707  -0.015  -0.069  0.00  0.00    +0.135 A 
ATOM      9  C   LIG    1        8.552  -0.735  -0.086  0.00  0.00    +0.067 A 
ATOM     10 CL   LIG    1        8.603  -2.470  -0.093  0.00  0.00    -0.081 Cl
ATOM     11  C   LIG    1        6.117   2.057  -0.109  0.00  0.00    +0.022 A 
ENDROOT
BRANCH   1  14
ATOM     12  C   LIG    1        2.429   4.169  -0.140  0.00  0.00    +0.001 A 
ATOM     13  C   LIG    1        3.627   3.482  -0.128  0.00  0.00    +0.008 A 
ATOM     14  C   LIG    1        3.636   2.087  -0.134  0.00  0.00    -0.017 A 
ATOM     15  C   LIG    1        2.434   1.387  -0.153  0.00  0.00    +0.023 A 
ATOM     16  C   LIG    1        1.227   2.084  -0.165  0.00  0.00    +0.059 A 
ATOM     17  C   LIG    1        1.233   3.482  -0.163  0.00  0.00    +0.015 A 
BRANCH  16  18
ATOM     18  C   LIG    1       -0.054   1.349  -0.185  0.00  0.00    +0.337 C 
ATOM     19  O   LIG    1       -0.056   0.134  -0.191  0.00  0.00    -0.245 OA
BRANCH  18  20
ATOM     20  O   LIG    1       -1.219   2.025  -0.202  0.00  0.00    -0.477 OA
ATOM     21  H   LIG    1       -1.217   2.962  -0.197  0.00  0.00    +0.295 HD
ENDBRANCH  18  20
ENDBRANCH  16  18
ENDBRANCH   1  14
BRANCH   6  22
ATOM     22  N   LIG    1        8.684   3.395  -0.068  0.00  0.00    -0.052 NA
ATOM     23  C   LIG    1        8.625   4.053   1.072  0.00  0.00    +0.384 C 
BRANCH  23  24
ATOM     24  N   LIG    1        8.573   5.421   1.071  0.00  0.00    -0.289 N 
ATOM     25  H   LIG    1        8.529   5.905   1.911  0.00  0.00    +0.255 HD
ATOM     26  H   LIG    1        8.580   5.906   0.231  0.00  0.00    +0.255 HD
ENDBRANCH  23  24
BRANCH  23  27
ATOM     27  N   LIG    1        8.615   3.368   2.258  0.00  0.00    -0.289 N 
ATOM     28  H   LIG    1        8.493   3.846   3.093  0.00  0.00    +0.255 HD
ATOM     29  H   LIG    1        8.729   2.405   2.262  0.00  0.00    +0.255 HD
ENDBRANCH  23  27
ENDBRANCH   6  22
TORSDOF 6
