REMARK  Name = ZINC03938683
REMARK                            x       y       z     vdW  Elec       q    Type
REMARK                         _______ _______ _______ _____ _____    ______ ____
ROOT
ATOM      1  C   LIG    1       -0.055   2.121   8.529  0.00  0.00    +0.082 A 
ATOM      2  C   LIG    1        1.202   2.523   8.051  0.00  0.00    +0.063 A 
ATOM      3  C   LIG    1        2.265   1.616   8.051  0.00  0.00    +0.018 A 
ATOM      4  C   LIG    1        2.075   0.333   8.514  0.00  0.00    +0.042 A 
ATOM      5  C   LIG    1        0.830  -0.066   8.982  0.00  0.00    +0.160 A 
ATOM      6  F   LIG    1        0.655  -1.327   9.433  0.00  0.00    -0.202 F 
ATOM      7  C   LIG    1       -0.233   0.821   8.987  0.00  0.00    +0.180 A 
ATOM      8  F   LIG    1       -1.441   0.425   9.443  0.00  0.00    -0.201 F 
ENDROOT
BRANCH   2   9
ATOM      9  C   LIG    1        1.402   3.897   7.557  0.00  0.00    +0.269 C 
ATOM     10  N   LIG    1        2.636   4.317   7.213  0.00  0.00    -0.190 N 
ATOM     11  H   LIG    1        3.392   3.715   7.291  0.00  0.00    +0.183 HD
ATOM     12  O   LIG    1        0.454   4.652   7.460  0.00  0.00    -0.268 OA
BRANCH  10  13
ATOM     13  O   LIG    1        2.828   5.637   6.739  0.00  0.00    -0.277 OA
BRANCH  13  14
ATOM     14  C   LIG    1        4.184   5.946   6.412  0.00  0.00    +0.223 C 
BRANCH  14  15
ATOM     15  C   LIG    1        4.272   7.390   5.914  0.00  0.00    +0.168 C 
BRANCH  15  16
ATOM     16  O   LIG    1        3.550   7.516   4.687  0.00  0.00    -0.387 OA
ATOM     17  H   LIG    1        3.879   6.948   3.977  0.00  0.00    +0.210 HD
ENDBRANCH  15  16
BRANCH  15  18
ATOM     18  C   LIG    1        5.739   7.761   5.682  0.00  0.00    +0.189 C 
BRANCH  18  19
ATOM     19  O   LIG    1        5.831   9.142   5.329  0.00  0.00    -0.392 OA
ATOM     20  H   LIG    1        6.734   9.448   5.167  0.00  0.00    +0.210 HD
ENDBRANCH  18  19
ENDBRANCH  15  18
ENDBRANCH  14  15
ENDBRANCH  13  14
ENDBRANCH  10  13
ENDBRANCH   2   9
BRANCH   1  21
ATOM     21  N   LIG    1       -1.119   3.017   8.538  0.00  0.00    -0.309 N 
ATOM     22  H   LIG    1       -1.747   3.032   7.799  0.00  0.00    +0.152 HD
BRANCH  21  25
ATOM     23  C   LIG    1       -0.480   4.838  11.668  0.00  0.00    +0.016 A 
ATOM     24  C   LIG    1       -0.316   3.968  10.607  0.00  0.00    +0.027 A 
ATOM     25  C   LIG    1       -1.283   3.896   9.613  0.00  0.00    +0.067 A 
ATOM     26  C   LIG    1       -2.412   4.705   9.687  0.00  0.00    +0.145 A 
ATOM     27  F   LIG    1       -3.353   4.643   8.719  0.00  0.00    -0.204 F 
ATOM     28  C   LIG    1       -2.574   5.568  10.754  0.00  0.00    +0.054 A 
ATOM     29  C   LIG    1       -1.607   5.637  11.742  0.00  0.00    +0.016 A 
ATOM     30  I   LIG    1       -1.851   6.953  13.353  0.00  0.00    -0.044 I 
ENDBRANCH  21  25
ENDBRANCH   1  21
TORSDOF 9
