REMARK  Name = ZINC03938482
REMARK                            x       y       z     vdW  Elec       q    Type
REMARK                         _______ _______ _______ _____ _____    ______ ____
ROOT
ATOM      1  C   LIG    1       12.628  -1.321   1.316  0.00  0.00    +0.030 A 
ATOM      2  C   LIG    1       13.136  -2.148   2.309  0.00  0.00    +0.027 A 
ATOM      3  C   LIG    1       14.469  -2.509   2.290  0.00  0.00    +0.047 A 
ATOM      4  C   LIG    1       15.302  -2.037   1.287  0.00  0.00    +0.121 A 
ATOM      5  C   LIG    1       14.796  -1.207   0.298  0.00  0.00    +0.047 A 
ATOM      6  C   LIG    1       13.462  -0.849   0.311  0.00  0.00    +0.027 A 
ENDROOT
BRANCH   1  10
ATOM      7  N   LIG    1        8.939   0.248   2.418  0.00  0.00    -0.327 N 
ATOM      8  C   LIG    1        9.634   0.856   1.275  0.00  0.00    +0.124 C 
ATOM      9  C   LIG    1       11.122   0.502   1.340  0.00  0.00    +0.124 C 
ATOM     10  N   LIG    1       11.276  -0.960   1.330  0.00  0.00    -0.327 N 
ATOM     11  C   LIG    1       10.580  -1.567   2.473  0.00  0.00    +0.124 C 
ATOM     12  C   LIG    1        9.093  -1.213   2.409  0.00  0.00    +0.124 C 
BRANCH   7  16
ATOM     13  C   LIG    1        4.913   1.325   2.461  0.00  0.00    +0.053 A 
ATOM     14  C   LIG    1        5.272  -0.015   2.456  0.00  0.00    +0.028 A 
ATOM     15  C   LIG    1        6.606  -0.373   2.436  0.00  0.00    +0.025 A 
ATOM     16  C   LIG    1        7.588   0.610   2.433  0.00  0.00    +0.030 A 
ATOM     17  C   LIG    1        7.228   1.951   2.444  0.00  0.00    +0.025 A 
ATOM     18  C   LIG    1        5.894   2.308   2.457  0.00  0.00    +0.028 A 
BRANCH  13  21
ATOM     19  N   LIG    1        1.386   1.579   2.496  0.00  0.00    -0.207 N 
ATOM     20  C   LIG    1        2.512   0.836   2.487  0.00  0.00    +0.351 A 
ATOM     21  N   LIG    1        3.557   1.688   2.475  0.00  0.00    -0.250 N 
ATOM     22  C   LIG    1        3.067   2.973   2.488  0.00  0.00    +0.230 A 
ATOM     23  O   LIG    1        2.573  -0.380   2.486  0.00  0.00    -0.244 OA
ATOM     24  N   LIG    1        1.774   2.926   2.500  0.00  0.00    -0.157 NA
BRANCH  19  25
ATOM     25  C   LIG    1        0.011   1.072   2.506  0.00  0.00    +0.140 C 
BRANCH  25  27
ATOM     26  C   LIG    1       -0.040   0.958   5.002  0.00  0.00    +0.006 C 
ATOM     27  C   LIG    1       -0.705   1.566   3.765  0.00  0.00    +0.026 C 
ENDBRANCH  25  27
BRANCH  25  28
ATOM     28  C   LIG    1       -0.729   1.579   1.267  0.00  0.00    +0.136 C 
ATOM     29  C   LIG    1       -0.013   1.086   0.008  0.00  0.00    +0.040 C 
BRANCH  28  30
ATOM     30  O   LIG    1       -0.748   3.008   1.275  0.00  0.00    -0.390 OA
ATOM     31  H   LIG    1        0.130   3.413   1.268  0.00  0.00    +0.210 HD
ENDBRANCH  28  30
ENDBRANCH  25  28
ENDBRANCH  19  25
ENDBRANCH  13  21
ENDBRANCH   7  16
ENDBRANCH   1  10
BRANCH   4  32
ATOM     32  O   LIG    1       16.616  -2.388   1.273  0.00  0.00    -0.492 OA
BRANCH  32  33
ATOM     33  C   LIG    1       17.070  -3.245   2.323  0.00  0.00    +0.235 C 
BRANCH  33  34
ATOM     34  C   LIG    1       18.562  -3.528   2.141  0.00  0.00    +0.055 C 
ATOM     35  C   LIG    1       19.117  -4.352   3.328  0.00  0.00    +0.051 C 
ATOM     36  C   LIG    1       20.062  -5.376   2.669  0.00  0.00    +0.117 C 
ATOM     37  O   LIG    1       20.066  -5.106   1.258  0.00  0.00    -0.366 OA
ATOM     38  C   LIG    1       18.802  -4.482   0.943  0.00  0.00    +0.168 C 
BRANCH  36  39
ATOM     39  C   LIG    1       21.453  -5.223   3.228  0.00  0.00    +0.021 A 
ATOM     40  C   LIG    1       22.505  -4.912   2.387  0.00  0.00    +0.012 A 
ATOM     41  C   LIG    1       23.781  -4.770   2.898  0.00  0.00    +0.039 A 
ATOM     42  C   LIG    1       24.007  -4.941   4.254  0.00  0.00    +0.126 A 
ATOM     43  F   LIG    1       25.255  -4.803   4.753  0.00  0.00    -0.205 F 
ATOM     44  C   LIG    1       22.955  -5.253   5.097  0.00  0.00    +0.077 A 
ATOM     45  C   LIG    1       21.676  -5.389   4.584  0.00  0.00    +0.132 A 
ATOM     46  F   LIG    1       20.647  -5.688   5.407  0.00  0.00    -0.205 F 
ENDBRANCH  36  39
BRANCH  36  47
ATOM     47  C   LIG    1       19.551  -6.795   2.925  0.00  0.00    +0.185 C 
BRANCH  47  48
ATOM     48  N   LIG    1       20.517  -7.764   2.399  0.00  0.00    -0.249 N 
ATOM     49  C   LIG    1       21.104  -8.765   3.077  0.00  0.00    +0.219 A 
ATOM     50  N   LIG    1       21.897  -9.402   2.253  0.00  0.00    -0.223 NA
ATOM     51  C   LIG    1       21.848  -8.834   1.049  0.00  0.00    +0.244 A 
ATOM     52  N   LIG    1       21.016  -7.827   1.088  0.00  0.00    -0.158 NA
ENDBRANCH  47  48
ENDBRANCH  36  47
ENDBRANCH  33  34
ENDBRANCH  32  33
ENDBRANCH   4  32
TORSDOF 13
