REMARK  Name = ZINC03962980
REMARK                            x       y       z     vdW  Elec       q    Type
REMARK                         _______ _______ _______ _____ _____    ______ ____
ROOT
ATOM      1  C   LIG    1       -0.780   7.242   0.050  0.00  0.00    +0.223 A 
ATOM      2  N   LIG    1        0.561   7.250   0.038  0.00  0.00    -0.106 NA
ATOM      3  N   LIG    1        0.951   6.021   0.032  0.00  0.00    -0.041 NA
ATOM      4  N   LIG    1       -0.083   5.254   0.032  0.00  0.00    -0.130 N 
ATOM      5  N   LIG    1       -1.150   5.976   0.046  0.00  0.00    -0.124 NA
ENDROOT
BRANCH   1  10
ATOM      6  C   LIG    1       -1.970  10.802   0.084  0.00  0.00    +0.004 A 
ATOM      7  C   LIG    1       -3.340  10.581   0.096  0.00  0.00    +0.020 A 
ATOM      8  C   LIG    1       -3.817   9.283   0.092  0.00  0.00    +0.111 A 
ATOM      9  N   LIG    1       -2.989   8.258   0.073  0.00  0.00    -0.252 NA
ATOM     10  C   LIG    1       -1.674   8.427   0.067  0.00  0.00    +0.111 A 
ATOM     11  C   LIG    1       -1.124   9.707   0.070  0.00  0.00    +0.031 A 
ENDBRANCH   1  10
BRANCH   4  12
ATOM     12  C   LIG    1       -0.052   3.852   0.023  0.00  0.00    +0.089 A 
ATOM     13  C   LIG    1       -1.241   3.132   0.031  0.00  0.00    +0.030 A 
ATOM     14  C   LIG    1       -1.217   1.750   0.017  0.00  0.00    +0.003 A 
ATOM     15  C   LIG    1       -0.013   1.076   0.008  0.00  0.00    +0.019 A 
ATOM     16  C   LIG    1        1.187   1.791   0.000  0.00  0.00    +0.054 A 
ATOM     17  C   LIG    1        1.162   3.186   0.008  0.00  0.00    +0.048 A 
BRANCH  16  18
ATOM     18  C   LIG    1        2.438   1.094  -0.016  0.00  0.00    +0.099 C 
ATOM     19  N   LIG    1        3.431   0.542  -0.029  0.00  0.00    -0.191 NA
ENDBRANCH  16  18
ENDBRANCH   4  12
TORSDOF 3
