REMARK  Name = ZINC03936088
REMARK                            x       y       z     vdW  Elec       q    Type
REMARK                         _______ _______ _______ _____ _____    ______ ____
ROOT
ATOM      1  C   LIG    1        2.221   1.600  -1.044  0.00  0.00    +0.019 C 
ATOM      2  C   LIG    1        1.219   2.090   0.002  0.00  0.00    +0.101 C 
ATOM      3  C   LIG    1        0.656   3.471  -0.390  0.00  0.00    +0.044 C 
ATOM      4  C   LIG    1        1.382   4.599   0.295  0.00  0.00    +0.011 C 
ATOM      5  C   LIG    1        0.760   5.963  -0.025  0.00  0.00    +0.035 C 
ATOM      6  C   LIG    1       -0.537   6.189   0.744  0.00  0.00    +0.067 C 
ATOM      7  C   LIG    1       -0.692   7.708   0.956  0.00  0.00    +0.041 C 
ATOM      8  C   LIG    1       -1.758   5.689  -0.015  0.00  0.00    +0.035 C 
ATOM      9  C   LIG    1       -2.950   5.512   0.962  0.00  0.00    +0.034 C 
ATOM     10  C   LIG    1       -3.798   4.446   0.297  0.00  0.00    -0.027 C 
ATOM     11  C   LIG    1       -3.101   3.798  -0.601  0.00  0.00    -0.070 C 
ATOM     12  C   LIG    1       -3.651   2.728  -1.506  0.00  0.00    +0.039 C 
ATOM     13  C   LIG    1       -1.669   4.293  -0.611  0.00  0.00    +0.061 C 
ATOM     14  C   LIG    1       -0.778   3.368   0.188  0.00  0.00    +0.188 C 
ATOM     15  O   LIG    1       -1.121   1.965   0.004  0.00  0.00    -0.460 OA
ATOM     16  C   LIG    1       -0.014   1.204   0.009  0.00  0.00    +0.311 C 
ATOM     17  O   LIG    1        0.002  -0.004   0.002  0.00  0.00    -0.251 OA
ENDROOT
BRANCH   6  18
ATOM     18  O   LIG    1       -0.447   5.582   2.031  0.00  0.00    -0.389 OA
ATOM     19  H   LIG    1        0.271   5.928   2.580  0.00  0.00    +0.210 HD
ENDBRANCH   6  18
TORSDOF 1
