REMARK  Name = ZINC03917574
REMARK                            x       y       z     vdW  Elec       q    Type
REMARK                         _______ _______ _______ _____ _____    ______ ____
ROOT
ATOM      1  C   LIG    1       -5.774  -1.772  -2.216  0.00  0.00    +0.044 C 
ATOM      2  C   LIG    1       -5.912  -0.514  -1.394  0.00  0.00    -0.039 A 
ATOM      3  C   LIG    1       -7.173   0.035  -1.276  0.00  0.00    +0.050 A 
ATOM      4  C   LIG    1       -7.358   1.306  -0.740  0.00  0.00    +0.129 A 
ATOM      5  C   LIG    1       -6.239   2.090  -0.444  0.00  0.00    +0.072 A 
ATOM      6  C   LIG    1       -4.957   1.530  -0.614  0.00  0.00    +0.006 A 
ATOM      7  C   LIG    1       -3.781   2.394  -0.594  0.00  0.00    +0.000 A 
ATOM      8  C   LIG    1       -3.917   3.818  -0.306  0.00  0.00    +0.009 A 
ATOM      9  C   LIG    1       -2.777   4.650  -0.348  0.00  0.00    +0.036 A 
ATOM     10  C   LIG    1       -1.538   4.133  -0.929  0.00  0.00    +0.036 A 
ATOM     11  C   LIG    1       -1.373   2.732  -1.038  0.00  0.00    +0.009 A 
ATOM     12  C   LIG    1       -0.108   2.186  -1.354  0.00  0.00    +0.072 A 
ATOM     13  C   LIG    1        0.957   3.049  -1.639  0.00  0.00    +0.132 A 
ATOM     14  C   LIG    1        0.745   4.422  -1.669  0.00  0.00    +0.092 A 
ATOM     15  C   LIG    1        0.072   0.730  -1.368  0.00  0.00    +0.201 C 
ATOM     16  O   LIG    1        1.156   0.250  -1.651  0.00  0.00    -0.286 OA
ATOM     17  C   LIG    1       -1.059  -0.150  -1.040  0.00  0.00    +0.072 A 
ATOM     18  C   LIG    1       -2.348   0.398  -0.881  0.00  0.00    +0.006 A 
ATOM     19  C   LIG    1       -3.476  -0.447  -0.695  0.00  0.00    -0.003 A 
ATOM     20  C   LIG    1       -3.219  -1.763  -0.323  0.00  0.00    -0.010 A 
ATOM     21  C   LIG    1       -1.962  -2.307  -0.471  0.00  0.00    +0.052 A 
ATOM     22  C   LIG    1       -0.882  -1.526  -0.871  0.00  0.00    +0.129 A 
ATOM     23  C   LIG    1       -0.505   4.955  -1.406  0.00  0.00    +0.129 A 
ATOM     24  C   LIG    1       -2.881   5.938   0.206  0.00  0.00    +0.129 A 
ATOM     25  C   LIG    1       -4.126   6.472   0.493  0.00  0.00    +0.092 A 
ATOM     26  C   LIG    1       -5.277   5.698   0.401  0.00  0.00    +0.132 A 
ATOM     27  C   LIG    1       -5.183   4.351   0.028  0.00  0.00    +0.072 A 
ATOM     28  C   LIG    1       -2.516   1.848  -0.843  0.00  0.00    +0.000 A 
ATOM     29  C   LIG    1       -6.373   3.494  -0.031  0.00  0.00    +0.201 C 
ATOM     30  O   LIG    1       -7.465   3.943   0.266  0.00  0.00    -0.286 OA
ATOM     31  C   LIG    1       -4.801   0.145  -0.866  0.00  0.00    -0.005 A 
ENDROOT
BRANCH   4  32
ATOM     32  O   LIG    1       -8.610   1.764  -0.508  0.00  0.00    -0.506 OA
ATOM     33  H   LIG    1       -8.999   2.240  -1.255  0.00  0.00    +0.292 HD
ENDBRANCH   4  32
BRANCH  13  34
ATOM     34  O   LIG    1        2.196   2.560  -1.884  0.00  0.00    -0.506 OA
ATOM     35  H   LIG    1        2.366   2.368  -2.816  0.00  0.00    +0.292 HD
ENDBRANCH  13  34
BRANCH  22  36
ATOM     36  O   LIG    1        0.330  -2.099  -1.061  0.00  0.00    -0.506 OA
ATOM     37  H   LIG    1        0.877  -2.135  -0.265  0.00  0.00    +0.292 HD
ENDBRANCH  22  36
BRANCH  23  38
ATOM     38  O   LIG    1       -0.703   6.275  -1.645  0.00  0.00    -0.506 OA
ATOM     39  H   LIG    1       -1.034   6.469  -2.533  0.00  0.00    +0.292 HD
ENDBRANCH  23  38
BRANCH  24  40
ATOM     40  O   LIG    1       -1.783   6.677   0.495  0.00  0.00    -0.506 OA
ATOM     41  H   LIG    1       -1.422   6.517   1.377  0.00  0.00    +0.292 HD
ENDBRANCH  24  40
BRANCH  26  42
ATOM     42  O   LIG    1       -6.480   6.258   0.668  0.00  0.00    -0.506 OA
ATOM     43  H   LIG    1       -6.748   6.191   1.595  0.00  0.00    +0.292 HD
ENDBRANCH  26  42
BRANCH  20  44
ATOM     44  C   LIG    1       -4.261  -2.606   0.376  0.00  0.00    +0.191 C 
BRANCH  44  45
ATOM     45  O   LIG    1       -3.725  -3.904   0.638  0.00  0.00    -0.390 OA
ATOM     46  H   LIG    1       -4.341  -4.500   1.086  0.00  0.00    +0.210 HD
ENDBRANCH  44  45
ENDBRANCH  20  44
TORSDOF 8
