REMARK  Name = ZINC03914596
REMARK                            x       y       z     vdW  Elec       q    Type
REMARK                         _______ _______ _______ _____ _____    ______ ____
ROOT
ATOM      1  C   LIG    1        0.408  -0.727  -0.836  0.00  0.00    +0.104 C 
ENDROOT
BRANCH   1   2
ATOM      2  N   LIG    1        0.751  -2.151  -0.892  0.00  0.00    -0.308 N 
ATOM      3  H   LIG    1        0.205  -2.800  -0.421  0.00  0.00    +0.149 HD
ATOM      4  C   LIG    1        1.823  -2.558  -1.600  0.00  0.00    +0.234 C 
ATOM      5  O   LIG    1        2.504  -1.746  -2.190  0.00  0.00    -0.274 OA
BRANCH   4   6
ATOM      6  C   LIG    1        2.175  -4.022  -1.659  0.00  0.00    +0.168 C 
BRANCH   6   7
ATOM      7  N   LIG    1        3.371  -4.204  -2.484  0.00  0.00    -0.298 N 
ATOM      8  H   LIG    1        4.024  -3.490  -2.557  0.00  0.00    +0.150 HD
ATOM      9  C   LIG    1        3.566  -5.364  -3.142  0.00  0.00    +0.263 C 
ATOM     10  O   LIG    1        2.797  -6.291  -2.980  0.00  0.00    -0.269 OA
BRANCH   9  11
ATOM     11  C   LIG    1        4.719  -5.510  -4.063  0.00  0.00    +0.126 A 
ATOM     12  C   LIG    1        4.910  -6.726  -4.735  0.00  0.00    +0.033 A 
ATOM     13  C   LIG    1        5.963  -6.870  -5.591  0.00  0.00    +0.012 A 
ATOM     14  C   LIG    1        6.839  -5.781  -5.760  0.00  0.00    +0.000 A 
ATOM     15  C   LIG    1        7.947  -5.862  -6.618  0.00  0.00    +0.010 A 
ATOM     16  C   LIG    1        8.772  -4.788  -6.757  0.00  0.00    +0.001 A 
ATOM     17  C   LIG    1        8.533  -3.606  -6.057  0.00  0.00    +0.002 A 
ATOM     18  C   LIG    1        7.470  -3.491  -5.216  0.00  0.00    +0.028 A 
ATOM     19  C   LIG    1        6.593  -4.580  -5.045  0.00  0.00    +0.072 A 
ATOM     20  N   LIG    1        5.544  -4.494  -4.228  0.00  0.00    -0.242 NA
ENDBRANCH   9  11
ENDBRANCH   6   7
BRANCH   6  21
ATOM     21  C   LIG    1        2.448  -4.538  -0.244  0.00  0.00    +0.127 C 
BRANCH  21  22
ATOM     22  C   LIG    1        3.644  -3.824   0.329  0.00  0.00    +0.213 C 
ATOM     23  N   LIG    1        4.124  -4.175   1.539  0.00  0.00    -0.329 N 
ATOM     24  H   LIG    1        4.894  -3.716   1.907  0.00  0.00    +0.145 HD
ATOM     25  H   LIG    1        3.698  -4.888   2.040  0.00  0.00    +0.145 HD
ATOM     26  O   LIG    1        4.176  -2.933  -0.298  0.00  0.00    -0.276 OA
ENDBRANCH  21  22
ENDBRANCH   6  21
ENDBRANCH   4   6
ENDBRANCH   1   2
BRANCH   1  27
ATOM     27  C   LIG    1       -0.385  -0.444   0.442  0.00  0.00    +0.119 C 
BRANCH  27  28
ATOM     28  O   LIG    1       -1.636  -1.132   0.388  0.00  0.00    -0.392 OA
ATOM     29  H   LIG    1       -2.195  -0.874  -0.358  0.00  0.00    +0.210 HD
ENDBRANCH  27  28
BRANCH  27  30
ATOM     30  C   LIG    1       -0.634   1.061   0.564  0.00  0.00    -0.044 C 
BRANCH  30  32
ATOM     31  C   LIG    1       -2.557   0.613   1.965  0.00  0.00    +0.020 C 
ATOM     32  N   LIG    1       -1.296   1.376   1.847  0.00  0.00    +0.389 N 
ATOM     33  H   LIG    1       -1.510   2.380   1.874  0.00  0.00    -0.081 HD
ATOM     34  C   LIG    1       -0.395   1.048   2.973  0.00  0.00    -0.074 C 
ATOM     35  C   LIG    1       -1.056   1.497   4.280  0.00  0.00    -0.025 C 
ATOM     36  C   LIG    1       -1.323   3.003   4.214  0.00  0.00    +0.002 C 
ATOM     37  C   LIG    1       -2.010   3.459   5.503  0.00  0.00    +0.000 C 
ATOM     38  C   LIG    1       -3.339   2.717   5.661  0.00  0.00    +0.000 C 
ATOM     39  C   LIG    1       -3.074   1.212   5.732  0.00  0.00    +0.004 C 
ATOM     40  C   LIG    1       -2.381   0.751   4.450  0.00  0.00    -0.011 C 
ATOM     41  C   LIG    1       -3.280   1.040   3.245  0.00  0.00    -0.003 C 
BRANCH  31  44
ATOM     42  N   LIG    1       -4.435   0.088   0.443  0.00  0.00    -0.312 N 
ATOM     43  H   LIG    1       -4.602  -0.706   0.974  0.00  0.00    +0.149 HD
ATOM     44  C   LIG    1       -3.426   0.919   0.773  0.00  0.00    +0.200 C 
ATOM     45  O   LIG    1       -3.218   1.913   0.109  0.00  0.00    -0.278 OA
BRANCH  42  47
ATOM     46  C   LIG    1       -4.416   0.436  -1.978  0.00  0.00    +0.031 C 
ATOM     47  C   LIG    1       -5.280   0.386  -0.716  0.00  0.00    +0.026 C 
ATOM     48  C   LIG    1       -5.966   1.738  -0.513  0.00  0.00    +0.031 C 
ATOM     49  C   LIG    1       -6.341  -0.706  -0.868  0.00  0.00    +0.031 C 
ENDBRANCH  42  47
ENDBRANCH  31  44
ENDBRANCH  30  32
ENDBRANCH  27  30
ENDBRANCH   1  27
BRANCH   1  50
ATOM     50  C   LIG    1       -0.439  -0.357  -2.054  0.00  0.00    +0.060 C 
BRANCH  50  51
ATOM     51  C   LIG    1        0.384  -0.520  -3.307  0.00  0.00    -0.046 A 
ATOM     52  C   LIG    1        1.121   0.544  -3.792  0.00  0.00    +0.004 A 
ATOM     53  C   LIG    1        1.879   0.394  -4.938  0.00  0.00    +0.000 A 
ATOM     54  C   LIG    1        1.893  -0.818  -5.604  0.00  0.00    +0.000 A 
ATOM     55  C   LIG    1        1.151  -1.880  -5.121  0.00  0.00    +0.000 A 
ATOM     56  C   LIG    1        0.397  -1.731  -3.973  0.00  0.00    +0.004 A 
ENDBRANCH  50  51
ENDBRANCH   1  50
TORSDOF 14
