REMARK  Name = ZINC03952359
REMARK                            x       y       z     vdW  Elec       q    Type
REMARK                         _______ _______ _______ _____ _____    ______ ____
ROOT
ATOM      1  C   LIG    1       -8.598  -3.280  -2.927  0.00  0.00    +0.159 C 
ENDROOT
BRANCH   1   3
ATOM      2  C   LIG    1      -10.411  -3.575  -1.327  0.00  0.00    +0.225 C 
ATOM      3  N   LIG    1       -9.713  -4.054  -2.376  0.00  0.00    -0.303 N 
ATOM      4  H   LIG    1       -9.949  -4.910  -2.766  0.00  0.00    +0.149 HD
ATOM      5  O   LIG    1      -10.116  -2.505  -0.839  0.00  0.00    -0.275 OA
BRANCH   2   6
ATOM      6  C   LIG    1      -11.558  -4.371  -0.759  0.00  0.00    +0.135 C 
BRANCH   6  10
ATOM      7  C   LIG    1      -10.130  -8.163   0.593  0.00  0.00    +0.000 A 
ATOM      8  C   LIG    1      -11.219  -8.097  -0.255  0.00  0.00    +0.000 A 
ATOM      9  C   LIG    1      -11.682  -6.870  -0.693  0.00  0.00    +0.005 A 
ATOM     10  C   LIG    1      -11.054  -5.709  -0.282  0.00  0.00    -0.031 A 
ATOM     11  C   LIG    1       -9.961  -5.775   0.562  0.00  0.00    +0.005 A 
ATOM     12  C   LIG    1       -9.502  -7.002   1.003  0.00  0.00    +0.000 A 
ENDBRANCH   6  10
BRANCH   6  13
ATOM     13  C   LIG    1      -12.166  -3.621   0.398  0.00  0.00    -0.031 A 
ATOM     14  C   LIG    1      -11.367  -3.199   1.444  0.00  0.00    +0.005 A 
ATOM     15  C   LIG    1      -11.923  -2.506   2.503  0.00  0.00    +0.000 A 
ATOM     16  C   LIG    1      -13.280  -2.246   2.522  0.00  0.00    +0.000 A 
ATOM     17  C   LIG    1      -14.081  -2.673   1.479  0.00  0.00    +0.000 A 
ATOM     18  C   LIG    1      -13.523  -3.361   0.417  0.00  0.00    +0.005 A 
ENDBRANCH   6  13
ENDBRANCH   2   6
ENDBRANCH   1   3
BRANCH   1  19
ATOM     19  C   LIG    1       -7.634  -4.211  -3.617  0.00  0.00    +0.234 C 
ATOM     20  N   LIG    1       -6.525  -3.718  -4.203  0.00  0.00    -0.310 N 
ATOM     21  H   LIG    1       -6.346  -2.765  -4.181  0.00  0.00    +0.149 HD
ATOM     22  O   LIG    1       -7.857  -5.402  -3.646  0.00  0.00    -0.274 OA
BRANCH  20  23
ATOM     23  C   LIG    1       -5.587  -4.623  -4.874  0.00  0.00    +0.139 C 
BRANCH  23  24
ATOM     24  C   LIG    1       -4.440  -3.827  -5.441  0.00  0.00    -0.030 A 
ATOM     25  C   LIG    1       -3.312  -3.599  -4.676  0.00  0.00    +0.005 A 
ATOM     26  C   LIG    1       -2.260  -2.869  -5.196  0.00  0.00    +0.005 A 
ATOM     27  C   LIG    1       -2.335  -2.368  -6.482  0.00  0.00    -0.030 A 
ATOM     28  C   LIG    1       -3.466  -2.592  -7.246  0.00  0.00    +0.005 A 
ATOM     29  C   LIG    1       -4.516  -3.326  -6.727  0.00  0.00    +0.005 A 
BRANCH  27  30
ATOM     30  C   LIG    1       -1.188  -1.573  -7.050  0.00  0.00    +0.141 C 
BRANCH  30  31
ATOM     31  N   LIG    1       -0.250  -2.477  -7.720  0.00  0.00    -0.295 N 
ATOM     32  H   LIG    1       -0.428  -3.431  -7.742  0.00  0.00    +0.151 HD
ATOM     33  C   LIG    1        0.856  -1.984  -8.310  0.00  0.00    +0.297 C 
ATOM     34  N   LIG    1        1.716  -2.816  -8.931  0.00  0.00    -0.313 N 
ATOM     35  H   LIG    1        2.513  -2.461  -9.356  0.00  0.00    +0.146 HD
ATOM     36  H   LIG    1        1.538  -3.769  -8.953  0.00  0.00    +0.146 HD
ATOM     37  O   LIG    1        1.079  -0.789  -8.282  0.00  0.00    -0.253 OA
ENDBRANCH  30  31
ENDBRANCH  27  30
ENDBRANCH  23  24
ENDBRANCH  20  23
ENDBRANCH   1  19
BRANCH   1  38
ATOM     38  C   LIG    1       -9.133  -2.261  -3.935  0.00  0.00    +0.035 C 
BRANCH  38  39
ATOM     39  C   LIG    1      -10.014  -1.241  -3.211  0.00  0.00    +0.039 C 
BRANCH  39  40
ATOM     40  C   LIG    1      -10.549  -0.222  -4.219  0.00  0.00    +0.196 C 
BRANCH  40  41
ATOM     41  N   LIG    1      -11.393   0.754  -3.525  0.00  0.00    -0.279 N 
ATOM     42  H   LIG    1      -11.531   0.682  -2.568  0.00  0.00    +0.258 HD
BRANCH  41  43
ATOM     43  C   LIG    1      -11.988   1.773  -4.231  0.00  0.00    +0.341 C 
ATOM     44  N   LIG    1      -11.759   1.816  -5.536  0.00  0.00    -0.292 N 
ATOM     45  H   LIG    1      -11.161   1.108  -5.976  0.00  0.00    +0.255 HD
ATOM     46  H   LIG    1      -12.179   2.553  -6.103  0.00  0.00    +0.255 HD
BRANCH  43  47
ATOM     47  N   LIG    1      -12.779   2.689  -3.580  0.00  0.00    -0.292 N 
ATOM     48  H   LIG    1      -13.199   3.408  -4.078  0.00  0.00    +0.255 HD
ATOM     49  H   LIG    1      -12.918   2.617  -2.623  0.00  0.00    +0.255 HD
ENDBRANCH  43  47
ENDBRANCH  41  43
ENDBRANCH  40  41
ENDBRANCH  39  40
ENDBRANCH  38  39
ENDBRANCH   1  38
TORSDOF 15
