REMARK  Name = ZINC03978503
REMARK                            x       y       z     vdW  Elec       q    Type
REMARK                         _______ _______ _______ _____ _____    ______ ____
ROOT
ATOM      1  C   LIG    1       -1.294  -0.774   0.010  0.00  0.00    +0.244 C 
ATOM      2  C   LIG    1       -1.822  -0.910  -1.423  0.00  0.00    +0.226 C 
ATOM      3  C   LIG    1       -3.076  -1.788  -1.391  0.00  0.00    +0.091 C 
ATOM      4  C   LIG    1       -4.004  -1.308  -0.304  0.00  0.00    +0.039 A 
ATOM      5  C   LIG    1       -5.336  -1.705  -0.341  0.00  0.00    +0.127 A 
ATOM      6  C   LIG    1       -6.217  -1.286   0.643  0.00  0.00    +0.091 A 
ATOM      7  C   LIG    1       -5.767  -0.469   1.670  0.00  0.00    +0.124 A 
ATOM      8  C   LIG    1       -4.441  -0.073   1.706  0.00  0.00    +0.091 A 
ATOM      9  C   LIG    1       -3.556  -0.490   0.717  0.00  0.00    +0.132 A 
ATOM     10  O   LIG    1       -2.266  -0.070   0.785  0.00  0.00    -0.480 OA
ENDROOT
BRANCH   1  16
ATOM     11  C   LIG    1       -0.017   1.378   0.010  0.00  0.00    +0.011 A 
ATOM     12  C   LIG    1        1.170   2.089   0.002  0.00  0.00    +0.049 A 
ATOM     13  C   LIG    1        2.380   1.415  -0.013  0.00  0.00    +0.158 A 
ATOM     14  C   LIG    1        2.399   0.024  -0.021  0.00  0.00    +0.159 A 
ATOM     15  C   LIG    1        1.207  -0.682  -0.013  0.00  0.00    +0.056 A 
ATOM     16  C   LIG    1        0.002  -0.004   0.002  0.00  0.00    -0.000 A 
BRANCH  13  17
ATOM     17  O   LIG    1        3.548   2.113  -0.021  0.00  0.00    -0.503 OA
ATOM     18  H   LIG    1        3.894   2.310   0.860  0.00  0.00    +0.292 HD
ENDBRANCH  13  17
BRANCH  14  19
ATOM     19  O   LIG    1        3.585  -0.642  -0.036  0.00  0.00    -0.503 OA
ATOM     20  H   LIG    1        3.937  -0.839   0.843  0.00  0.00    +0.292 HD
ENDBRANCH  14  19
ENDBRANCH   1  16
BRANCH   5  21
ATOM     21  O   LIG    1       -5.777  -2.506  -1.346  0.00  0.00    -0.506 OA
ATOM     22  H   LIG    1       -5.705  -3.452  -1.156  0.00  0.00    +0.292 HD
ENDBRANCH   5  21
BRANCH   7  23
ATOM     23  O   LIG    1       -6.627  -0.057   2.638  0.00  0.00    -0.507 OA
ATOM     24  H   LIG    1       -6.677  -0.652   3.399  0.00  0.00    +0.292 HD
ENDBRANCH   7  23
BRANCH   2  25
ATOM     25  O   LIG    1       -2.151   0.381  -1.941  0.00  0.00    -0.453 OA
BRANCH  25  26
ATOM     26  C   LIG    1       -2.027   0.556  -3.271  0.00  0.00    +0.340 C 
ATOM     27  O   LIG    1       -1.652  -0.362  -3.973  0.00  0.00    -0.245 OA
BRANCH  26  28
ATOM     28  C   LIG    1       -2.349   1.862  -3.876  0.00  0.00    +0.066 A 
ATOM     29  C   LIG    1       -2.775   2.921  -3.070  0.00  0.00    +0.064 A 
ATOM     30  C   LIG    1       -3.076   4.144  -3.639  0.00  0.00    +0.163 A 
ATOM     31  C   LIG    1       -2.954   4.322  -5.015  0.00  0.00    +0.201 A 
ATOM     32  C   LIG    1       -2.529   3.268  -5.820  0.00  0.00    +0.163 A 
ATOM     33  C   LIG    1       -2.221   2.045  -5.256  0.00  0.00    +0.064 A 
BRANCH  30  34
ATOM     34  O   LIG    1       -3.491   5.175  -2.855  0.00  0.00    -0.503 OA
ATOM     35  H   LIG    1       -2.773   5.729  -2.520  0.00  0.00    +0.292 HD
ENDBRANCH  30  34
BRANCH  31  36
ATOM     36  O   LIG    1       -3.250   5.525  -5.572  0.00  0.00    -0.501 OA
ATOM     37  H   LIG    1       -2.498   6.130  -5.626  0.00  0.00    +0.292 HD
ENDBRANCH  31  36
BRANCH  32  38
ATOM     38  O   LIG    1       -2.412   3.445  -7.164  0.00  0.00    -0.503 OA
ATOM     39  H   LIG    1       -1.539   3.753  -7.445  0.00  0.00    +0.292 HD
ENDBRANCH  32  38
ENDBRANCH  26  28
ENDBRANCH  25  26
ENDBRANCH   2  25
TORSDOF 11
