REMARK  Name = ZINC04025278
REMARK                            x       y       z     vdW  Elec       q    Type
REMARK                         _______ _______ _______ _____ _____    ______ ____
ROOT
ATOM      1  C   LIG    1       -1.574   3.715   3.760  0.00  0.00    +0.129 A 
ATOM      2  C   LIG    1       -1.471   5.086   3.933  0.00  0.00    +0.093 A 
ATOM      3  C   LIG    1       -1.532   5.936   2.837  0.00  0.00    +0.147 A 
ATOM      4  C   LIG    1       -1.694   5.391   1.555  0.00  0.00    +0.067 A 
ATOM      5  C   LIG    1       -1.802   4.006   1.388  0.00  0.00    +0.136 A 
ATOM      6  C   LIG    1       -1.764   6.297   0.394  0.00  0.00    +0.003 A 
ATOM      7  C   LIG    1       -1.930   5.824  -0.903  0.00  0.00    +0.009 A 
ATOM      8  C   LIG    1       -1.984   6.718  -1.953  0.00  0.00    +0.001 A 
ATOM      9  C   LIG    1       -1.875   8.082  -1.726  0.00  0.00    +0.001 A 
ATOM     10  C   LIG    1       -1.710   8.571  -0.447  0.00  0.00    +0.015 A 
ATOM     11  C   LIG    1       -1.653   7.685   0.627  0.00  0.00    +0.067 A 
ATOM     12  C   LIG    1       -1.480   8.152   2.009  0.00  0.00    +0.345 A 
ATOM     13  O   LIG    1       -1.382   9.343   2.237  0.00  0.00    -0.245 OA
ATOM     14  O   LIG    1       -1.430   7.271   3.020  0.00  0.00    -0.421 OA
ATOM     15  C   LIG    1       -1.740   3.175   2.492  0.00  0.00    +0.092 A 
ENDROOT
BRANCH   1  16
ATOM     16  O   LIG    1       -1.513   2.894   4.840  0.00  0.00    -0.478 OA
BRANCH  16  18
ATOM     17  C   LIG    1       -2.963   1.004   4.433  0.00  0.00    +0.064 C 
ATOM     18  C   LIG    1       -1.519   1.487   4.587  0.00  0.00    +0.278 C 
BRANCH  18  19
ATOM     19  C   LIG    1       -0.868   0.766   5.739  0.00  0.00    +0.346 C 
ATOM     20  O   LIG    1       -0.523   1.382   6.720  0.00  0.00    -0.247 OA
BRANCH  19  21
ATOM     21  O   LIG    1       -0.671  -0.560   5.675  0.00  0.00    -0.478 OA
ATOM     22  H   LIG    1       -0.938  -1.037   4.914  0.00  0.00    +0.295 HD
ENDBRANCH  19  21
ENDBRANCH  18  19
ENDBRANCH  16  18
ENDBRANCH   1  16
BRANCH   5  23
ATOM     23  O   LIG    1       -1.963   3.480   0.147  0.00  0.00    -0.477 OA
BRANCH  23  24
ATOM     24  C   LIG    1       -2.186   2.071   0.063  0.00  0.00    +0.278 C 
ATOM     25  C   LIG    1       -2.922   1.747  -1.238  0.00  0.00    +0.064 C 
BRANCH  24  26
ATOM     26  C   LIG    1       -0.862   1.351   0.084  0.00  0.00    +0.346 C 
ATOM     27  O   LIG    1        0.169   1.982   0.066  0.00  0.00    -0.247 OA
BRANCH  26  28
ATOM     28  O   LIG    1       -0.827   0.010   0.117  0.00  0.00    -0.478 OA
ATOM     29  H   LIG    1       -1.626  -0.479   0.131  0.00  0.00    +0.295 HD
ENDBRANCH  26  28
ENDBRANCH  24  26
ENDBRANCH  23  24
ENDBRANCH   5  23
TORSDOF 8
