REMARK  Name = ZINC03874172
REMARK                            x       y       z     vdW  Elec       q    Type
REMARK                         _______ _______ _______ _____ _____    ______ ____
ROOT
ATOM      1  C   LIG    1        2.640   1.317   3.282  0.00  0.00    +0.238 C 
ATOM      2  N   LIG    1        3.170   0.117   3.071  0.00  0.00    -0.279 N 
ATOM      3  H   LIG    1        3.075  -0.328   2.150  0.00  0.00    +0.303 HD
ATOM      4  C   LIG    1        3.907  -0.591   4.168  0.00  0.00    +0.233 C 
ATOM      5  C   LIG    1        3.150  -1.865   4.547  0.00  0.00    +0.045 C 
ATOM      6  C   LIG    1        3.428  -2.207   6.012  0.00  0.00    +0.004 C 
ATOM      7  C   LIG    1        2.103  -2.440   6.741  0.00  0.00    +0.000 C 
ATOM      8  C   LIG    1        2.019  -1.512   7.954  0.00  0.00    +0.000 C 
ATOM      9  C   LIG    1        0.723  -0.701   7.886  0.00  0.00    +0.000 C 
ATOM     10  C   LIG    1        1.035   0.779   8.120  0.00  0.00    +0.000 C 
ATOM     11  C   LIG    1        0.265   1.629   7.107  0.00  0.00    +0.000 C 
ATOM     12  C   LIG    1        1.203   2.672   6.498  0.00  0.00    +0.001 C 
ATOM     13  C   LIG    1        1.261   2.483   4.981  0.00  0.00    +0.012 C 
ATOM     14  C   LIG    1        2.681   2.109   4.569  0.00  0.00    +0.123 C 
ENDROOT
BRANCH   1  15
ATOM     15  N   LIG    1        1.992   1.859   2.196  0.00  0.00    -0.238 N 
ATOM     16  H   LIG    1        1.576   2.733   2.266  0.00  0.00    +0.291 HD
BRANCH  15  21
ATOM     17  C   LIG    1        2.838   1.783  -0.117  0.00  0.00    +0.062 C 
ATOM     18  C   LIG    1        1.882   2.698  -0.921  0.00  0.00    +0.012 C 
ATOM     19  C   LIG    1        0.588   1.851  -1.006  0.00  0.00    +0.005 C 
ATOM     20  C   LIG    1        0.497   1.160   0.370  0.00  0.00    +0.048 C 
ATOM     21  C   LIG    1        1.927   1.117   0.935  0.00  0.00    +0.172 C 
BRANCH  17  25
ATOM     22  C   LIG    1        5.878   4.101   1.788  0.00  0.00    +0.000 A 
ATOM     23  C   LIG    1        6.225   3.013   1.009  0.00  0.00    +0.000 A 
ATOM     24  C   LIG    1        5.241   2.263   0.393  0.00  0.00    +0.004 A 
ATOM     25  C   LIG    1        3.910   2.600   0.555  0.00  0.00    -0.040 A 
ATOM     26  C   LIG    1        3.564   3.692   1.329  0.00  0.00    +0.004 A 
ATOM     27  C   LIG    1        4.547   4.439   1.950  0.00  0.00    +0.000 A 
ENDBRANCH  17  25
ENDBRANCH  15  21
ENDBRANCH   1  15
TORSDOF 3
