REMARK  Name = ZINC03872753
REMARK                            x       y       z     vdW  Elec       q    Type
REMARK                         _______ _______ _______ _____ _____    ______ ____
ROOT
ATOM      1  C   LIG    1       -0.018   1.500   0.010  0.00  0.00    +0.008 C 
ATOM      2  C   LIG    1        1.417   2.032  -0.001  0.00  0.00    -0.078 C 
ATOM      3  N   LIG    1        2.159   1.359  -1.078  0.00  0.00    +0.382 N 
ATOM      4  H   LIG    1        3.048   1.817  -1.213  0.00  0.00    -0.085 HD
ATOM      5  H   LIG    1        1.625   1.399  -1.933  0.00  0.00    -0.085 HD
ATOM      6  C   LIG    1        2.381  -0.042  -0.703  0.00  0.00    -0.040 C 
ATOM      7  C   LIG    1        1.083  -0.694  -0.322  0.00  0.00    +0.015 C 
ATOM      8  C   LIG    1        0.002  -0.004   0.002  0.00  0.00    -0.020 C 
ENDROOT
BRANCH   7   9
ATOM      9  C   LIG    1        1.011  -2.159  -0.308  0.00  0.00    +0.331 C 
ATOM     10  O   LIG    1       -0.034  -2.717  -0.002  0.00  0.00    -0.246 OA
BRANCH   9  11
ATOM     11  O   LIG    1        1.996  -2.823  -0.604  0.00  0.00    -0.477 OA
ATOM     12  H   LIG    1        2.796  -2.395  -0.839  0.00  0.00    +0.295 HD
ENDBRANCH   9  11
ENDBRANCH   7   9
TORSDOF 2
