REMARK  Name = ZINC03995684
REMARK                            x       y       z     vdW  Elec       q    Type
REMARK                         _______ _______ _______ _____ _____    ______ ____
ROOT
ATOM      1  C   LIG    1       -1.780  -0.957  -1.398  0.00  0.00    +0.220 C 
ATOM      2  N   LIG    1       -3.027  -1.409  -1.636  0.00  0.00    -0.300 N 
ATOM      3  C   LIG    1       -3.943  -1.697  -0.524  0.00  0.00    +0.108 C 
ATOM      4  C   LIG    1       -4.468  -3.129  -0.675  0.00  0.00    +0.019 C 
ATOM      5  C   LIG    1       -5.091  -3.295  -2.063  0.00  0.00    +0.003 C 
ATOM      6  C   LIG    1       -4.026  -3.055  -3.135  0.00  0.00    +0.021 C 
ATOM      7  C   LIG    1       -3.499  -1.617  -3.011  0.00  0.00    +0.059 C 
ATOM      8  O   LIG    1       -1.068  -0.627  -2.323  0.00  0.00    -0.275 OA
ENDROOT
BRANCH   1   9
ATOM      9  C   LIG    1       -1.270  -0.860   0.017  0.00  0.00    +0.131 C 
BRANCH   9  17
ATOM     10  C   LIG    1        0.206   1.161   0.023  0.00  0.00    +0.005 A 
ATOM     11  C   LIG    1        1.456   1.752   0.024  0.00  0.00    +0.022 A 
ATOM     12  C   LIG    1        2.593   0.964   0.018  0.00  0.00    +0.059 A 
ATOM     13 CL   LIG    1        4.163   1.706   0.018  0.00  0.00    -0.082 Cl
ATOM     14  C   LIG    1        2.479  -0.416   0.012  0.00  0.00    +0.060 A 
ATOM     15 CL   LIG    1        3.906  -1.405   0.004  0.00  0.00    -0.082 Cl
ATOM     16  C   LIG    1        1.228  -1.005   0.011  0.00  0.00    +0.025 A 
ATOM     17  C   LIG    1        0.092  -0.217   0.017  0.00  0.00    -0.037 A 
ENDBRANCH   9  17
ENDBRANCH   1   9
BRANCH   7  18
ATOM     18  C   LIG    1       -2.340  -1.408  -3.988  0.00  0.00    -0.056 C 
BRANCH  18  19
ATOM     19  N   LIG    1       -2.804  -1.655  -5.360  0.00  0.00    +0.381 N 
ATOM     20  H   LIG    1       -3.248  -2.559  -5.420  0.00  0.00    -0.082 HD
ATOM     21  C   LIG    1       -3.751  -0.590  -5.779  0.00  0.00    -0.079 C 
ATOM     22  C   LIG    1       -3.694  -0.654  -7.326  0.00  0.00    -0.020 C 
ATOM     23  C   LIG    1       -2.204  -0.954  -7.605  0.00  0.00    -0.020 C 
ATOM     24  C   LIG    1       -1.668  -1.580  -6.304  0.00  0.00    -0.079 C 
ENDBRANCH  18  19
ENDBRANCH   7  18
TORSDOF 4
