REMARK  Name = ZINC03876055
REMARK                            x       y       z     vdW  Elec       q    Type
REMARK                         _______ _______ _______ _____ _____    ______ ____
ROOT
ATOM      1  C   LIG    1       -0.733   1.581   1.266  0.00  0.00    +0.066 C 
ATOM      2  C   LIG    1       -0.013   1.086   0.008  0.00  0.00    +0.024 C 
ATOM      3  C   LIG    1       -0.756   1.594  -1.229  0.00  0.00    -0.035 C 
ATOM      4  N   LIG    1       -2.131   1.069  -1.210  0.00  0.00    +0.385 N 
ATOM      5  H   LIG    1       -2.097   0.045  -1.139  0.00  0.00    -0.081 HD
ATOM      6  C   LIG    1       -2.865   1.605  -0.041  0.00  0.00    -0.072 C 
ATOM      7  C   LIG    1       -2.823   1.440  -2.462  0.00  0.00    -0.073 C 
ATOM      8  C   LIG    1       -2.239   0.586  -3.587  0.00  0.00    +0.017 C 
ATOM      9  C   LIG    1       -0.734   0.675  -3.576  0.00  0.00    -0.044 A 
ATOM     10  C   LIG    1       -0.041   0.273  -4.708  0.00  0.00    +0.053 A 
ATOM     11  C   LIG    1        1.341   0.333  -4.741  0.00  0.00    +0.162 A 
ATOM     12  C   LIG    1        2.037   0.800  -3.630  0.00  0.00    +0.162 A 
ATOM     13  C   LIG    1        1.341   1.202  -2.504  0.00  0.00    +0.051 A 
ATOM     14  C   LIG    1       -0.045   1.142  -2.476  0.00  0.00    -0.054 A 
ATOM     15  C   LIG    1       -2.188   1.101   1.236  0.00  0.00    +0.004 C 
ENDROOT
BRANCH   1  17
ATOM     16  C   LIG    1        1.420   1.502   2.531  0.00  0.00    +0.007 C 
ATOM     17  C   LIG    1       -0.034   1.025   2.507  0.00  0.00    +0.031 C 
ENDBRANCH   1  17
BRANCH   1  18
ATOM     18  O   LIG    1       -0.703   3.010   1.301  0.00  0.00    -0.388 OA
ATOM     19  H   LIG    1        0.188   3.384   1.316  0.00  0.00    +0.210 HD
ENDBRANCH   1  18
BRANCH  11  20
ATOM     20  O   LIG    1        2.015  -0.062  -5.854  0.00  0.00    -0.491 OA
ATOM     21  C   LIG    1        1.233  -0.530  -6.955  0.00  0.00    +0.277 C 
ENDBRANCH  11  20
BRANCH  12  22
ATOM     22  O   LIG    1        3.395   0.862  -3.652  0.00  0.00    -0.491 OA
ATOM     23  C   LIG    1        4.041   1.353  -2.475  0.00  0.00    +0.277 C 
ENDBRANCH  12  22
BRANCH  15  24
ATOM     24  C   LIG    1       -2.930   1.647   2.457  0.00  0.00    +0.007 C 
BRANCH  24  25
ATOM     25  C   LIG    1       -4.346   1.068   2.494  0.00  0.00    -0.017 C 
ATOM     26  C   LIG    1       -5.129   1.709   3.642  0.00  0.00    +0.007 C 
ATOM     27  C   LIG    1       -4.273  -0.445   2.709  0.00  0.00    +0.007 C 
ENDBRANCH  24  25
ENDBRANCH  15  24
TORSDOF 6
