REMARK  Name = ZINC03996032
REMARK                            x       y       z     vdW  Elec       q    Type
REMARK                         _______ _______ _______ _____ _____    ______ ____
ROOT
ATOM      1  C   LIG    1        2.566  -2.141   4.505  0.00  0.00    +0.230 C 
ENDROOT
BRANCH   1   2
ATOM      2  C   LIG    1        4.072  -2.325   4.302  0.00  0.00    +0.146 C 
ATOM      3  C   LIG    1        4.321  -3.110   3.012  0.00  0.00    -0.046 C 
ATOM      4  N   LIG    1        5.768  -3.235   2.789  0.00  0.00    +0.382 N 
ATOM      5  H   LIG    1        5.934  -3.753   1.939  0.00  0.00    -0.086 HD
ATOM      6  H   LIG    1        6.188  -3.721   3.567  0.00  0.00    -0.086 HD
ATOM      7  C   LIG    1        6.362  -1.896   2.671  0.00  0.00    -0.054 C 
ATOM      8  C   LIG    1        6.108  -1.113   3.961  0.00  0.00    +0.141 C 
ATOM      9  O   LIG    1        4.700  -1.044   4.204  0.00  0.00    -0.376 OA
ENDBRANCH   1   2
BRANCH   1  10
ATOM     10  C   LIG    1        2.325  -1.262   5.705  0.00  0.00    -0.005 A 
ATOM     11  C   LIG    1        2.335   0.114   5.568  0.00  0.00    +0.007 A 
ATOM     12  C   LIG    1        2.114   0.919   6.670  0.00  0.00    +0.000 A 
ATOM     13  C   LIG    1        1.883   0.350   7.908  0.00  0.00    +0.000 A 
ATOM     14  C   LIG    1        1.872  -1.026   8.045  0.00  0.00    +0.000 A 
ATOM     15  C   LIG    1        2.089  -1.832   6.943  0.00  0.00    +0.007 A 
ENDBRANCH   1  10
BRANCH   1  16
ATOM     16  O   LIG    1        2.000  -1.528   3.345  0.00  0.00    -0.478 OA
BRANCH  16  22
ATOM     17  C   LIG    1        0.711  -1.811   1.360  0.00  0.00    +0.162 A 
ATOM     18  C   LIG    1        0.097  -2.651   0.446  0.00  0.00    +0.049 A 
ATOM     19  C   LIG    1        0.155  -4.022   0.620  0.00  0.00    +0.004 A 
ATOM     20  C   LIG    1        0.825  -4.556   1.704  0.00  0.00    +0.004 A 
ATOM     21  C   LIG    1        1.440  -3.723   2.620  0.00  0.00    +0.049 A 
ATOM     22  C   LIG    1        1.391  -2.349   2.448  0.00  0.00    +0.163 A 
BRANCH  17  23
ATOM     23  O   LIG    1        0.655  -0.462   1.190  0.00  0.00    -0.489 OA
BRANCH  23  25
ATOM     24  C   LIG    1       -0.014   1.548   0.028  0.00  0.00    +0.048 C 
ATOM     25  C   LIG    1       -0.060   0.019   0.050  0.00  0.00    +0.226 C 
ENDBRANCH  23  25
ENDBRANCH  17  23
ENDBRANCH  16  22
ENDBRANCH   1  16
TORSDOF 6
