REMARK  Name = ZINC03989256
REMARK                            x       y       z     vdW  Elec       q    Type
REMARK                         _______ _______ _______ _____ _____    ______ ____
ROOT
ATOM      1  N   LIG    1        5.147   0.319  -0.591  0.00  0.00    -0.268 N 
ATOM      2  C   LIG    1        4.298   0.570  -1.679  0.00  0.00    +0.042 A 
ATOM      3  C   LIG    1        4.762   0.461  -2.980  0.00  0.00    +0.025 A 
ATOM      4  C   LIG    1        3.902   0.697  -4.036  0.00  0.00    +0.022 A 
ATOM      5  C   LIG    1        2.583   1.040  -3.793  0.00  0.00    +0.041 A 
ATOM      6 CL   LIG    1        1.506   1.331  -5.122  0.00  0.00    -0.084 Cl
ATOM      7  C   LIG    1        2.120   1.152  -2.493  0.00  0.00    +0.028 A 
ATOM      8  C   LIG    1        2.976   0.920  -1.435  0.00  0.00    +0.008 A 
ATOM      9  C   LIG    1        2.491   1.045  -0.016  0.00  0.00    +0.185 C 
ATOM     10  O   LIG    1        2.313  -0.256   0.555  0.00  0.00    -0.354 OA
ATOM     11  C   LIG    1        3.367  -1.170   0.256  0.00  0.00    +0.214 C 
ATOM     12  C   LIG    1        4.706  -0.498   0.388  0.00  0.00    +0.249 C 
ATOM     13  O   LIG    1        5.388  -0.691   1.372  0.00  0.00    -0.272 OA
ENDROOT
BRANCH   9  14
ATOM     14  C   LIG    1        1.176   1.782   0.000  0.00  0.00    +0.031 A 
ATOM     15  C   LIG    1       -0.013   1.076   0.008  0.00  0.00    +0.010 A 
ATOM     16  C   LIG    1       -1.220   1.749   0.017  0.00  0.00    +0.004 A 
ATOM     17  C   LIG    1       -1.244   3.132   0.031  0.00  0.00    +0.049 A 
ATOM     18  C   LIG    1       -0.056   3.845   0.023  0.00  0.00    +0.162 A 
ATOM     19  C   LIG    1        1.159   3.167   0.008  0.00  0.00    +0.167 A 
BRANCH  18  20
ATOM     20  O   LIG    1       -0.078   5.205   0.031  0.00  0.00    -0.491 OA
ATOM     21  C   LIG    1       -1.362   5.833   0.047  0.00  0.00    +0.277 C 
ENDBRANCH  18  20
BRANCH  19  22
ATOM     22  O   LIG    1        2.328   3.863   0.000  0.00  0.00    -0.491 OA
ATOM     23  C   LIG    1        2.872   4.202  -1.277  0.00  0.00    +0.277 C 
ENDBRANCH  19  22
ENDBRANCH   9  14
BRANCH   1  24
ATOM     24  C   LIG    1        6.477   0.928  -0.519  0.00  0.00    +0.123 C 
BRANCH  24  25
ATOM     25  C   LIG    1        6.384   2.275   0.202  0.00  0.00    +0.015 C 
ATOM     26  C   LIG    1        5.845   2.059   1.618  0.00  0.00    +0.016 C 
ATOM     27  C   LIG    1        5.439   3.200  -0.567  0.00  0.00    +0.016 C 
BRANCH  25  28
ATOM     28  C   LIG    1        7.773   2.911   0.277  0.00  0.00    +0.240 C 
BRANCH  28  29
ATOM     29  O   LIG    1        7.684   4.188   0.961  0.00  0.00    -0.464 OA
BRANCH  29  31
ATOM     30  C   LIG    1        8.810   6.215   1.811  0.00  0.00    +0.136 C 
ATOM     31  C   LIG    1        8.825   4.880   1.111  0.00  0.00    +0.304 C 
ATOM     32  O   LIG    1        9.863   4.433   0.685  0.00  0.00    -0.251 OA
ENDBRANCH  29  31
ENDBRANCH  28  29
ENDBRANCH  25  28
ENDBRANCH  24  25
ENDBRANCH   1  24
BRANCH  11  33
ATOM     33  C   LIG    1        3.299  -2.353   1.223  0.00  0.00    +0.137 C 
BRANCH  33  34
ATOM     34  C   LIG    1        2.009  -3.103   1.009  0.00  0.00    +0.219 C 
ATOM     35  N   LIG    1        1.730  -4.191   1.755  0.00  0.00    -0.301 N 
ATOM     36  C   LIG    1        2.676  -4.660   2.776  0.00  0.00    +0.108 C 
ATOM     37  C   LIG    1        1.930  -4.781   4.114  0.00  0.00    +0.023 C 
ATOM     38  C   LIG    1        0.707  -5.682   3.929  0.00  0.00    +0.003 C 
ATOM     39  C   LIG    1       -0.241  -5.053   2.905  0.00  0.00    +0.023 C 
ATOM     40  C   LIG    1        0.478  -4.932   1.557  0.00  0.00    +0.108 C 
ATOM     41  O   LIG    1        1.223  -2.728   0.165  0.00  0.00    -0.275 OA
BRANCH  38  42
ATOM     42  C   LIG    1       -0.019  -5.836   5.267  0.00  0.00    +0.124 C 
BRANCH  42  43
ATOM     43  C   LIG    1        0.871  -6.565   6.240  0.00  0.00    +0.305 C 
ATOM     44  O   LIG    1        1.973  -6.925   5.899  0.00  0.00    -0.251 OA
BRANCH  43  45
ATOM     45  O   LIG    1        0.440  -6.815   7.487  0.00  0.00    -0.481 OA
ATOM     46  H   LIG    1       -0.414  -6.537   7.752  0.00  0.00    +0.295 HD
ENDBRANCH  43  45
ENDBRANCH  42  43
ENDBRANCH  38  42
ENDBRANCH  33  34
ENDBRANCH  11  33
TORSDOF 13
