REMARK  Name = ZINC03981918
REMARK                            x       y       z     vdW  Elec       q    Type
REMARK                         _______ _______ _______ _____ _____    ______ ____
ROOT
ATOM      1  CA  LIG    1        3.912  -6.272  -1.520  0.00  0.00    +0.044 C 
ENDROOT
BRANCH   1   2
ATOM      2  N   LIG    1        2.619  -6.535  -2.164  0.00  0.00    +0.396 N 
ATOM      3  H1  LIG    1        2.028  -5.721  -2.080  0.00  0.00    -0.084 HD
ATOM      4  H2  LIG    1        2.173  -7.321  -1.716  0.00  0.00    -0.084 HD
BRANCH   2   5
ATOM      5  C   LIG    1        2.833  -6.838  -3.586  0.00  0.00    +0.048 C 
BRANCH   5   6
ATOM      6  P   LIG    1        1.228  -7.165  -4.386  0.00  0.00    +0.311 P 
ATOM      7  O   LIG    1        0.479  -8.302  -3.611  0.00  0.00    -0.261 OA
BRANCH   6   8
ATOM      8  O   LIG    1        1.465  -7.613  -5.869  0.00  0.00    -0.325 OA
ATOM      9  H   LIG    1        2.003  -8.420  -5.880  0.00  0.00    +0.220 HD
ENDBRANCH   6   8
BRANCH   6  10
ATOM     10  O   LIG    1        0.360  -5.861  -4.367  0.00  0.00    -0.325 OA
ATOM     11  H   LIG    1        0.213  -5.584  -3.449  0.00  0.00    +0.220 HD
ENDBRANCH   6  10
ENDBRANCH   5   6
ENDBRANCH   2   5
ENDBRANCH   1   2
BRANCH   1  12
ATOM     12  C   LIG    1        4.747  -7.526  -1.538  0.00  0.00    +0.291 C 
ATOM     13  O   LIG    1        4.247  -8.586  -1.872  0.00  0.00    -0.253 OA
BRANCH  12  14
ATOM     14  OXT LIG    1        5.923  -7.480  -1.218  0.00  0.00    -0.482 OA
ATOM     15  HXT LIG    1        6.307  -6.665  -0.961  0.00  0.00    +0.295 HD
ENDBRANCH  12  14
ENDBRANCH   1  12
BRANCH   1  16
ATOM     16  C   LIG    1        3.680  -5.834  -0.072  0.00  0.00    +0.030 C 
BRANCH  16  25
ATOM     17  C   LIG    1       -0.017   1.375   0.010  0.00  0.00    +0.001 A 
ATOM     18  C   LIG    1        1.172   2.087   0.002  0.00  0.00    +0.004 A 
ATOM     19  C   LIG    1        2.384   1.429  -0.013  0.00  0.00    +0.047 A 
ATOM     20  C   LIG    1        2.423   0.040  -0.022  0.00  0.00    +0.136 A 
ATOM     21  C   LIG    1        1.219  -0.677  -0.014  0.00  0.00    +0.028 A 
ATOM     22  C   LIG    1        1.603  -2.102  -0.027  0.00  0.00    +0.028 A 
ATOM     23  C   LIG    1        0.889  -3.296  -0.027  0.00  0.00    +0.012 A 
ATOM     24  C   LIG    1        1.565  -4.497  -0.041  0.00  0.00    +0.004 A 
ATOM     25  C   LIG    1        2.951  -4.516  -0.056  0.00  0.00    -0.045 A 
ATOM     26  C   LIG    1        3.668  -3.338  -0.056  0.00  0.00    +0.050 A 
ATOM     27  C   LIG    1        3.004  -2.117  -0.041  0.00  0.00    +0.137 A 
ATOM     28  O   LIG    1        3.447  -0.841  -0.038  0.00  0.00    -0.455 OA
ATOM     29  C   LIG    1        0.002  -0.004   0.002  0.00  0.00    +0.012 A 
ENDBRANCH  16  25
ENDBRANCH   1  16
TORSDOF 9
