REMARK  Name = ZINC03960338
REMARK                            x       y       z     vdW  Elec       q    Type
REMARK                         _______ _______ _______ _____ _____    ______ ____
ROOT
ATOM      1  C   LIG    1       -4.429  -4.420   0.021  0.00  0.00    +0.021 C 
ATOM      2  C   LIG    1       -5.108  -4.099   1.369  0.00  0.00    +0.013 C 
ATOM      3  C   LIG    1       -4.822  -5.371   2.196  0.00  0.00    +0.036 C 
ATOM      4  C   LIG    1       -4.659  -6.477   1.176  0.00  0.00    -0.043 A 
ATOM      5  C   LIG    1       -4.705  -7.853   1.326  0.00  0.00    +0.007 A 
ATOM      6  C   LIG    1       -4.524  -8.683   0.233  0.00  0.00    +0.046 A 
ATOM      7  C   LIG    1       -4.293  -8.141  -1.028  0.00  0.00    +0.124 A 
ATOM      8  O   LIG    1       -4.074  -8.762  -2.220  0.00  0.00    -0.491 OA
ATOM      9  C   LIG    1       -4.320  -7.834  -3.289  0.00  0.00    +0.234 C 
ATOM     10  C   LIG    1       -4.012  -6.466  -2.634  0.00  0.00    +0.080 C 
ATOM     11  C   LIG    1       -4.256  -6.760  -1.167  0.00  0.00    +0.001 A 
ATOM     12  C   LIG    1       -4.432  -5.931  -0.078  0.00  0.00    -0.034 A 
ENDROOT
BRANCH   1  13
ATOM     13  C   LIG    1       -2.994  -3.891   0.010  0.00  0.00    +0.027 C 
BRANCH  13  14
ATOM     14  C   LIG    1       -3.014  -2.361   0.018  0.00  0.00    +0.105 C 
BRANCH  14  16
ATOM     15  C   LIG    1       -1.412  -0.526   0.013  0.00  0.00    +0.213 C 
ATOM     16  N   LIG    1       -1.640  -1.854   0.008  0.00  0.00    -0.315 N 
ATOM     17  H   LIG    1       -0.894  -2.474  -0.003  0.00  0.00    +0.149 HD
ATOM     18  O   LIG    1       -2.344   0.250   0.026  0.00  0.00    -0.276 OA
BRANCH  15  20
ATOM     19  C   LIG    1       -0.019   1.526   0.010  0.00  0.00    +0.013 C 
ATOM     20  C   LIG    1        0.002  -0.004   0.002  0.00  0.00    +0.092 C 
ENDBRANCH  15  20
ENDBRANCH  14  16
ENDBRANCH  13  14
ENDBRANCH   1  13
TORSDOF 4
