REMARK  Name = ZINC03952166
REMARK                            x       y       z     vdW  Elec       q    Type
REMARK                         _______ _______ _______ _____ _____    ______ ____
ROOT
ATOM      1  C   LIG    1       -4.070   5.361   0.523  0.00  0.00    +0.118 A 
ATOM      2  N   LIG    1       -4.550   4.552  -0.396  0.00  0.00    -0.339 N 
ATOM      3  H   LIG    1       -5.491   4.608  -0.801  0.00  0.00    +0.167 HD
ATOM      4  C   LIG    1       -3.619   3.642  -0.723  0.00  0.00    +0.072 A 
ATOM      5  C   LIG    1       -2.490   3.900   0.039  0.00  0.00    +0.072 A 
ATOM      6  N   LIG    1       -2.794   4.988   0.827  0.00  0.00    -0.339 N 
ATOM      7  H   LIG    1       -2.192   5.422   1.496  0.00  0.00    +0.167 HD
ENDROOT
BRANCH   1  13
ATOM      8  C   LIG    1       -4.917   8.262   2.753  0.00  0.00    +0.001 A 
ATOM      9  C   LIG    1       -6.169   8.611   2.277  0.00  0.00    +0.001 A 
ATOM     10  C   LIG    1       -6.741   7.906   1.234  0.00  0.00    +0.016 A 
ATOM     11  C   LIG    1       -6.062   6.852   0.655  0.00  0.00    +0.028 A 
ATOM     12 BR   LIG    1       -6.842   5.894  -0.777  0.00  0.00    -0.050 Br
ATOM     13  C   LIG    1       -4.801   6.492   1.133  0.00  0.00    +0.029 A 
ATOM     14  C   LIG    1       -4.230   7.208   2.187  0.00  0.00    +0.012 A 
ENDBRANCH   1  13
BRANCH   4  15
ATOM     15  C   LIG    1       -3.770   2.557  -1.720  0.00  0.00    +0.001 A 
ATOM     16  C   LIG    1       -2.683   2.169  -2.503  0.00  0.00    +0.013 A 
ATOM     17  C   LIG    1       -2.828   1.155  -3.427  0.00  0.00    +0.039 A 
ATOM     18  C   LIG    1       -4.054   0.529  -3.585  0.00  0.00    +0.123 A 
ATOM     19  F   LIG    1       -4.193  -0.460  -4.495  0.00  0.00    -0.205 F 
ATOM     20  C   LIG    1       -5.139   0.915  -2.813  0.00  0.00    +0.039 A 
ATOM     21  C   LIG    1       -5.002   1.924  -1.883  0.00  0.00    +0.013 A 
ENDBRANCH   4  15
BRANCH   5  22
ATOM     22  C   LIG    1       -1.219   3.154   0.015  0.00  0.00    +0.003 A 
ATOM     23  C   LIG    1       -1.206   1.752   0.012  0.00  0.00    +0.030 A 
ATOM     24  C   LIG    1        0.006   1.095  -0.006  0.00  0.00    +0.111 A 
ATOM     25  N   LIG    1        1.142   1.768  -0.029  0.00  0.00    -0.263 NA
ATOM     26  C   LIG    1        1.175   3.088  -0.032  0.00  0.00    +0.111 A 
ATOM     27  C   LIG    1        0.011   3.826  -0.011  0.00  0.00    +0.030 A 
ENDBRANCH   5  22
TORSDOF 3
