REMARK  Name = ZINC03964580
REMARK                            x       y       z     vdW  Elec       q    Type
REMARK                         _______ _______ _______ _____ _____    ______ ____
ROOT
ATOM      1  C   LIG    1        1.050   1.474  -0.243  0.00  0.00    +0.012 C 
ATOM      2  C   LIG    1        0.978  -0.047  -0.172  0.00  0.00    -0.025 C 
ATOM      3  C   LIG    1       -0.441  -0.432   0.285  0.00  0.00    +0.010 C 
ATOM      4  C   LIG    1       -0.689   0.106   1.691  0.00  0.00    +0.032 C 
ATOM      5  C   LIG    1        0.282  -0.526   2.679  0.00  0.00    +0.120 C 
ATOM      6  C   LIG    1        1.741  -0.315   2.272  0.00  0.00    -0.006 C 
ATOM      7  C   LIG    1        2.192   1.093   2.657  0.00  0.00    +0.014 C 
ATOM      8  C   LIG    1        2.575  -1.306   3.123  0.00  0.00    +0.014 C 
ATOM      9  C   LIG    1        1.214  -0.683  -1.544  0.00  0.00    +0.006 C 
ATOM     10  C   LIG    1        0.312  -0.049  -2.602  0.00  0.00    +0.031 C 
ATOM     11  C   LIG    1        0.602  -0.652  -3.946  0.00  0.00    -0.026 C 
ATOM     12  C   LIG    1        1.696  -1.302  -4.244  0.00  0.00    -0.063 C 
ATOM     13  C   LIG    1        2.784  -1.583  -3.251  0.00  0.00    -0.005 C 
ATOM     14  C   LIG    1        2.606  -3.027  -2.763  0.00  0.00    +0.016 C 
ATOM     15  C   LIG    1        4.171  -1.476  -3.868  0.00  0.00    +0.012 C 
ATOM     16  C   LIG    1        4.233  -2.144  -5.244  0.00  0.00    +0.019 C 
ATOM     17  C   LIG    1        3.214  -1.518  -6.190  0.00  0.00    +0.074 C 
ATOM     18  C   LIG    1        3.385  -2.066  -7.605  0.00  0.00    +0.019 C 
ATOM     19  C   LIG    1        3.057  -3.551  -7.670  0.00  0.00    +0.007 C 
ATOM     20  C   LIG    1        1.641  -3.825  -7.168  0.00  0.00    -0.034 C 
ATOM     21  C   LIG    1        1.409  -5.343  -7.151  0.00  0.00    +0.011 C 
ATOM     22  C   LIG    1        0.610  -3.181  -8.093  0.00  0.00    +0.011 C 
ATOM     23  C   LIG    1        1.487  -3.291  -5.743  0.00  0.00    +0.015 C 
ATOM     24  C   LIG    1        1.805  -1.806  -5.674  0.00  0.00    +0.033 C 
ATOM     25  C   LIG    1        2.656  -0.660  -2.027  0.00  0.00    -0.019 C 
ATOM     26  C   LIG    1        3.034   0.756  -2.491  0.00  0.00    +0.012 C 
ATOM     27  C   LIG    1        3.642  -1.089  -0.946  0.00  0.00    +0.008 C 
ATOM     28  C   LIG    1        3.399  -0.302   0.353  0.00  0.00    +0.005 C 
ATOM     29  C   LIG    1        1.979  -0.633   0.815  0.00  0.00    +0.003 C 
ENDROOT
BRANCH   5  30
ATOM     30  O   LIG    1        0.073   0.041   3.978  0.00  0.00    -0.391 OA
ATOM     31  H   LIG    1       -0.819  -0.093   4.327  0.00  0.00    +0.210 HD
ENDBRANCH   5  30
BRANCH  17  32
ATOM     32  C   LIG    1        3.420  -0.022  -6.245  0.00  0.00    +0.314 C 
ATOM     33  O   LIG    1        2.529   0.724  -5.915  0.00  0.00    -0.250 OA
BRANCH  32  34
ATOM     34  O   LIG    1        4.594   0.478  -6.663  0.00  0.00    -0.468 OA
ATOM     35  C   LIG    1        4.719   1.901  -6.690  0.00  0.00    +0.280 C 
ENDBRANCH  32  34
ENDBRANCH  17  32
TORSDOF 3
