REMARK  Name = ZINC03977757
REMARK                            x       y       z     vdW  Elec       q    Type
REMARK                         _______ _______ _______ _____ _____    ______ ____
ROOT
ATOM      1  N   LIG    1        0.738  -1.962  -1.265  0.00  0.00    -0.276 N 
ATOM      2  C   LIG    1        1.766  -2.624  -0.700  0.00  0.00    +0.334 A 
ATOM      3  O   LIG    1        2.668  -1.990  -0.188  0.00  0.00    -0.246 OA
ATOM      4  N   LIG    1        1.817  -3.967  -0.683  0.00  0.00    -0.259 N 
ATOM      5  C   LIG    1        0.838  -4.706  -1.246  0.00  0.00    +0.282 A 
ATOM      6  O   LIG    1        0.898  -5.923  -1.229  0.00  0.00    -0.265 OA
ATOM      7  C   LIG    1       -0.256  -4.053  -1.854  0.00  0.00    +0.149 A 
ATOM      8  N   LIG    1       -1.397  -4.477  -2.504  0.00  0.00    -0.336 N 
ATOM      9  C   LIG    1       -2.074  -3.372  -2.871  0.00  0.00    +0.113 A 
ATOM     10  N   LIG    1       -1.420  -2.305  -2.487  0.00  0.00    -0.214 NA
ATOM     11  H   LIG    1       -1.662  -5.396  -2.666  0.00  0.00    +0.167 HD
ATOM     12  C   LIG    1       -0.298  -2.665  -1.859  0.00  0.00    +0.168 A 
ENDROOT
BRANCH   9  13
ATOM     13  C   LIG    1       -3.387  -3.364  -3.612  0.00  0.00    +0.055 C 
ATOM     14  C   LIG    1       -4.224  -4.597  -3.215  0.00  0.00    +0.011 C 
ATOM     15  C   LIG    1       -4.926  -5.019  -4.530  0.00  0.00    +0.001 C 
ATOM     16  C   LIG    1       -3.833  -4.764  -5.598  0.00  0.00    +0.001 C 
ATOM     17  C   LIG    1       -3.138  -3.470  -5.127  0.00  0.00    +0.011 C 
ENDBRANCH   9  13
BRANCH   1  18
ATOM     18  C   LIG    1        0.718  -0.497  -1.257  0.00  0.00    +0.128 C 
BRANCH  18  20
ATOM     19  C   LIG    1       -0.019   1.526   0.010  0.00  0.00    +0.005 C 
ATOM     20  C   LIG    1        0.002  -0.004   0.002  0.00  0.00    +0.018 C 
ENDBRANCH  18  20
ENDBRANCH   1  18
BRANCH   4  21
ATOM     21  C   LIG    1        2.955  -4.638  -0.050  0.00  0.00    +0.130 C 
BRANCH  21  22
ATOM     22  C   LIG    1        4.060  -4.854  -1.086  0.00  0.00    +0.018 C 
ATOM     23  C   LIG    1        5.248  -5.555  -0.424  0.00  0.00    +0.005 C 
ENDBRANCH  21  22
ENDBRANCH   4  21
TORSDOF 5
