REMARK  Name = ZINC03945732
REMARK                            x       y       z     vdW  Elec       q    Type
REMARK                         _______ _______ _______ _____ _____    ______ ____
ROOT
ATOM      1  C   LIG    1        0.014   0.009  -0.062  0.00  0.00    +0.019 C 
ATOM      2  C   LIG    1       -0.949  -0.691  -0.720  0.00  0.00    +0.073 C 
ENDROOT
BRANCH   2   3
ATOM      3  C   LIG    1       -2.071   0.021  -1.361  0.00  0.00    -0.007 A 
ATOM      4  C   LIG    1       -1.832   0.882  -2.436  0.00  0.00    +0.012 A 
ATOM      5  C   LIG    1       -2.881   1.546  -3.033  0.00  0.00    +0.050 A 
ATOM      6  C   LIG    1       -4.178   1.363  -2.571  0.00  0.00    +0.166 A 
ATOM      7  C   LIG    1       -4.423   0.504  -1.498  0.00  0.00    +0.167 A 
ATOM      8  O   LIG    1       -5.764   0.501  -1.241  0.00  0.00    -0.453 OA
ATOM      9  C   LIG    1       -6.383   1.044  -2.422  0.00  0.00    +0.466 C 
ATOM     10  O   LIG    1       -5.365   1.894  -2.982  0.00  0.00    -0.453 OA
ATOM     11  C   LIG    1       -3.377  -0.168  -0.898  0.00  0.00    +0.058 A 
ENDBRANCH   2   3
BRANCH   1  12
ATOM     12  C   LIG    1        1.185  -0.687   0.482  0.00  0.00    +0.190 C 
ATOM     13  O   LIG    1        1.059  -1.440   1.430  0.00  0.00    -0.287 OA
BRANCH  12  17
ATOM     14  C   LIG    1        5.013  -0.076  -1.252  0.00  0.00    +0.120 A 
ATOM     15  C   LIG    1        4.856  -1.003  -0.228  0.00  0.00    +0.046 A 
ATOM     16  C   LIG    1        3.617  -1.204   0.337  0.00  0.00    +0.015 A 
ATOM     17  C   LIG    1        2.515  -0.474  -0.120  0.00  0.00    +0.022 A 
ATOM     18  C   LIG    1        2.677   0.453  -1.155  0.00  0.00    +0.015 A 
ATOM     19  C   LIG    1        3.920   0.651  -1.711  0.00  0.00    +0.046 A 
BRANCH  14  21
ATOM     20  C   LIG    1        6.327   1.085  -2.855  0.00  0.00    +0.277 C 
ATOM     21  O   LIG    1        6.236   0.119  -1.807  0.00  0.00    -0.495 OA
ENDBRANCH  14  21
ENDBRANCH  12  17
ENDBRANCH   1  12
BRANCH   2  22
ATOM     22  C   LIG    1       -0.871  -2.169  -0.793  0.00  0.00    +0.338 C 
ATOM     23  O   LIG    1        0.007  -2.760  -0.198  0.00  0.00    -0.245 OA
BRANCH  22  24
ATOM     24  O   LIG    1       -1.773  -2.856  -1.520  0.00  0.00    -0.477 OA
ATOM     25  H   LIG    1       -2.450  -2.399  -1.979  0.00  0.00    +0.295 HD
ENDBRANCH  22  24
ENDBRANCH   2  22
BRANCH   1  26
ATOM     26  C   LIG    1       -0.122   1.500   0.108  0.00  0.00    +0.075 C 
BRANCH  26  27
ATOM     27  C   LIG    1       -0.727   1.799   1.456  0.00  0.00    -0.036 A 
ATOM     28  C   LIG    1       -2.101   1.823   1.604  0.00  0.00    +0.053 A 
ATOM     29  C   LIG    1       -2.662   2.092   2.844  0.00  0.00    +0.165 A 
ATOM     30  C   LIG    1       -1.841   2.348   3.935  0.00  0.00    +0.204 A 
ATOM     31  C   LIG    1       -0.460   2.328   3.781  0.00  0.00    +0.165 A 
ATOM     32  C   LIG    1        0.093   2.053   2.539  0.00  0.00    +0.053 A 
BRANCH  29  33
ATOM     33  O   LIG    1       -4.014   2.109   2.990  0.00  0.00    -0.491 OA
ATOM     34  C   LIG    1       -4.796   1.837   1.825  0.00  0.00    +0.277 C 
ENDBRANCH  29  33
BRANCH  30  35
ATOM     35  O   LIG    1       -2.388   2.616   5.152  0.00  0.00    -0.488 OA
ATOM     36  C   LIG    1       -2.662   3.986   5.452  0.00  0.00    +0.277 C 
ENDBRANCH  30  35
BRANCH  31  37
ATOM     37  O   LIG    1        0.348   2.578   4.846  0.00  0.00    -0.491 OA
ATOM     38  C   LIG    1        1.758   2.542   4.613  0.00  0.00    +0.277 C 
ENDBRANCH  31  37
ENDBRANCH  26  27
ENDBRANCH   1  26
TORSDOF 11
