REMARK  Name = ZINC04062977
REMARK                            x       y       z     vdW  Elec       q    Type
REMARK                         _______ _______ _______ _____ _____    ______ ____
ROOT
ATOM      1  C   LIG    1       -0.006  -2.813  -4.924  0.00  0.00    +0.100 C 
ENDROOT
BRANCH   1   2
ATOM      2  C   LIG    1        1.181  -2.506  -5.800  0.00  0.00    +0.092 A 
ATOM      3  C   LIG    1        2.444  -3.061  -5.504  0.00  0.00    +0.200 A 
ATOM      4  C   LIG    1        3.563  -2.719  -6.405  0.00  0.00    +0.065 A 
ATOM      5  C   LIG    1        4.846  -3.221  -6.191  0.00  0.00    +0.015 A 
ATOM      6  C   LIG    1        5.863  -2.877  -7.055  0.00  0.00    +0.001 A 
ATOM      7  C   LIG    1        5.613  -2.037  -8.130  0.00  0.00    +0.004 A 
ATOM      8  C   LIG    1        4.348  -1.535  -8.352  0.00  0.00    +0.047 A 
ATOM      9  C   LIG    1        3.309  -1.869  -7.492  0.00  0.00    +0.143 A 
ATOM     10  O   LIG    1        2.064  -1.390  -7.691  0.00  0.00    -0.425 OA
ATOM     11  O   LIG    1        2.605  -3.795  -4.543  0.00  0.00    -0.287 OA
ATOM     12  C   LIG    1        1.041  -1.698  -6.883  0.00  0.00    +0.292 A 
BRANCH  12  13
ATOM     13  O   LIG    1       -0.176  -1.182  -7.154  0.00  0.00    -0.480 OA
ATOM     14  H   LIG    1       -0.199  -0.617  -7.938  0.00  0.00    +0.295 HD
ENDBRANCH  12  13
ENDBRANCH   1   2
BRANCH   1  15
ATOM     15  C   LIG    1       -1.267  -2.756  -5.748  0.00  0.00    +0.092 A 
ATOM     16  C   LIG    1       -2.261  -1.798  -5.459  0.00  0.00    +0.200 A 
ATOM     17  C   LIG    1       -3.471  -1.799  -6.307  0.00  0.00    +0.065 A 
ATOM     18  C   LIG    1       -4.505  -0.889  -6.096  0.00  0.00    +0.015 A 
ATOM     19  C   LIG    1       -5.617  -0.923  -6.909  0.00  0.00    +0.001 A 
ATOM     20  C   LIG    1       -5.707  -1.855  -7.932  0.00  0.00    +0.004 A 
ATOM     21  C   LIG    1       -4.689  -2.760  -8.151  0.00  0.00    +0.047 A 
ATOM     22  C   LIG    1       -3.560  -2.742  -7.342  0.00  0.00    +0.143 A 
ATOM     23  O   LIG    1       -2.552  -3.618  -7.538  0.00  0.00    -0.425 OA
ATOM     24  O   LIG    1       -2.128  -1.001  -4.545  0.00  0.00    -0.287 OA
ATOM     25  C   LIG    1       -1.450  -3.622  -6.779  0.00  0.00    +0.292 A 
BRANCH  25  26
ATOM     26  O   LIG    1       -0.484  -4.527  -7.044  0.00  0.00    -0.480 OA
ATOM     27  H   LIG    1       -0.684  -5.109  -7.790  0.00  0.00    +0.295 HD
ENDBRANCH  25  26
ENDBRANCH   1  15
BRANCH   1  31
ATOM     28  C   LIG    1       -0.231   0.066  -1.773  0.00  0.00    +0.029 A 
ATOM     29  C   LIG    1       -0.543  -1.265  -1.524  0.00  0.00    +0.023 A 
ATOM     30  C   LIG    1       -0.470  -2.192  -2.545  0.00  0.00    +0.006 A 
ATOM     31  C   LIG    1       -0.086  -1.798  -3.813  0.00  0.00    -0.035 A 
ATOM     32  C   LIG    1        0.225  -0.474  -4.064  0.00  0.00    +0.006 A 
ATOM     33  C   LIG    1        0.148   0.460  -3.050  0.00  0.00    +0.023 A 
BRANCH  28  35
ATOM     34  C   LIG    1        0.019   2.410  -1.008  0.00  0.00    +0.129 C 
ATOM     35  N   LIG    1       -0.305   1.006  -0.743  0.00  0.00    -0.336 N 
ATOM     36  C   LIG    1       -0.706   0.589   0.603  0.00  0.00    +0.129 C 
ENDBRANCH  28  35
ENDBRANCH   1  31
TORSDOF 6
