REMARK  Name = ZINC04016958
REMARK                            x       y       z     vdW  Elec       q    Type
REMARK                         _______ _______ _______ _____ _____    ______ ____
ROOT
ATOM      1  C   LIG    1       -0.586   2.214   3.576  0.00  0.00    +0.036 A 
ATOM      2  C   LIG    1        0.014   3.101   4.460  0.00  0.00    +0.024 A 
ATOM      3  C   LIG    1       -0.655   3.494   5.603  0.00  0.00    +0.009 A 
ATOM      4  C   LIG    1       -1.916   2.994   5.873  0.00  0.00    +0.002 A 
ATOM      5  C   LIG    1       -2.514   2.106   4.998  0.00  0.00    +0.009 A 
ATOM      6  C   LIG    1       -1.852   1.714   3.851  0.00  0.00    +0.024 A 
ENDROOT
BRANCH   1   8
ATOM      7  C   LIG    1        1.296   0.998   2.512  0.00  0.00    +0.138 C 
ATOM      8  N   LIG    1        0.087   1.819   2.415  0.00  0.00    -0.272 N 
ATOM      9  C   LIG    1       -0.378   2.195   1.206  0.00  0.00    +0.257 C 
ATOM     10  O   LIG    1       -1.426   2.799   1.121  0.00  0.00    -0.272 OA
BRANCH   9  11
ATOM     11  C   LIG    1        0.405   1.864  -0.038  0.00  0.00    +0.325 C 
BRANCH  11  12
ATOM     12  O   LIG    1       -0.288   2.363  -1.184  0.00  0.00    -0.483 OA
BRANCH  12  13
ATOM     13  C   LIG    1        0.288   2.147  -2.396  0.00  0.00    +0.121 A 
ATOM     14  C   LIG    1        1.498   1.473  -2.480  0.00  0.00    +0.045 A 
ATOM     15  C   LIG    1        2.077   1.249  -3.714  0.00  0.00    +0.004 A 
ATOM     16  C   LIG    1        1.459   1.707  -4.863  0.00  0.00    +0.000 A 
ATOM     17  C   LIG    1        0.256   2.384  -4.781  0.00  0.00    +0.004 A 
ATOM     18  C   LIG    1       -0.331   2.605  -3.550  0.00  0.00    +0.045 A 
ENDBRANCH  12  13
ENDBRANCH  11  12
ENDBRANCH   9  11
ENDBRANCH   1   8
BRANCH   4  19
ATOM     19  C   LIG    1       -2.641   3.420   7.124  0.00  0.00    +0.282 C 
BRANCH  19  20
ATOM     20  C   LIG    1       -2.963   2.187   7.971  0.00  0.00    +0.431 C 
ATOM     21  F   LIG    1       -3.774   1.315   7.236  0.00  0.00    -0.167 F 
ATOM     22  F   LIG    1       -3.636   2.582   9.132  0.00  0.00    -0.167 F 
ATOM     23  F   LIG    1       -1.775   1.536   8.319  0.00  0.00    -0.167 F 
ENDBRANCH  19  20
BRANCH  19  24
ATOM     24  C   LIG    1       -3.941   4.131   6.744  0.00  0.00    +0.431 C 
ATOM     25  F   LIG    1       -3.650   5.231   5.929  0.00  0.00    -0.167 F 
ATOM     26  F   LIG    1       -4.590   4.568   7.903  0.00  0.00    -0.167 F 
ATOM     27  F   LIG    1       -4.772   3.244   6.050  0.00  0.00    -0.167 F 
ENDBRANCH  19  24
BRANCH  19  28
ATOM     28  O   LIG    1       -1.813   4.310   7.875  0.00  0.00    -0.369 OA
ATOM     29  H   LIG    1       -1.569   5.116   7.399  0.00  0.00    +0.211 HD
ENDBRANCH  19  28
ENDBRANCH   4  19
TORSDOF 8
