REMARK  Name = ZINC03936683
REMARK                            x       y       z     vdW  Elec       q    Type
REMARK                         _______ _______ _______ _____ _____    ______ ____
ROOT
ATOM      1  C   LIG    1        3.711  -0.707  -0.038  0.00  0.00    +0.140 C 
ATOM      2  C   LIG    1        4.104  -1.065   1.373  0.00  0.00    -0.019 A 
ATOM      3  C   LIG    1        4.514  -0.038   2.212  0.00  0.00    +0.006 A 
ATOM      4  C   LIG    1        4.876  -0.302   3.517  0.00  0.00    +0.000 A 
ATOM      5  C   LIG    1        4.830  -1.599   3.993  0.00  0.00    +0.000 A 
ATOM      6  C   LIG    1        4.427  -2.621   3.159  0.00  0.00    +0.004 A 
ATOM      7  C   LIG    1        4.067  -2.359   1.843  0.00  0.00    -0.041 A 
ATOM      8  C   LIG    1        3.663  -3.529   0.984  0.00  0.00    +0.054 C 
ATOM      9  C   LIG    1        2.860  -3.061  -0.229  0.00  0.00    +0.117 C 
ATOM     10  N   LIG    1        3.576  -1.929  -0.837  0.00  0.00    -0.256 N 
ATOM     11  C   LIG    1        4.088  -2.013  -2.082  0.00  0.00    +0.404 C 
ATOM     12  O   LIG    1        4.675  -1.063  -2.562  0.00  0.00    -0.226 OA
ENDROOT
BRANCH   1  16
ATOM     13  C   LIG    1       -0.016   1.379   0.014  0.00  0.00    +0.000 A 
ATOM     14  C   LIG    1        0.088   0.135   0.608  0.00  0.00    +0.000 A 
ATOM     15  C   LIG    1        1.294  -0.540   0.591  0.00  0.00    +0.006 A 
ATOM     16  C   LIG    1        2.396   0.029  -0.020  0.00  0.00    -0.023 A 
ATOM     17  C   LIG    1        2.292   1.272  -0.615  0.00  0.00    +0.006 A 
ATOM     18  C   LIG    1        1.086   1.948  -0.597  0.00  0.00    +0.000 A 
ENDBRANCH   1  16
BRANCH  11  19
ATOM     19  O   LIG    1        3.948  -3.148  -2.792  0.00  0.00    -0.449 OA
BRANCH  19  20
ATOM     20  C   LIG    1        4.515  -3.166  -4.104  0.00  0.00    +0.165 C 
ATOM     21  C   LIG    1        5.958  -3.671  -4.032  0.00  0.00    -0.033 C 
ATOM     22  N   LIG    1        6.104  -4.886  -4.837  0.00  0.00    +0.382 N 
ATOM     23  H   LIG    1        7.062  -5.196  -4.776  0.00  0.00    -0.082 HD
ATOM     24  C   LIG    1        5.805  -4.612  -6.244  0.00  0.00    -0.078 C 
ATOM     25  C   LIG    1        4.357  -4.138  -6.389  0.00  0.00    -0.012 C 
ATOM     26  C   LIG    1        5.240  -5.952  -4.324  0.00  0.00    -0.078 C 
ATOM     27  C   LIG    1        3.768  -5.520  -4.408  0.00  0.00    -0.012 C 
ATOM     28  C   LIG    1        3.702  -4.107  -5.002  0.00  0.00    +0.025 C 
ENDBRANCH  19  20
ENDBRANCH  11  19
TORSDOF 3
