REMARK  Name = ZINC03913936
REMARK                            x       y       z     vdW  Elec       q    Type
REMARK                         _______ _______ _______ _____ _____    ______ ____
ROOT
ATOM      1  C   LIG    1       -4.435  -4.410  -0.207  0.00  0.00    +0.159 C 
ENDROOT
BRANCH   1   4
ATOM      2  N   LIG    1       -2.790  -2.565  -0.111  0.00  0.00    -0.314 N 
ATOM      3  H   LIG    1       -3.534  -1.948  -0.027  0.00  0.00    +0.149 HD
ATOM      4  C   LIG    1       -3.021  -3.888  -0.217  0.00  0.00    +0.233 C 
ATOM      5  O   LIG    1       -2.091  -4.660  -0.322  0.00  0.00    -0.274 OA
BRANCH   2   6
ATOM      6  C   LIG    1       -1.416  -2.058  -0.121  0.00  0.00    +0.104 C 
BRANCH   6   7
ATOM      7  C   LIG    1       -1.433  -0.534   0.013  0.00  0.00    +0.022 C 
BRANCH   7   9
ATOM      8  C   LIG    1       -0.019   1.526   0.010  0.00  0.00    +0.007 C 
ATOM      9  C   LIG    1        0.002  -0.004   0.002  0.00  0.00    -0.016 C 
ATOM     10  C   LIG    1        0.742  -0.511   1.242  0.00  0.00    +0.007 C 
ENDBRANCH   7   9
ENDBRANCH   6   7
ENDBRANCH   2   6
ENDBRANCH   1   4
BRANCH   1  11
ATOM     11  N   LIG    1       -4.418  -5.869  -0.335  0.00  0.00    -0.302 N 
ATOM     12  H   LIG    1       -3.637  -6.372  -0.054  0.00  0.00    +0.150 HD
ATOM     13  C   LIG    1       -5.487  -6.513  -0.845  0.00  0.00    +0.246 C 
ATOM     14  O   LIG    1       -6.462  -5.885  -1.196  0.00  0.00    -0.273 OA
BRANCH  13  15
ATOM     15  C   LIG    1       -5.469  -8.014  -0.977  0.00  0.00    +0.244 C 
ATOM     16  C   LIG    1       -4.481  -8.631  -1.969  0.00  0.00    +0.265 C 
ATOM     17  O   LIG    1       -5.889  -8.578  -2.221  0.00  0.00    -0.347 OA
BRANCH  16  18
ATOM     18  C   LIG    1       -3.879  -9.969  -1.621  0.00  0.00    +0.337 C 
ATOM     19  O   LIG    1       -4.127 -10.945  -2.307  0.00  0.00    -0.248 OA
BRANCH  18  20
ATOM     20  O   LIG    1       -3.145 -10.073  -0.653  0.00  0.00    -0.479 OA
ATOM     21  H   LIG    1       -2.954  -9.322  -0.126  0.00  0.00    +0.295 HD
ENDBRANCH  18  20
ENDBRANCH  16  18
ENDBRANCH  13  15
ENDBRANCH   1  11
BRANCH   1  22
ATOM     22  C   LIG    1       -5.112  -4.021   1.109  0.00  0.00    +0.034 C 
BRANCH  22  23
ATOM     23  C   LIG    1       -6.582  -4.441   1.069  0.00  0.00    -0.015 C 
ATOM     24  C   LIG    1       -7.312  -3.642  -0.012  0.00  0.00    +0.007 C 
ATOM     25  C   LIG    1       -7.228  -4.167   2.429  0.00  0.00    +0.007 C 
ENDBRANCH  22  23
ENDBRANCH   1  22
TORSDOF 10
