REMARK  Name = ZINC03964747
REMARK                            x       y       z     vdW  Elec       q    Type
REMARK                         _______ _______ _______ _____ _____    ______ ____
ROOT
ATOM      1  N   LIG    1        1.030   0.013  -2.138  0.00  0.00    -0.102 N 
ATOM      2  C   LIG    1        1.605  -0.555  -3.368  0.00  0.00    +0.233 C 
ATOM      3  C   LIG    1        1.896   0.685  -4.237  0.00  0.00    +0.105 C 
ATOM      4  C   LIG    1        1.442   1.845  -3.380  0.00  0.00    +0.092 C 
ATOM      5  N   LIG    1        0.980   1.400  -2.263  0.00  0.00    -0.121 NA
ENDROOT
BRANCH   4   6
ATOM      6  C   LIG    1        1.511   3.266  -3.767  0.00  0.00    -0.000 A 
ATOM      7  C   LIG    1        2.022   3.630  -5.015  0.00  0.00    +0.011 A 
ATOM      8  C   LIG    1        2.083   4.961  -5.370  0.00  0.00    +0.020 A 
ATOM      9  C   LIG    1        1.640   5.936  -4.493  0.00  0.00    +0.041 A 
ATOM     10 CL   LIG    1        1.721   7.610  -4.948  0.00  0.00    -0.084 Cl
ATOM     11  C   LIG    1        1.132   5.582  -3.254  0.00  0.00    +0.020 A 
ATOM     12  C   LIG    1        1.059   4.255  -2.889  0.00  0.00    +0.011 A 
ENDBRANCH   4   6
BRANCH   3  13
ATOM     13  C   LIG    1        3.370   0.788  -4.534  0.00  0.00    -0.035 A 
ATOM     14  C   LIG    1        4.277   0.900  -3.497  0.00  0.00    +0.004 A 
ATOM     15  C   LIG    1        5.629   0.994  -3.769  0.00  0.00    +0.000 A 
ATOM     16  C   LIG    1        6.074   0.977  -5.078  0.00  0.00    +0.000 A 
ATOM     17  C   LIG    1        5.166   0.864  -6.114  0.00  0.00    +0.000 A 
ATOM     18  C   LIG    1        3.815   0.765  -5.842  0.00  0.00    +0.004 A 
ENDBRANCH   3  13
BRANCH   1  19
ATOM     19  C   LIG    1        0.605  -0.709  -1.046  0.00  0.00    +0.417 C 
ATOM     20  N   LIG    1        0.206  -0.089   0.030  0.00  0.00    +0.060 NA
BRANCH  19  22
ATOM     21  C   LIG    1        1.162  -2.782  -2.248  0.00  0.00    +0.225 C 
ATOM     22  N   LIG    1        0.601  -2.083  -1.089  0.00  0.00    -0.238 N 
ATOM     23  H   LIG    1        0.227  -2.591  -0.352  0.00  0.00    +0.244 HD
ENDBRANCH  19  22
BRANCH  20  24
ATOM     24  S   LIG    1        0.173   1.566   0.067  0.00  0.00    +0.155 S 
ATOM     25  O   LIG    1       -0.839   1.973  -0.843  0.00  0.00    -0.132 OA
ATOM     26  O   LIG    1        1.521   2.002  -0.047  0.00  0.00    -0.132 OA
BRANCH  24  27
ATOM     27  C   LIG    1       -0.374   2.040   1.674  0.00  0.00    +0.127 A 
ATOM     28  C   LIG    1       -1.724   2.207   1.922  0.00  0.00    +0.032 A 
ATOM     29  C   LIG    1       -2.154   2.578   3.182  0.00  0.00    +0.022 A 
ATOM     30  C   LIG    1       -1.233   2.784   4.194  0.00  0.00    +0.041 A 
ATOM     31 CL   LIG    1       -1.773   3.251   5.777  0.00  0.00    -0.084 Cl
ATOM     32  C   LIG    1        0.117   2.617   3.945  0.00  0.00    +0.022 A 
ATOM     33  C   LIG    1        0.546   2.240   2.686  0.00  0.00    +0.032 A 
ENDBRANCH  24  27
ENDBRANCH  20  24
ENDBRANCH   1  19
TORSDOF 6
