REMARK  Name = ZINC03879185
REMARK                            x       y       z     vdW  Elec       q    Type
REMARK                         _______ _______ _______ _____ _____    ______ ____
ROOT
ATOM      1  C   LIG    1        0.495  -5.497   0.664  0.00  0.00    +0.045 A 
ATOM      2  C   LIG    1        1.115  -4.921   1.778  0.00  0.00    +0.055 A 
ATOM      3  C   LIG    1        1.460  -5.683   2.855  0.00  0.00    +0.140 A 
ATOM      4  C   LIG    1        1.202  -7.058   2.868  0.00  0.00    +0.064 A 
ATOM      5  C   LIG    1        0.584  -7.658   1.768  0.00  0.00    +0.057 A 
ATOM      6  C   LIG    1        0.301  -9.103   1.760  0.00  0.00    +0.196 C 
ATOM      7  O   LIG    1        0.814  -9.835   2.584  0.00  0.00    -0.287 OA
ATOM      8  C   LIG    1       -0.630  -9.649   0.745  0.00  0.00    +0.033 A 
ATOM      9  C   LIG    1       -1.147 -10.934   0.874  0.00  0.00    +0.012 A 
ATOM     10  C   LIG    1       -2.007 -11.429  -0.089  0.00  0.00    +0.001 A 
ATOM     11  C   LIG    1       -2.359 -10.655  -1.181  0.00  0.00    +0.001 A 
ATOM     12  C   LIG    1       -1.855  -9.375  -1.325  0.00  0.00    +0.012 A 
ATOM     13  C   LIG    1       -0.988  -8.862  -0.365  0.00  0.00    +0.033 A 
ATOM     14  C   LIG    1       -0.438  -7.495  -0.502  0.00  0.00    +0.196 C 
ATOM     15  O   LIG    1       -0.529  -6.897  -1.557  0.00  0.00    -0.287 OA
ATOM     16  C   LIG    1        0.221  -6.868   0.655  0.00  0.00    +0.056 A 
ENDROOT
BRANCH   3  17
ATOM     17  S   LIG    1        2.241  -4.929   4.243  0.00  0.00    +0.111 S 
ATOM     18  O   LIG    1        3.206  -5.888   4.757  0.00  0.00    -0.142 OA
ATOM     19  O   LIG    1        1.194  -4.640   5.210  0.00  0.00    -0.142 OA
BRANCH  17  20
ATOM     20  O   LIG    1        2.883  -3.717   3.759  0.00  0.00    -0.250 OA
ATOM     21  H   LIG    1        2.209  -3.105   3.426  0.00  0.00    +0.245 HD
ENDBRANCH  17  20
ENDBRANCH   3  17
BRANCH   4  22
ATOM     22  N   LIG    1        1.559  -7.822   3.968  0.00  0.00    -0.356 N 
ATOM     23  H   LIG    1        1.824  -8.748   3.851  0.00  0.00    +0.142 HD
ATOM     24  H   LIG    1        1.544  -7.431   4.856  0.00  0.00    +0.142 HD
ENDBRANCH   4  22
BRANCH   1  25
ATOM     25  N   LIG    1        0.150  -4.711  -0.424  0.00  0.00    -0.313 N 
ATOM     26  H   LIG    1        0.842  -4.303  -0.967  0.00  0.00    +0.152 HD
BRANCH  25  32
ATOM     27  C   LIG    1       -5.312  -3.879  -1.701  0.00  0.00    +0.044 C 
ATOM     28  C   LIG    1       -3.861  -4.100  -1.362  0.00  0.00    -0.050 A 
ATOM     29  C   LIG    1       -3.474  -4.237  -0.041  0.00  0.00    +0.008 A 
ATOM     30  C   LIG    1       -2.145  -4.440   0.273  0.00  0.00    -0.029 A 
ATOM     31  C   LIG    1       -1.725  -4.589   1.713  0.00  0.00    +0.045 C 
ATOM     32  C   LIG    1       -1.196  -4.507  -0.739  0.00  0.00    +0.037 A 
ATOM     33  C   LIG    1       -1.588  -4.369  -2.065  0.00  0.00    -0.029 A 
ATOM     34  C   LIG    1       -0.561  -4.440  -3.166  0.00  0.00    +0.045 C 
ATOM     35  C   LIG    1       -2.919  -4.171  -2.372  0.00  0.00    +0.008 A 
ENDBRANCH  25  32
ENDBRANCH   1  25
TORSDOF 5
