REMARK  Name = ZINC03979064
REMARK                            x       y       z     vdW  Elec       q    Type
REMARK                         _______ _______ _______ _____ _____    ______ ____
ROOT
ATOM      1  C   LIG    1        1.473  -2.181  -2.645  0.00  0.00    +0.183 C 
ATOM      2  C   LIG    1        2.978  -2.403  -2.331  0.00  0.00    +0.045 C 
ATOM      3  C   LIG    1        3.426  -3.607  -3.200  0.00  0.00    +0.008 C 
ATOM      4  C   LIG    1        2.201  -3.933  -4.056  0.00  0.00    +0.002 C 
ATOM      5  C   LIG    1        2.103  -5.319  -4.620  0.00  0.00    -0.003 C 
ATOM      6  C   LIG    1        3.108  -6.282  -3.997  0.00  0.00    +0.008 C 
ATOM      7  C   LIG    1        2.723  -7.729  -4.317  0.00  0.00    +0.032 C 
ATOM      8  C   LIG    1        1.883  -7.741  -5.574  0.00  0.00    -0.060 C 
ATOM      9  C   LIG    1        2.312  -8.359  -6.667  0.00  0.00    +0.046 C 
ATOM     10  C   LIG    1        1.514  -8.372  -7.891  0.00  0.00    +0.156 C 
ATOM     11  C   LIG    1        0.200  -7.636  -7.947  0.00  0.00    +0.080 C 
ATOM     12  C   LIG    1        0.204  -6.498  -6.924  0.00  0.00    +0.019 C 
ATOM     13  O   LIG    1        1.912  -8.977  -8.865  0.00  0.00    -0.293 OA
ATOM     14  C   LIG    1        0.551  -7.030  -5.540  0.00  0.00    -0.007 C 
ATOM     15  C   LIG    1       -0.532  -7.992  -5.049  0.00  0.00    +0.016 C 
ATOM     16  C   LIG    1        0.684  -5.869  -4.538  0.00  0.00    +0.002 C 
ATOM     17  C   LIG    1       -0.367  -4.809  -4.818  0.00  0.00    +0.005 C 
ATOM     18  C   LIG    1       -0.262  -3.585  -3.907  0.00  0.00    +0.011 C 
ATOM     19  C   LIG    1        1.024  -3.586  -3.121  0.00  0.00    +0.008 C 
ATOM     20  C   LIG    1        0.942  -4.492  -1.891  0.00  0.00    +0.015 C 
ENDROOT
BRANCH   1  21
ATOM     21  O   LIG    1        0.758  -1.810  -1.467  0.00  0.00    -0.461 OA
BRANCH  21  22
ATOM     22  C   LIG    1        0.577  -0.498  -1.252  0.00  0.00    +0.307 C 
ATOM     23  O   LIG    1        1.011   0.309  -2.040  0.00  0.00    -0.251 OA
BRANCH  22  25
ATOM     24  C   LIG    1       -0.235   1.498  -0.024  0.00  0.00    +0.015 C 
ATOM     25  C   LIG    1       -0.169  -0.030  -0.029  0.00  0.00    +0.117 C 
ENDBRANCH  22  25
ENDBRANCH  21  22
ENDBRANCH   1  21
TORSDOF 3
