REMARK  Name = ZINC03925649
REMARK                            x       y       z     vdW  Elec       q    Type
REMARK                         _______ _______ _______ _____ _____    ______ ____
ROOT
ATOM      1  C   LIG    1        4.199  -1.004   1.378  0.00  0.00    +0.102 C 
ATOM      2  C   LIG    1        5.622  -1.498   1.195  0.00  0.00    +0.126 C 
ATOM      3  N   LIG    1        6.195  -1.862   2.500  0.00  0.00    -0.322 N 
ATOM      4  C   LIG    1        5.983  -3.148   2.975  0.00  0.00    +0.035 A 
ATOM      5  C   LIG    1        7.040  -4.046   3.091  0.00  0.00    +0.025 A 
ATOM      6  C   LIG    1        6.805  -5.336   3.511  0.00  0.00    +0.021 A 
ATOM      7  C   LIG    1        5.506  -5.749   3.821  0.00  0.00    +0.052 A 
ATOM      8  C   LIG    1        4.447  -4.839   3.724  0.00  0.00    +0.025 A 
ATOM      9  C   LIG    1        4.695  -3.549   3.329  0.00  0.00    -0.009 A 
ATOM     10  C   LIG    1        3.590  -2.510   3.341  0.00  0.00    +0.146 C 
ATOM     11  N   LIG    1        3.352  -2.040   1.976  0.00  0.00    -0.167 NA
ENDROOT
BRANCH  11  12
ATOM     12  S   LIG    1        2.107  -2.687   1.095  0.00  0.00    +0.068 S 
ATOM     13  O   LIG    1        1.715  -3.879   1.761  0.00  0.00    -0.152 OA
ATOM     14  O   LIG    1        2.522  -2.675  -0.264  0.00  0.00    -0.152 OA
BRANCH  12  15
ATOM     15  C   LIG    1        0.748  -1.572   1.216  0.00  0.00    +0.143 A 
ATOM     16  C   LIG    1        0.428  -0.526   0.416  0.00  0.00    +0.036 A 
ATOM     17  C   LIG    1       -0.699   0.219   0.706  0.00  0.00    +0.010 A 
ATOM     18  C   LIG    1       -1.451  -0.118   1.782  0.00  0.00    +0.047 A 
ATOM     19  S   LIG    1       -0.569  -1.532   2.421  0.00  0.00    -0.077 S 
ENDBRANCH  12  15
ENDBRANCH  11  12
BRANCH   7  20
ATOM     20  C   LIG    1        5.259  -7.098   4.234  0.00  0.00    +0.099 C 
ATOM     21  N   LIG    1        5.064  -8.168   4.561  0.00  0.00    -0.191 NA
ENDBRANCH   7  20
BRANCH   1  22
ATOM     22  C   LIG    1        3.625  -0.612   0.015  0.00  0.00    +0.057 C 
BRANCH  22  26
ATOM     23  C   LIG    1        5.703   2.809  -1.477  0.00  0.00    +0.000 A 
ATOM     24  C   LIG    1        6.206   1.542  -1.704  0.00  0.00    +0.000 A 
ATOM     25  C   LIG    1        5.533   0.434  -1.221  0.00  0.00    +0.004 A 
ATOM     26  C   LIG    1        4.358   0.595  -0.511  0.00  0.00    -0.046 A 
ATOM     27  C   LIG    1        3.856   1.862  -0.283  0.00  0.00    +0.004 A 
ATOM     28  C   LIG    1        4.527   2.969  -0.767  0.00  0.00    +0.000 A 
ENDBRANCH  22  26
ENDBRANCH   1  22
BRANCH   3  29
ATOM     29  C   LIG    1        6.971  -0.892   3.278  0.00  0.00    +0.162 C 
BRANCH  29  30
ATOM     30  C   LIG    1        6.047  -0.125   4.188  0.00  0.00    +0.076 A 
ATOM     31  C   LIG    1        5.789  -0.412   5.479  0.00  0.00    +0.108 A 
ATOM     32  N   LIG    1        4.903   0.532   5.925  0.00  0.00    -0.351 N 
ATOM     33  H   LIG    1        4.527   0.592   6.817  0.00  0.00    +0.166 HD
ATOM     34  C   LIG    1        4.650   1.363   4.891  0.00  0.00    +0.196 A 
ATOM     35  N   LIG    1        5.341   0.967   3.857  0.00  0.00    -0.239 NA
ENDBRANCH  29  30
ENDBRANCH   3  29
TORSDOF 7
