REMARK  Name = ZINC03920719
REMARK                            x       y       z     vdW  Elec       q    Type
REMARK                         _______ _______ _______ _____ _____    ______ ____
ROOT
ATOM      1  C   LIG    1       -0.752   3.099   1.281  0.00  0.00    +0.035 A 
ATOM      2  C   LIG    1        0.356   3.899   1.275  0.00  0.00    +0.066 A 
ATOM      3  C   LIG    1       -0.135   5.287   1.276  0.00  0.00    +0.020 A 
ATOM      4  C   LIG    1       -1.514   5.198   1.291  0.00  0.00    +0.058 A 
ATOM      5  N   LIG    1       -1.856   3.870   1.294  0.00  0.00    -0.342 N 
ENDROOT
BRANCH   4   6
ATOM      6  C   LIG    1       -2.456   6.335   1.303  0.00  0.00    -0.001 A 
ATOM      7  C   LIG    1       -3.567   6.334   0.457  0.00  0.00    +0.013 A 
ATOM      8  C   LIG    1       -4.446   7.397   0.476  0.00  0.00    +0.039 A 
ATOM      9  C   LIG    1       -4.222   8.470   1.324  0.00  0.00    +0.123 A 
ATOM     10  F   LIG    1       -5.083   9.510   1.335  0.00  0.00    -0.205 F 
ATOM     11  C   LIG    1       -3.117   8.479   2.161  0.00  0.00    +0.039 A 
ATOM     12  C   LIG    1       -2.235   7.419   2.155  0.00  0.00    +0.013 A 
ENDBRANCH   4   6
BRANCH   3  13
ATOM     13  C   LIG    1        0.680   6.523   1.267  0.00  0.00    -0.015 A 
ATOM     14  C   LIG    1        0.632   7.386   0.172  0.00  0.00    +0.008 A 
ATOM     15  C   LIG    1        1.390   8.539   0.173  0.00  0.00    +0.001 A 
ATOM     16  C   LIG    1        2.205   8.834   1.252  0.00  0.00    +0.000 A 
ATOM     17  C   LIG    1        2.261   7.979   2.338  0.00  0.00    +0.001 A 
ATOM     18  C   LIG    1        1.503   6.826   2.352  0.00  0.00    +0.008 A 
ENDBRANCH   3  13
BRANCH   2  19
ATOM     19  C   LIG    1        1.760   3.461   1.267  0.00  0.00    +0.251 C 
ATOM     20  N   LIG    1        2.410   3.260   2.431  0.00  0.00    -0.281 N 
ATOM     21  H   LIG    1        1.974   3.468   3.272  0.00  0.00    +0.155 HD
ATOM     22  O   LIG    1        2.335   3.280   0.211  0.00  0.00    -0.270 OA
BRANCH  20  23
ATOM     23  C   LIG    1        3.713   2.751   2.426  0.00  0.00    +0.034 A 
ATOM     24  C   LIG    1        4.130   1.897   3.438  0.00  0.00    +0.023 A 
ATOM     25  C   LIG    1        5.416   1.392   3.427  0.00  0.00    +0.002 A 
ATOM     26  C   LIG    1        6.290   1.746   2.416  0.00  0.00    +0.000 A 
ATOM     27  C   LIG    1        5.880   2.600   1.410  0.00  0.00    +0.002 A 
ATOM     28  C   LIG    1        4.594   3.104   1.412  0.00  0.00    +0.023 A 
ENDBRANCH  20  23
ENDBRANCH   2  19
BRANCH   1  30
ATOM     29  C   LIG    1       -0.029   1.089   0.022  0.00  0.00    +0.014 C 
ATOM     30  C   LIG    1       -0.740   1.592   1.280  0.00  0.00    +0.030 C 
ATOM     31  C   LIG    1       -0.001   1.087   2.521  0.00  0.00    +0.014 C 
ENDBRANCH   1  30
BRANCH   5  32
ATOM     32  C   LIG    1       -3.230   3.362   1.309  0.00  0.00    +0.124 C 
BRANCH  32  33
ATOM     33  C   LIG    1       -3.692   3.184   2.756  0.00  0.00    +0.053 C 
BRANCH  33  34
ATOM     34  C   LIG    1       -5.127   2.653   2.772  0.00  0.00    +0.119 C 
BRANCH  34  35
ATOM     35  O   LIG    1       -5.156   1.343   2.202  0.00  0.00    -0.392 OA
ATOM     36  H   LIG    1       -4.608   0.698   2.670  0.00  0.00    +0.210 HD
ENDBRANCH  34  35
BRANCH  34  37
ATOM     37  C   LIG    1       -5.633   2.593   4.215  0.00  0.00    +0.063 C 
BRANCH  37  38
ATOM     38  C   LIG    1       -7.106   2.182   4.221  0.00  0.00    +0.128 C 
BRANCH  38  39
ATOM     39  O   LIG    1       -7.231   0.849   3.721  0.00  0.00    -0.391 OA
ATOM     40  H   LIG    1       -6.748   0.189   4.237  0.00  0.00    +0.210 HD
ENDBRANCH  38  39
BRANCH  38  41
ATOM     41  C   LIG    1       -7.646   2.242   5.652  0.00  0.00    +0.151 C 
BRANCH  41  42
ATOM     42  C   LIG    1       -9.126   1.957   5.643  0.00  0.00    +0.307 C 
ATOM     43  O   LIG    1       -9.691   1.728   4.600  0.00  0.00    -0.251 OA
BRANCH  42  44
ATOM     44  O   LIG    1       -9.816   1.956   6.794  0.00  0.00    -0.481 OA
ATOM     45  H   LIG    1       -9.378   2.134   7.603  0.00  0.00    +0.295 HD
ENDBRANCH  42  44
ENDBRANCH  41  42
ENDBRANCH  38  41
ENDBRANCH  37  38
ENDBRANCH  34  37
ENDBRANCH  33  34
ENDBRANCH  32  33
ENDBRANCH   5  32
TORSDOF 15
