REMARK  Name = ZINC03978019
REMARK                            x       y       z     vdW  Elec       q    Type
REMARK                         _______ _______ _______ _____ _____    ______ ____
ROOT
ATOM      1  C   LIG    1       -0.012  -0.788  -1.262  0.00  0.00    +0.176 C 
ATOM      2  C   LIG    1        1.355  -1.339  -1.745  0.00  0.00    +0.057 C 
ATOM      3  C   LIG    1        1.175  -2.878  -1.898  0.00  0.00    +0.009 C 
ATOM      4  C   LIG    1       -0.351  -2.999  -2.038  0.00  0.00    +0.006 C 
ATOM      5  C   LIG    1       -0.956  -4.358  -1.951  0.00  0.00    +0.021 C 
ATOM      6  C   LIG    1        0.021  -5.473  -1.676  0.00  0.00    -0.003 C 
ATOM      7  C   LIG    1       -0.525  -6.713  -1.629  0.00  0.00    +0.041 C 
ATOM      8 CL   LIG    1        0.445  -8.140  -1.393  0.00  0.00    -0.084 Cl
ATOM      9  C   LIG    1       -1.992  -6.772  -1.793  0.00  0.00    -0.020 C 
ATOM     10  C   LIG    1       -2.500  -7.753  -2.572  0.00  0.00    +0.052 C 
ATOM     11  C   LIG    1       -3.865  -7.869  -2.864  0.00  0.00    +0.160 C 
ATOM     12  C   LIG    1       -4.792  -6.719  -2.554  0.00  0.00    +0.064 C 
ATOM     13  C   LIG    1       -4.428  -5.359  -3.156  0.00  0.00    +0.016 C 
ATOM     14  C   LIG    1       -4.234  -5.608  -1.663  0.00  0.00    +0.011 C 
ATOM     15  O   LIG    1       -4.298  -8.877  -3.382  0.00  0.00    -0.292 OA
ATOM     16  C   LIG    1       -2.839  -5.756  -1.102  0.00  0.00    +0.001 C 
ATOM     17  C   LIG    1       -3.020  -6.269   0.335  0.00  0.00    +0.017 C 
ATOM     18  C   LIG    1       -2.113  -4.424  -0.963  0.00  0.00    +0.007 C 
ATOM     19  C   LIG    1       -3.043  -3.235  -1.101  0.00  0.00    +0.005 C 
ATOM     20  C   LIG    1       -2.321  -1.888  -0.951  0.00  0.00    +0.011 C 
ATOM     21  C   LIG    1       -0.826  -2.052  -0.914  0.00  0.00    +0.018 C 
ATOM     22  C   LIG    1       -0.353  -2.493   0.472  0.00  0.00    +0.016 C 
ENDROOT
BRANCH   1  24
ATOM     23  C   LIG    1       -0.912   1.038   0.366  0.00  0.00    +0.090 C 
ATOM     24  C   LIG    1        0.164   0.062  -0.035  0.00  0.00    +0.174 C 
ATOM     25  O   LIG    1        1.167  -0.038   0.630  0.00  0.00    -0.293 OA
ENDBRANCH   1  24
BRANCH   1  26
ATOM     26  O   LIG    1       -0.653  -0.057  -2.303  0.00  0.00    -0.450 OA
BRANCH  26  27
ATOM     27  C   LIG    1       -0.037   1.053  -2.738  0.00  0.00    +0.305 C 
ATOM     28  C   LIG    1       -0.694   1.921  -3.780  0.00  0.00    +0.136 C 
ATOM     29  O   LIG    1        1.044   1.357  -2.293  0.00  0.00    -0.251 OA
ENDBRANCH  26  27
ENDBRANCH   1  26
TORSDOF 3
