REMARK  Name = ZINC03995850
REMARK                            x       y       z     vdW  Elec       q    Type
REMARK                         _______ _______ _______ _____ _____    ______ ____
ROOT
ATOM      1  C   LIG    1        0.211   1.899  -0.151  0.00  0.00    +0.013 C 
ATOM      2  C   LIG    1        1.755   1.983  -0.060  0.00  0.00    +0.110 C 
ATOM      3  C   LIG    1        2.139   0.844   0.906  0.00  0.00    +0.110 C 
ATOM      4  C   LIG    1        0.992  -0.180   0.857  0.00  0.00    +0.013 C 
ATOM      5  C   LIG    1       -0.050   0.373  -0.138  0.00  0.00    +0.030 C 
ENDROOT
BRANCH   5   6
ATOM      6  N   LIG    1        0.163  -0.197  -1.475  0.00  0.00    +0.389 N 
ATOM      7  H   LIG    1       -0.470   0.237  -2.130  0.00  0.00    -0.088 HD
ATOM      8  H   LIG    1       -0.011  -1.191  -1.448  0.00  0.00    -0.088 HD
ATOM      9  H   LIG    1        1.114  -0.030  -1.764  0.00  0.00    -0.088 HD
ENDBRANCH   5   6
BRANCH   2  10
ATOM     10  C   LIG    1        2.179   3.317   0.497  0.00  0.00    +0.309 C 
ATOM     11  O   LIG    1        1.339   4.155   0.778  0.00  0.00    -0.251 OA
BRANCH  10  12
ATOM     12  O   LIG    1        3.361   3.559   0.668  0.00  0.00    -0.480 OA
ATOM     13  H   LIG    1        4.007   2.915   0.452  0.00  0.00    +0.295 HD
ENDBRANCH  10  12
ENDBRANCH   2  10
BRANCH   3  14
ATOM     14  C   LIG    1        2.292   1.383   2.305  0.00  0.00    +0.309 C 
ATOM     15  O   LIG    1        1.321   1.818   2.900  0.00  0.00    -0.251 OA
BRANCH  14  16
ATOM     16  O   LIG    1        3.387   1.384   2.841  0.00  0.00    -0.480 OA
ATOM     17  H   LIG    1        4.133   1.050   2.384  0.00  0.00    +0.295 HD
ENDBRANCH  14  16
ENDBRANCH   3  14
BRANCH   5  18
ATOM     18  C   LIG    1       -1.447   0.081   0.346  0.00  0.00    +0.293 C 
ATOM     19  O   LIG    1       -2.231  -0.510  -0.377  0.00  0.00    -0.253 OA
BRANCH  18  20
ATOM     20  O   LIG    1       -1.793   0.435   1.460  0.00  0.00    -0.482 OA
ATOM     21  H   LIG    1       -1.191   0.889   2.015  0.00  0.00    +0.295 HD
ENDBRANCH  18  20
ENDBRANCH   5  18
TORSDOF 7
