REMARK  Name = ZINC04081122
REMARK                            x       y       z     vdW  Elec       q    Type
REMARK                         _______ _______ _______ _____ _____    ______ ____
ROOT
ATOM      1  C   LIG    1       -0.150  -0.694  -1.213  0.00  0.00    +0.062 C 
ATOM      2  C   LIG    1        1.339  -0.737  -1.648  0.00  0.00    +0.012 C 
ATOM      3  C   LIG    1        1.551  -2.101  -2.348  0.00  0.00    +0.005 C 
ATOM      4  C   LIG    1        0.177  -2.765  -2.370  0.00  0.00    -0.000 C 
ATOM      5  C   LIG    1        0.164  -4.272  -2.240  0.00  0.00    +0.003 C 
ATOM      6  C   LIG    1        0.972  -4.949  -3.345  0.00  0.00    +0.005 C 
ATOM      7  C   LIG    1        0.908  -6.467  -3.149  0.00  0.00    +0.004 C 
ATOM      8  C   LIG    1       -0.545  -6.939  -3.205  0.00  0.00    -0.002 C 
ATOM      9  C   LIG    1       -1.371  -6.231  -2.113  0.00  0.00    -0.019 C 
ATOM     10  C   LIG    1       -0.787  -6.554  -0.736  0.00  0.00    +0.012 C 
ATOM     11  C   LIG    1       -2.823  -6.708  -2.185  0.00  0.00    +0.010 C 
ATOM     12  C   LIG    1       -2.875  -8.221  -1.959  0.00  0.00    +0.032 C 
ATOM     13  C   LIG    1       -2.054  -8.927  -3.039  0.00  0.00    +0.115 C 
ATOM     14  C   LIG    1       -0.602  -8.452  -2.986  0.00  0.00    +0.035 C 
ATOM     15  C   LIG    1       -1.312  -4.725  -2.353  0.00  0.00    +0.065 C 
ATOM     16  C   LIG    1       -2.160  -3.979  -1.357  0.00  0.00    +0.138 C 
ATOM     17  O   LIG    1       -2.942  -4.573  -0.653  0.00  0.00    -0.297 OA
ATOM     18  C   LIG    1       -2.019  -2.467  -1.249  0.00  0.00    +0.082 C 
ATOM     19  C   LIG    1       -0.531  -2.177  -1.117  0.00  0.00    -0.013 C 
ATOM     20  C   LIG    1        0.040  -2.795   0.161  0.00  0.00    +0.012 C 
ENDROOT
BRANCH   1  22
ATOM     21  C   LIG    1       -1.623   0.562   0.539  0.00  0.00    +0.086 C 
ATOM     22  C   LIG    1       -0.295  -0.020   0.127  0.00  0.00    +0.134 C 
ATOM     23  O   LIG    1        0.653   0.054   0.871  0.00  0.00    -0.297 OA
ENDBRANCH   1  22
BRANCH  13  24
ATOM     24  O   LIG    1       -2.594  -8.620  -4.326  0.00  0.00    -0.392 OA
ATOM     25  H   LIG    1       -3.514  -8.894  -4.442  0.00  0.00    +0.210 HD
ENDBRANCH  13  24
TORSDOF 2
