REMARK  Name = ZINC03972273
REMARK                            x       y       z     vdW  Elec       q    Type
REMARK                         _______ _______ _______ _____ _____    ______ ____
ROOT
ATOM      1  N   LIG    1       -3.287   5.544   8.257  0.00  0.00    -0.281 N 
ATOM      2  H   LIG    1       -4.148   5.984   8.179  0.00  0.00    +0.155 HD
ATOM      3  C   LIG    1       -2.665   5.487   9.451  0.00  0.00    +0.248 C 
ATOM      4  O   LIG    1       -1.546   5.019   9.533  0.00  0.00    -0.270 OA
ENDROOT
BRANCH   1  10
ATOM      5  C   LIG    1       -1.466   3.640   2.402  0.00  0.00    -0.023 C 
ATOM      6  C   LIG    1       -1.506   5.172   2.396  0.00  0.00    +0.007 C 
ATOM      7  C   LIG    1       -2.535   5.632   3.426  0.00  0.00    +0.035 C 
ATOM      8  C   LIG    1       -2.284   4.971   4.757  0.00  0.00    -0.042 A 
ATOM      9  C   LIG    1       -2.873   5.537   5.879  0.00  0.00    +0.027 A 
ATOM     10  C   LIG    1       -2.690   4.969   7.130  0.00  0.00    +0.034 A 
ATOM     11  C   LIG    1       -1.911   3.826   7.259  0.00  0.00    +0.023 A 
ATOM     12  C   LIG    1       -1.326   3.270   6.142  0.00  0.00    +0.006 A 
ATOM     13  C   LIG    1       -1.508   3.840   4.888  0.00  0.00    -0.044 A 
ATOM     14  C   LIG    1       -0.834   3.180   3.714  0.00  0.00    +0.037 C 
BRANCH   5  15
ATOM     15  C   LIG    1       -0.628   3.141   1.223  0.00  0.00    -0.076 C 
BRANCH  15  17
ATOM     16  C   LIG    1       -1.966   1.210   0.639  0.00  0.00    -0.097 C 
ATOM     17  N   LIG    1       -0.676   1.664   1.200  0.00  0.00    +0.376 N 
ATOM     18  H   LIG    1       -0.587   1.312   2.160  0.00  0.00    -0.083 HD
ATOM     19  C   LIG    1        0.441   1.135   0.389  0.00  0.00    -0.097 C 
ENDBRANCH  15  17
ENDBRANCH   5  15
ENDBRANCH   1  10
BRANCH   3  20
ATOM     20  C   LIG    1       -3.344   5.992  10.662  0.00  0.00    +0.037 A 
ATOM     21  C   LIG    1       -4.628   6.535  10.568  0.00  0.00    +0.013 A 
ATOM     22  C   LIG    1       -5.262   7.000  11.698  0.00  0.00    +0.009 A 
ATOM     23  C   LIG    1       -4.618   6.941  12.934  0.00  0.00    -0.018 A 
ATOM     24  C   LIG    1       -3.334   6.404  13.028  0.00  0.00    +0.009 A 
ATOM     25  C   LIG    1       -2.700   5.933  11.901  0.00  0.00    +0.013 A 
BRANCH  23  26
ATOM     26  C   LIG    1       -5.299   7.449  14.149  0.00  0.00    -0.018 A 
ATOM     27  C   LIG    1       -4.660   7.385  15.387  0.00  0.00    +0.011 A 
ATOM     28  C   LIG    1       -5.296   7.863  16.514  0.00  0.00    +0.039 A 
ATOM     29  C   LIG    1       -6.572   8.396  16.419  0.00  0.00    +0.123 A 
ATOM     30  F   LIG    1       -7.193   8.857  17.526  0.00  0.00    -0.205 F 
ATOM     31  C   LIG    1       -7.213   8.456  15.192  0.00  0.00    +0.039 A 
ATOM     32  C   LIG    1       -6.583   7.985  14.059  0.00  0.00    +0.011 A 
ENDBRANCH  23  26
ENDBRANCH   3  20
TORSDOF 5
