REMARK  Name = ZINC03977948
REMARK                            x       y       z     vdW  Elec       q    Type
REMARK                         _______ _______ _______ _____ _____    ______ ____
ROOT
ATOM      1  C   LIG    1       -0.638   0.775   0.342  0.00  0.00    +0.012 C 
ATOM      2  C   LIG    1       -0.377  -0.721   0.158  0.00  0.00    +0.013 C 
ATOM      3  C   LIG    1        0.453  -0.941  -1.098  0.00  0.00    +0.011 C 
ATOM      4  C   LIG    1        1.422  -2.114  -0.967  0.00  0.00    -0.003 C 
ATOM      5  C   LIG    1        0.885  -3.221  -0.078  0.00  0.00    +0.002 C 
ATOM      6  C   LIG    1        0.703  -2.725   1.362  0.00  0.00    -0.007 C 
ATOM      7  C   LIG    1       -0.418  -3.518   2.037  0.00  0.00    +0.016 C 
ATOM      8  C   LIG    1        2.006  -2.921   2.139  0.00  0.00    +0.019 C 
ATOM      9  C   LIG    1        1.870  -2.395   3.566  0.00  0.00    +0.080 C 
ATOM     10  C   LIG    1        1.450  -0.948   3.512  0.00  0.00    +0.156 C 
ATOM     11  O   LIG    1        1.724  -0.201   4.428  0.00  0.00    -0.293 OA
ATOM     12  C   LIG    1        0.710  -0.445   2.356  0.00  0.00    +0.046 C 
ATOM     13  C   LIG    1        1.884  -4.387  -0.038  0.00  0.00    +0.005 C 
ATOM     14  C   LIG    1        2.054  -4.946  -1.448  0.00  0.00    +0.011 C 
ATOM     15  C   LIG    1        2.592  -3.881  -2.376  0.00  0.00    +0.018 C 
ATOM     16  C   LIG    1        2.644  -4.438  -3.800  0.00  0.00    +0.016 C 
ATOM     17  C   LIG    1        3.993  -3.400  -1.976  0.00  0.00    +0.176 C 
ATOM     18  C   LIG    1        4.053  -1.927  -2.414  0.00  0.00    +0.057 C 
ATOM     19  C   LIG    1        2.680  -1.586  -3.032  0.00  0.00    +0.009 C 
ATOM     20  C   LIG    1        1.713  -2.622  -2.385  0.00  0.00    +0.003 C 
ATOM     21  C   LIG    1        0.376  -1.251   1.354  0.00  0.00    -0.057 C 
ENDROOT
BRANCH  17  22
ATOM     22  C   LIG    1        5.044  -4.196  -2.704  0.00  0.00    +0.174 C 
ATOM     23  C   LIG    1        5.500  -5.523  -2.154  0.00  0.00    +0.090 C 
ATOM     24  O   LIG    1        5.521  -3.772  -3.729  0.00  0.00    -0.293 OA
ENDBRANCH  17  22
BRANCH  17  25
ATOM     25  O   LIG    1        4.170  -3.522  -0.563  0.00  0.00    -0.450 OA
BRANCH  25  26
ATOM     26  C   LIG    1        5.350  -3.125  -0.060  0.00  0.00    +0.305 C 
ATOM     27  C   LIG    1        5.657  -3.338   1.399  0.00  0.00    +0.136 C 
ATOM     28  O   LIG    1        6.165  -2.595  -0.779  0.00  0.00    -0.251 OA
ENDBRANCH  25  26
ENDBRANCH  17  25
TORSDOF 3
