REMARK  Name = ZINC03872906
REMARK                            x       y       z     vdW  Elec       q    Type
REMARK                         _______ _______ _______ _____ _____    ______ ____
ROOT
ATOM      1  C   LIG    1       -1.376  -0.512   0.012  0.00  0.00    -0.040 C 
ATOM      2  C   LIG    1       -1.378  -2.054   0.096  0.00  0.00    +0.001 C 
ATOM      3  C   LIG    1       -1.427  -2.466  -1.391  0.00  0.00    +0.048 C 
ATOM      4  C   LIG    1       -2.096  -1.308  -2.101  0.00  0.00    -0.038 A 
ATOM      5  C   LIG    1       -2.683  -1.242  -3.353  0.00  0.00    +0.004 A 
ATOM      6  C   LIG    1       -3.241  -0.052  -3.797  0.00  0.00    +0.000 A 
ATOM      7  C   LIG    1       -3.212   1.069  -2.989  0.00  0.00    +0.000 A 
ATOM      8  C   LIG    1       -2.626   1.002  -1.739  0.00  0.00    +0.002 A 
ATOM      9  C   LIG    1       -2.067  -0.183  -1.293  0.00  0.00    -0.058 A 
ENDROOT
BRANCH   3  10
ATOM     10  C   LIG    1       -2.240  -3.724  -1.558  0.00  0.00    -0.039 A 
ATOM     11  C   LIG    1       -3.569  -3.744  -1.179  0.00  0.00    +0.006 A 
ATOM     12  C   LIG    1       -4.315  -4.897  -1.331  0.00  0.00    +0.022 A 
ATOM     13  C   LIG    1       -3.732  -6.033  -1.863  0.00  0.00    +0.059 A 
ATOM     14 CL   LIG    1       -4.668  -7.482  -2.054  0.00  0.00    -0.082 Cl
ATOM     15  C   LIG    1       -2.401  -6.013  -2.243  0.00  0.00    +0.060 A 
ATOM     16 CL   LIG    1       -1.667  -7.438  -2.911  0.00  0.00    -0.082 Cl
ATOM     17  C   LIG    1       -1.657  -4.856  -2.095  0.00  0.00    +0.025 A 
ENDBRANCH   3  10
BRANCH   1  19
ATOM     18  C   LIG    1       -0.018   1.465   0.010  0.00  0.00    -0.100 C 
ATOM     19  N   LIG    1        0.002  -0.004   0.002  0.00  0.00    +0.382 N 
ATOM     20  H   LIG    1        0.490  -0.338   0.820  0.00  0.00    -0.085 HD
ATOM     21  H   LIG    1        0.474  -0.330  -0.828  0.00  0.00    -0.085 HD
ENDBRANCH   1  19
TORSDOF 2
