REMARK  Name = ZINC04062977
REMARK                            x       y       z     vdW  Elec       q    Type
REMARK                         _______ _______ _______ _____ _____    ______ ____
ROOT
ATOM      1  C   LIG    1       -0.006  -2.813  -4.924  0.00  0.00    +0.100 C 
ENDROOT
BRANCH   1   2
ATOM      2  C   LIG    1        1.181  -2.506  -5.800  0.00  0.00    +0.092 A 
ATOM      3  C   LIG    1        2.444  -3.061  -5.504  0.00  0.00    +0.200 A 
ATOM      4  C   LIG    1        3.564  -2.719  -6.404  0.00  0.00    +0.065 A 
ATOM      5  C   LIG    1        4.846  -3.220  -6.190  0.00  0.00    +0.015 A 
ATOM      6  C   LIG    1        5.863  -2.877  -7.054  0.00  0.00    +0.001 A 
ATOM      7  C   LIG    1        5.614  -2.037  -8.129  0.00  0.00    +0.004 A 
ATOM      8  C   LIG    1        4.349  -1.534  -8.351  0.00  0.00    +0.047 A 
ATOM      9  C   LIG    1        3.310  -1.869  -7.492  0.00  0.00    +0.143 A 
ATOM     10  O   LIG    1        2.064  -1.389  -7.690  0.00  0.00    -0.425 OA
ATOM     11  O   LIG    1        2.604  -3.795  -4.542  0.00  0.00    -0.287 OA
ATOM     12  C   LIG    1        1.041  -1.698  -6.883  0.00  0.00    +0.292 A 
BRANCH  12  13
ATOM     13  O   LIG    1       -0.176  -1.181  -7.153  0.00  0.00    -0.480 OA
ATOM     14  H   LIG    1       -0.905  -1.385  -6.601  0.00  0.00    +0.295 HD
ENDBRANCH  12  13
ENDBRANCH   1   2
BRANCH   1  15
ATOM     15  C   LIG    1       -1.267  -2.755  -5.749  0.00  0.00    +0.092 A 
ATOM     16  C   LIG    1       -2.261  -1.797  -5.459  0.00  0.00    +0.200 A 
ATOM     17  C   LIG    1       -3.471  -1.797  -6.307  0.00  0.00    +0.065 A 
ATOM     18  C   LIG    1       -4.505  -0.888  -6.095  0.00  0.00    +0.015 A 
ATOM     19  C   LIG    1       -5.616  -0.920  -6.909  0.00  0.00    +0.001 A 
ATOM     20  C   LIG    1       -5.706  -1.853  -7.933  0.00  0.00    +0.004 A 
ATOM     21  C   LIG    1       -4.689  -2.757  -8.152  0.00  0.00    +0.047 A 
ATOM     22  C   LIG    1       -3.560  -2.740  -7.342  0.00  0.00    +0.143 A 
ATOM     23  O   LIG    1       -2.552  -3.616  -7.539  0.00  0.00    -0.425 OA
ATOM     24  O   LIG    1       -2.128  -1.000  -4.544  0.00  0.00    -0.287 OA
ATOM     25  C   LIG    1       -1.450  -3.621  -6.779  0.00  0.00    +0.292 A 
BRANCH  25  26
ATOM     26  O   LIG    1       -0.484  -4.526  -7.045  0.00  0.00    -0.480 OA
ATOM     27  H   LIG    1        0.295  -4.546  -6.525  0.00  0.00    +0.295 HD
ENDBRANCH  25  26
ENDBRANCH   1  15
BRANCH   1  31
ATOM     28  C   LIG    1       -0.231   0.064  -1.772  0.00  0.00    +0.029 A 
ATOM     29  C   LIG    1       -0.544  -1.266  -1.523  0.00  0.00    +0.023 A 
ATOM     30  C   LIG    1       -0.470  -2.193  -2.545  0.00  0.00    +0.006 A 
ATOM     31  C   LIG    1       -0.086  -1.798  -3.813  0.00  0.00    -0.035 A 
ATOM     32  C   LIG    1        0.226  -0.475  -4.063  0.00  0.00    +0.006 A 
ATOM     33  C   LIG    1        0.149   0.459  -3.048  0.00  0.00    +0.023 A 
BRANCH  28  35
ATOM     34  C   LIG    1        0.020   2.408  -1.006  0.00  0.00    +0.129 C 
ATOM     35  N   LIG    1       -0.304   1.004  -0.741  0.00  0.00    -0.336 N 
ATOM     36  C   LIG    1       -0.706   0.587   0.604  0.00  0.00    +0.129 C 
ENDBRANCH  28  35
ENDBRANCH   1  31
TORSDOF 6
