REMARK  Name = ZINC03954452
REMARK                            x       y       z     vdW  Elec       q    Type
REMARK                         _______ _______ _______ _____ _____    ______ ____
ROOT
ATOM      1  C   LIG    1       -5.419  -2.005   0.043  0.00  0.00    +0.100 C 
ENDROOT
BRANCH   1   2
ATOM      2  C   LIG    1       -5.511  -3.509   0.046  0.00  0.00    +0.092 A 
ATOM      3  C   LIG    1       -5.251  -4.234   1.228  0.00  0.00    +0.200 A 
ATOM      4  C   LIG    1       -5.359  -5.705   1.159  0.00  0.00    +0.065 A 
ATOM      5  C   LIG    1       -5.121  -6.503   2.276  0.00  0.00    +0.015 A 
ATOM      6  C   LIG    1       -5.233  -7.873   2.170  0.00  0.00    +0.001 A 
ATOM      7  C   LIG    1       -5.580  -8.454   0.960  0.00  0.00    +0.004 A 
ATOM      8  C   LIG    1       -5.819  -7.675  -0.152  0.00  0.00    +0.047 A 
ATOM      9  C   LIG    1       -5.711  -6.292  -0.066  0.00  0.00    +0.143 A 
ATOM     10  O   LIG    1       -5.941  -5.510  -1.141  0.00  0.00    -0.425 OA
ATOM     11  O   LIG    1       -4.949  -3.668   2.266  0.00  0.00    -0.287 OA
ATOM     12  C   LIG    1       -5.850  -4.175  -1.088  0.00  0.00    +0.292 A 
BRANCH  12  13
ATOM     13  O   LIG    1       -6.101  -3.464  -2.207  0.00  0.00    -0.480 OA
ATOM     14  H   LIG    1       -6.043  -2.529  -2.191  0.00  0.00    +0.295 HD
ENDBRANCH  12  13
ENDBRANCH   1   2
BRANCH   1  15
ATOM     15  C   LIG    1       -6.369  -1.445  -0.984  0.00  0.00    +0.092 A 
ATOM     16  C   LIG    1       -5.874  -0.719  -2.088  0.00  0.00    +0.200 A 
ATOM     17  C   LIG    1       -6.861  -0.200  -3.056  0.00  0.00    +0.065 A 
ATOM     18  C   LIG    1       -6.465   0.529  -4.176  0.00  0.00    +0.015 A 
ATOM     19  C   LIG    1       -7.417   0.995  -5.056  0.00  0.00    +0.001 A 
ATOM     20  C   LIG    1       -8.762   0.743  -4.829  0.00  0.00    +0.004 A 
ATOM     21  C   LIG    1       -9.166   0.024  -3.724  0.00  0.00    +0.047 A 
ATOM     22  C   LIG    1       -8.221  -0.456  -2.825  0.00  0.00    +0.143 A 
ATOM     23  O   LIG    1       -8.594  -1.163  -1.738  0.00  0.00    -0.425 OA
ATOM     24  O   LIG    1       -4.678  -0.527  -2.236  0.00  0.00    -0.287 OA
ATOM     25  C   LIG    1       -7.707  -1.642  -0.857  0.00  0.00    +0.292 A 
BRANCH  25  26
ATOM     26  O   LIG    1       -8.161  -2.345   0.202  0.00  0.00    -0.480 OA
ATOM     27  H   LIG    1       -7.556  -2.689   0.830  0.00  0.00    +0.295 HD
ENDBRANCH  25  26
ENDBRANCH   1  15
BRANCH   1  31
ATOM     28  C   LIG    1       -1.427  -0.825  -0.914  0.00  0.00    -0.045 A 
ATOM     29  C   LIG    1       -2.149  -0.118   0.029  0.00  0.00    +0.004 A 
ATOM     30  C   LIG    1       -3.441  -0.500   0.339  0.00  0.00    +0.005 A 
ATOM     31  C   LIG    1       -4.011  -1.588  -0.295  0.00  0.00    -0.035 A 
ATOM     32  C   LIG    1       -3.289  -2.294  -1.239  0.00  0.00    +0.005 A 
ATOM     33  C   LIG    1       -1.998  -1.910  -1.551  0.00  0.00    +0.004 A 
BRANCH  28  35
ATOM     34  C   LIG    1       -0.023   1.026  -1.781  0.00  0.00    +0.012 C 
ATOM     35  C   LIG    1       -0.018  -0.409  -1.251  0.00  0.00    +0.013 C 
ATOM     36  C   LIG    1        0.851  -0.485   0.006  0.00  0.00    +0.012 C 
ENDBRANCH  28  35
ENDBRANCH   1  31
TORSDOF 6
