REMARK  Name = ZINC03941009
REMARK                            x       y       z     vdW  Elec       q    Type
REMARK                         _______ _______ _______ _____ _____    ______ ____
ROOT
ATOM      1  C   LIG    1        1.085  -2.345   0.088  0.00  0.00    +0.044 C 
ATOM      2  C   LIG    1        1.122  -0.839   0.049  0.00  0.00    -0.050 A 
ATOM      3  C   LIG    1        2.340  -0.179   0.084  0.00  0.00    +0.005 A 
ATOM      4  C   LIG    1        2.388   1.200   0.049  0.00  0.00    +0.024 A 
ATOM      5  C   LIG    1        1.212   1.936  -0.023  0.00  0.00    +0.046 A 
ATOM      6  C   LIG    1       -0.023   1.270  -0.059  0.00  0.00    +0.058 A 
ATOM      7  C   LIG    1       -0.055  -0.126  -0.022  0.00  0.00    +0.018 A 
ENDROOT
BRANCH   5   8
ATOM      8  N   LIG    1        1.258   3.326  -0.059  0.00  0.00    -0.280 N 
ATOM      9  H   LIG    1        0.565   3.846   0.378  0.00  0.00    +0.155 HD
ATOM     10  C   LIG    1        2.265   3.950  -0.702  0.00  0.00    +0.256 C 
ATOM     11  O   LIG    1        3.079   3.302  -1.332  0.00  0.00    -0.269 OA
BRANCH  10  12
ATOM     12  C   LIG    1        2.379   5.412  -0.642  0.00  0.00    +0.094 A 
ATOM     13  C   LIG    1        3.319   6.214  -1.214  0.00  0.00    +0.068 A 
ATOM     14 CL   LIG    1        4.596   5.518  -2.161  0.00  0.00    -0.082 Cl
ATOM     15  C   LIG    1        3.251   7.609  -1.039  0.00  0.00    +0.008 A 
ATOM     16  C   LIG    1        4.124   8.602  -1.552  0.00  0.00    +0.010 A 
ATOM     17  C   LIG    1        3.918   9.916  -1.280  0.00  0.00    +0.001 A 
ATOM     18  C   LIG    1        2.852  10.340  -0.496  0.00  0.00    +0.001 A 
ATOM     19  C   LIG    1        1.977   9.407   0.023  0.00  0.00    +0.016 A 
ATOM     20  C   LIG    1        2.174   8.069  -0.244  0.00  0.00    +0.021 A 
ATOM     21  S   LIG    1        1.325   6.576   0.206  0.00  0.00    -0.082 S 
ENDBRANCH  10  12
ENDBRANCH   5   8
BRANCH   6  22
ATOM     22  C   LIG    1       -1.278   2.039  -0.141  0.00  0.00    +0.250 C 
ATOM     23  N   LIG    1       -2.454   1.396  -0.282  0.00  0.00    -0.281 N 
ATOM     24  H   LIG    1       -2.469   0.435  -0.414  0.00  0.00    +0.155 HD
ATOM     25  O   LIG    1       -1.252   3.253  -0.081  0.00  0.00    -0.270 OA
BRANCH  23  26
ATOM     26  C   LIG    1       -3.654   2.115  -0.238  0.00  0.00    +0.034 A 
ATOM     27  C   LIG    1       -3.721   3.314   0.458  0.00  0.00    +0.025 A 
ATOM     28  C   LIG    1       -4.905   4.024   0.496  0.00  0.00    +0.022 A 
ATOM     29  C   LIG    1       -6.027   3.536  -0.151  0.00  0.00    +0.041 A 
ATOM     30 CL   LIG    1       -7.516   4.428  -0.097  0.00  0.00    -0.084 Cl
ATOM     31  C   LIG    1       -5.964   2.338  -0.842  0.00  0.00    +0.022 A 
ATOM     32  C   LIG    1       -4.781   1.627  -0.887  0.00  0.00    +0.025 A 
ENDBRANCH  23  26
ENDBRANCH   6  22
TORSDOF 4
