REMARK  Name = ZINC03875456
REMARK                            x       y       z     vdW  Elec       q    Type
REMARK                         _______ _______ _______ _____ _____    ______ ____
ROOT
ATOM      1  C   LIG    1        3.643   4.027  -0.012  0.00  0.00    +0.197 C 
ATOM      2  O   LIG    1        4.223   3.853  -1.067  0.00  0.00    -0.287 OA
ENDROOT
BRANCH   1   4
ATOM      3  C   LIG    1        1.522   5.418   0.004  0.00  0.00    +0.117 A 
ATOM      4  C   LIG    1        2.188   4.229   0.002  0.00  0.00    +0.071 A 
ATOM      5  C   LIG    1        1.142   3.186   0.018  0.00  0.00    +0.031 A 
ATOM      6  C   LIG    1        1.159   1.795   0.024  0.00  0.00    +0.012 A 
ATOM      7  C   LIG    1       -0.031   1.099   0.039  0.00  0.00    +0.001 A 
ATOM      8  C   LIG    1       -1.238   1.782   0.043  0.00  0.00    +0.004 A 
ATOM      9  C   LIG    1       -1.266   3.160   0.042  0.00  0.00    +0.047 A 
ATOM     10  C   LIG    1       -0.077   3.879   0.027  0.00  0.00    +0.136 A 
ATOM     11  O   LIG    1        0.202   5.199   0.018  0.00  0.00    -0.459 OA
BRANCH   3  13
ATOM     12  C   LIG    1        2.380   7.229  -1.457  0.00  0.00    +0.012 C 
ATOM     13  C   LIG    1        2.175   6.776  -0.010  0.00  0.00    +0.072 C 
ENDBRANCH   3  13
ENDBRANCH   1   4
BRANCH   1  14
ATOM     14  C   LIG    1        4.402   4.033   1.255  0.00  0.00    +0.025 A 
ATOM     15  C   LIG    1        3.727   4.124   2.475  0.00  0.00    +0.029 A 
ATOM     16  C   LIG    1        4.438   4.124   3.655  0.00  0.00    +0.056 A 
ATOM     17  I   LIG    1        3.427   4.251   5.486  0.00  0.00    -0.040 I 
ATOM     18  C   LIG    1        5.826   4.046   3.632  0.00  0.00    +0.143 A 
ATOM     19  C   LIG    1        6.502   3.961   2.420  0.00  0.00    +0.056 A 
ATOM     20  I   LIG    1        8.593   3.843   2.394  0.00  0.00    -0.040 I 
ATOM     21  C   LIG    1        5.797   3.955   1.236  0.00  0.00    +0.029 A 
BRANCH  18  22
ATOM     22  O   LIG    1        6.524   4.052   4.797  0.00  0.00    -0.505 OA
ATOM     23  H   LIG    1        6.775   4.935   5.100  0.00  0.00    +0.292 HD
ENDBRANCH  18  22
ENDBRANCH   1  14
TORSDOF 4
