REMARK  Name = ZINC03955219
REMARK                            x       y       z     vdW  Elec       q    Type
REMARK                         _______ _______ _______ _____ _____    ______ ____
ROOT
ATOM      1  C   LIG    1       -3.658  -2.036  -2.284  0.00  0.00    +0.151 C 
ENDROOT
BRANCH   1   2
ATOM      2  O   LIG    1       -4.875  -1.331  -2.032  0.00  0.00    -0.389 OA
ATOM      3  H   LIG    1       -5.166  -0.773  -2.766  0.00  0.00    +0.210 HD
ENDBRANCH   1   2
BRANCH   1   4
ATOM      4  C   LIG    1       -2.536  -1.034  -2.561  0.00  0.00    +0.142 C 
BRANCH   4   5
ATOM      5  N   LIG    1       -2.281  -0.241  -1.357  0.00  0.00    -0.174 NA
BRANCH   5   6
ATOM      6  S   LIG    1       -3.012   1.232  -1.165  0.00  0.00    +0.061 S 
ATOM      7  O   LIG    1       -3.158   1.435   0.234  0.00  0.00    -0.153 OA
ATOM      8  O   LIG    1       -4.117   1.256  -2.058  0.00  0.00    -0.153 OA
BRANCH   6   9
ATOM      9  C   LIG    1       -1.878   2.455  -1.735  0.00  0.00    +0.106 A 
ATOM     10  C   LIG    1       -1.056   3.107  -0.834  0.00  0.00    +0.030 A 
ATOM     11  C   LIG    1       -0.166   4.066  -1.277  0.00  0.00    +0.024 A 
ATOM     12  C   LIG    1       -0.097   4.374  -2.629  0.00  0.00    +0.025 A 
ATOM     13  C   LIG    1       -0.923   3.717  -3.532  0.00  0.00    +0.024 A 
ATOM     14  C   LIG    1       -1.807   2.756  -3.083  0.00  0.00    +0.030 A 
BRANCH  12  15
ATOM     15  N   LIG    1        0.802   5.343  -3.081  0.00  0.00    -0.358 N 
ATOM     16  H   LIG    1        0.850   5.558  -4.026  0.00  0.00    +0.142 HD
ATOM     17  H   LIG    1        1.378   5.802  -2.450  0.00  0.00    +0.142 HD
ENDBRANCH  12  15
ENDBRANCH   6   9
ENDBRANCH   5   6
BRANCH   5  18
ATOM     18  C   LIG    1       -1.379  -0.751  -0.321  0.00  0.00    +0.112 C 
BRANCH  18  20
ATOM     19  C   LIG    1        0.566   0.544  -1.207  0.00  0.00    +0.008 C 
ATOM     20  C   LIG    1        0.039  -0.857  -0.886  0.00  0.00    -0.001 C 
ATOM     21  C   LIG    1        0.952  -1.520   0.147  0.00  0.00    +0.008 C 
ENDBRANCH  18  20
ENDBRANCH   5  18
ENDBRANCH   4   5
ENDBRANCH   1   4
BRANCH   1  22
ATOM     22  C   LIG    1       -3.840  -2.948  -3.499  0.00  0.00    +0.110 C 
BRANCH  22  23
ATOM     23  N   LIG    1       -4.831  -3.982  -3.191  0.00  0.00    -0.275 N 
ATOM     24  H   LIG    1       -5.503  -3.821  -2.510  0.00  0.00    +0.152 HD
ATOM     25  C   LIG    1       -4.808  -5.156  -3.852  0.00  0.00    +0.401 C 
ATOM     26  O   LIG    1       -3.965  -5.357  -4.704  0.00  0.00    -0.226 OA
BRANCH  25  27
ATOM     27  O   LIG    1       -5.718  -6.106  -3.568  0.00  0.00    -0.444 OA
BRANCH  27  28
ATOM     28  C   LIG    1       -5.635  -7.327  -4.307  0.00  0.00    +0.212 C 
ATOM     29  C   LIG    1       -4.782  -8.357  -3.547  0.00  0.00    +0.208 C 
ATOM     30  O   LIG    1       -5.605  -9.496  -3.279  0.00  0.00    -0.347 OA
ATOM     31  C   LIG    1       -6.983  -9.098  -3.347  0.00  0.00    +0.257 C 
ATOM     32  O   LIG    1       -7.357  -8.477  -2.109  0.00  0.00    -0.351 OA
ATOM     33  C   LIG    1       -8.261  -7.384  -2.407  0.00  0.00    +0.163 C 
ATOM     34  C   LIG    1       -8.090  -7.002  -3.887  0.00  0.00    +0.040 C 
ATOM     35  C   LIG    1       -7.027  -7.979  -4.426  0.00  0.00    +0.090 C 
ENDBRANCH  27  28
ENDBRANCH  25  27
ENDBRANCH  22  23
BRANCH  22  36
ATOM     36  C   LIG    1       -4.323  -2.119  -4.691  0.00  0.00    +0.060 C 
BRANCH  36  37
ATOM     37  C   LIG    1       -4.384  -2.991  -5.918  0.00  0.00    -0.046 A 
ATOM     38  C   LIG    1       -3.278  -3.110  -6.738  0.00  0.00    +0.004 A 
ATOM     39  C   LIG    1       -3.334  -3.910  -7.864  0.00  0.00    +0.000 A 
ATOM     40  C   LIG    1       -4.497  -4.592  -8.169  0.00  0.00    +0.000 A 
ATOM     41  C   LIG    1       -5.603  -4.474  -7.349  0.00  0.00    +0.000 A 
ATOM     42  C   LIG    1       -5.545  -3.677  -6.221  0.00  0.00    +0.004 A 
ENDBRANCH  36  37
ENDBRANCH  22  36
ENDBRANCH   1  22
TORSDOF 14
