REMARK  Name = ZINC03873285
REMARK                            x       y       z     vdW  Elec       q    Type
REMARK                         _______ _______ _______ _____ _____    ______ ____
ROOT
ATOM      1  C   LIG    1       -0.013   1.076   0.008  0.00  0.00    +0.177 C 
ATOM      2  N   LIG    1       -1.088   1.808   0.028  0.00  0.00    -0.266 NA
ATOM      3  C   LIG    1       -0.742   3.119   0.030  0.00  0.00    +0.185 C 
ATOM      4  C   LIG    1       -1.457   4.326   0.048  0.00  0.00    +0.216 C 
ATOM      5  N   LIG    1       -0.779   5.466   0.045  0.00  0.00    -0.262 NA
ATOM      6  H   LIG    1       -1.261   6.308   0.057  0.00  0.00    +0.127 HD
ATOM      7  C   LIG    1        0.548   5.476   0.025  0.00  0.00    +0.195 C 
ATOM      8  N   LIG    1        1.262   4.362   0.009  0.00  0.00    -0.269 NA
ATOM      9  H   LIG    1        1.838   4.397  -0.832  0.00  0.00    +0.126 HD
ATOM     10  C   LIG    1        0.662   3.176   0.010  0.00  0.00    +0.170 C 
ATOM     11  N   LIG    1        1.094   1.874   0.002  0.00  0.00    -0.318 N 
ATOM     12  H   LIG    1        2.017   1.575  -0.009  0.00  0.00    +0.148 HD
ENDROOT
BRANCH   7  13
ATOM     13  N   LIG    1        1.209   6.693   0.023  0.00  0.00    -0.303 NA
ATOM     14  H   LIG    1        0.702   7.520   0.035  0.00  0.00    +0.121 HD
ATOM     15  H   LIG    1        2.178   6.719   0.010  0.00  0.00    +0.121 HD
ENDBRANCH   7  13
BRANCH   4  16
ATOM     16  O   LIG    1       -2.811   4.327   0.068  0.00  0.00    -0.359 OA
BRANCH  16  17
ATOM     17  C   LIG    1       -3.459   5.601   0.085  0.00  0.00    +0.165 C 
BRANCH  17  18
ATOM     18  C   LIG    1       -4.976   5.402   0.106  0.00  0.00    +0.015 C 
ATOM     19  C   LIG    1       -5.421   4.739  -1.199  0.00  0.00    +0.006 C 
ATOM     20  C   LIG    1       -6.938   4.540  -1.177  0.00  0.00    +0.000 C 
ATOM     21  C   LIG    1       -7.629   5.897  -1.034  0.00  0.00    +0.000 C 
ATOM     22  C   LIG    1       -7.183   6.561   0.271  0.00  0.00    +0.000 C 
ATOM     23  C   LIG    1       -5.666   6.760   0.250  0.00  0.00    +0.006 C 
ENDBRANCH  17  18
ENDBRANCH  16  17
ENDBRANCH   4  16
TORSDOF 4
