REMARK  Name = ZINC03993547
REMARK                            x       y       z     vdW  Elec       q    Type
REMARK                         _______ _______ _______ _____ _____    ______ ____
ROOT
ATOM      1  N   LIG    1       -1.379  -0.439   0.052  0.00  0.00    -0.298 N 
ATOM      2  C   LIG    1       -1.988  -0.814   1.217  0.00  0.00    +0.019 C 
ATOM      3  C   LIG    1       -1.158  -1.011   2.460  0.00  0.00    +0.061 C 
ATOM      4  C   LIG    1       -3.317  -1.011   1.270  0.00  0.00    +0.065 C 
ATOM      5  C   LIG    1       -4.189  -0.820   0.062  0.00  0.00    +0.098 C 
ATOM      6  C   LIG    1       -3.365  -0.790  -1.193  0.00  0.00    +0.077 C 
ATOM      7  C   LIG    1       -2.028  -0.597  -1.151  0.00  0.00    +0.130 C 
ENDROOT
BRANCH   5   8
ATOM      8  C   LIG    1       -4.939   0.481   0.193  0.00  0.00    -0.017 A 
ATOM      9  C   LIG    1       -4.244   1.672   0.294  0.00  0.00    +0.006 A 
ATOM     10  C   LIG    1       -4.931   2.865   0.414  0.00  0.00    +0.000 A 
ATOM     11  C   LIG    1       -6.314   2.869   0.433  0.00  0.00    +0.001 A 
ATOM     12  C   LIG    1       -7.009   1.679   0.332  0.00  0.00    +0.020 A 
ATOM     13  C   LIG    1       -6.322   0.484   0.206  0.00  0.00    +0.045 A 
ATOM     14 CL   LIG    1       -7.195  -1.010   0.073  0.00  0.00    -0.083 Cl
ENDBRANCH   5   8
BRANCH   1  16
ATOM     15  C   LIG    1        1.005  -0.982   0.013  0.00  0.00    +0.024 C 
ATOM     16  C   LIG    1       -0.033   0.139   0.086  0.00  0.00    +0.107 C 
ENDBRANCH   1  16
BRANCH   4  17
ATOM     17  C   LIG    1       -3.907  -1.409   2.492  0.00  0.00    +0.338 C 
ATOM     18  O   LIG    1       -3.214  -1.568   3.479  0.00  0.00    -0.245 OA
BRANCH  17  19
ATOM     19  O   LIG    1       -5.240  -1.611   2.563  0.00  0.00    -0.459 OA
BRANCH  19  20
ATOM     20  C   LIG    1       -5.769  -2.011   3.829  0.00  0.00    +0.171 C 
ATOM     21  C   LIG    1       -7.010  -2.878   3.611  0.00  0.00    +0.052 C 
ATOM     22  C   LIG    1       -6.148  -0.770   4.638  0.00  0.00    +0.052 C 
ENDBRANCH  19  20
ENDBRANCH  17  19
ENDBRANCH   4  17
BRANCH   6  23
ATOM     23  C   LIG    1       -4.023  -0.970  -2.489  0.00  0.00    +0.336 C 
ATOM     24  O   LIG    1       -3.352  -1.061  -3.509  0.00  0.00    -0.245 OA
BRANCH  23  25
ATOM     25  O   LIG    1       -5.244  -1.028  -2.551  0.00  0.00    -0.477 OA
ATOM     26  H   LIG    1       -5.757  -0.958  -1.771  0.00  0.00    +0.295 HD
ENDBRANCH  23  25
ENDBRANCH   6  23
BRANCH   7  27
ATOM     27  C   LIG    1       -1.253  -0.560  -2.415  0.00  0.00    +0.352 C 
ATOM     28  O   LIG    1       -1.151   0.486  -3.039  0.00  0.00    -0.244 OA
BRANCH  27  29
ATOM     29  O   LIG    1       -0.715  -1.575  -2.832  0.00  0.00    -0.476 OA
ATOM     30  H   LIG    1       -0.793  -2.376  -2.354  0.00  0.00    +0.295 HD
ENDBRANCH  27  29
ENDBRANCH   7  27
TORSDOF 9
