REMARK  Name = ZINC03949401
REMARK                            x       y       z     vdW  Elec       q    Type
REMARK                         _______ _______ _______ _____ _____    ______ ____
ROOT
ATOM      1  C   LIG    1       -0.028   1.437  -0.085  0.00  0.00    +0.007 A 
ATOM      2  C   LIG    1        1.170   2.126  -0.082  0.00  0.00    +0.046 A 
ATOM      3  C   LIG    1        2.370   1.433  -0.024  0.00  0.00    +0.132 A 
ATOM      4  C   LIG    1        2.368   0.047   0.030  0.00  0.00    +0.094 A 
ATOM      5  C   LIG    1        1.165  -0.642   0.027  0.00  0.00    +0.160 A 
ATOM      6  C   LIG    1       -0.034   0.057  -0.031  0.00  0.00    +0.049 A 
ENDROOT
BRANCH   3   7
ATOM      7  O   LIG    1        3.548   2.111  -0.022  0.00  0.00    -0.455 OA
BRANCH   7   8
ATOM      8  C   LIG    1        3.845   2.867   1.065  0.00  0.00    +0.146 A 
ATOM      9  C   LIG    1        3.026   2.833   2.183  0.00  0.00    +0.047 A 
ATOM     10  C   LIG    1        3.329   3.603   3.288  0.00  0.00    +0.004 A 
ATOM     11  C   LIG    1        4.452   4.415   3.290  0.00  0.00    +0.014 A 
ATOM     12  C   LIG    1        5.278   4.461   2.187  0.00  0.00    +0.076 A 
ATOM     13  C   LIG    1        4.986   3.683   1.065  0.00  0.00    +0.106 A 
BRANCH  12  14
ATOM     14  C   LIG    1        6.498   5.346   2.195  0.00  0.00    +0.419 C 
ATOM     15  F   LIG    1        6.403   6.279   1.158  0.00  0.00    -0.166 F 
ATOM     16  F   LIG    1        7.643   4.563   2.015  0.00  0.00    -0.166 F 
ATOM     17  F   LIG    1        6.580   6.016   3.420  0.00  0.00    -0.166 F 
ENDBRANCH  12  14
BRANCH  13  18
ATOM     18  C   LIG    1        5.843   3.722  -0.082  0.00  0.00    +0.103 C 
ATOM     19  N   LIG    1        6.523   3.753  -0.992  0.00  0.00    -0.191 NA
ENDBRANCH  13  18
ENDBRANCH   7   8
ENDBRANCH   3   7
BRANCH   5  20
ATOM     20  O   LIG    1        1.159  -2.000   0.080  0.00  0.00    -0.346 OA
BRANCH  20  21
ATOM     21  S   LIG    1        1.121  -2.564   1.493  0.00  0.00    +0.121 S 
ATOM     22  O   LIG    1        2.008  -1.739   2.236  0.00  0.00    -0.137 OA
ATOM     23  O   LIG    1        1.383  -3.952   1.336  0.00  0.00    -0.137 OA
BRANCH  21  24
ATOM     24  C   LIG    1       -0.586  -2.310   2.051  0.00  0.00    +0.211 C 
BRANCH  24  25
ATOM     25  C   LIG    1       -0.741  -2.846   3.476  0.00  0.00    +0.035 C 
BRANCH  25  26
ATOM     26  C   LIG    1       -2.181  -2.631   3.947  0.00  0.00    +0.115 C 
BRANCH  26  27
ATOM     27  C   LIG    1       -2.336  -3.167   5.372  0.00  0.00    +0.390 C 
ATOM     28  F   LIG    1       -2.038  -4.534   5.391  0.00  0.00    -0.171 F 
ATOM     29  F   LIG    1       -3.653  -2.971   5.803  0.00  0.00    -0.171 F 
ATOM     30  F   LIG    1       -1.460  -2.486   6.224  0.00  0.00    -0.171 F 
ENDBRANCH  26  27
ENDBRANCH  25  26
ENDBRANCH  24  25
ENDBRANCH  21  24
ENDBRANCH  20  21
ENDBRANCH   5  20
TORSDOF 10
