REMARK  Name = ZINC04084933
REMARK                            x       y       z     vdW  Elec       q    Type
REMARK                         _______ _______ _______ _____ _____    ______ ____
ROOT
ATOM      1  C   LIG    1        3.692  -0.680  -0.038  0.00  0.00    +0.010 C 
ATOM      2  C   LIG    1        3.714  -2.027  -0.046  0.00  0.00    +0.028 C 
ENDROOT
BRANCH   2   3
ATOM      3  C   LIG    1        4.997  -2.739  -0.063  0.00  0.00    +0.068 A 
ATOM      4  C   LIG    1        5.027  -4.154  -0.077  0.00  0.00    +0.045 A 
ATOM      5  C   LIG    1        6.226  -4.784  -0.092  0.00  0.00    +0.087 A 
ATOM      6  N   LIG    1        7.369  -4.041  -0.094  0.00  0.00    -0.340 N 
ATOM      7  H   LIG    1        8.232  -4.485  -0.105  0.00  0.00    +0.167 HD
ATOM      8  C   LIG    1        7.309  -2.697  -0.080  0.00  0.00    +0.178 A 
ATOM      9  S   LIG    1        8.762  -1.791  -0.083  0.00  0.00    -0.011 S 
ATOM     10  N   LIG    1        6.141  -2.060  -0.071  0.00  0.00    -0.223 NA
ENDBRANCH   2   3
BRANCH   1  14
ATOM     11  C   LIG    1       -0.017   1.380   0.010  0.00  0.00    +0.000 A 
ATOM     12  C   LIG    1        1.168   2.095   0.002  0.00  0.00    +0.001 A 
ATOM     13  C   LIG    1        2.377   1.433  -0.013  0.00  0.00    +0.008 A 
ATOM     14  C   LIG    1        2.405   0.035  -0.021  0.00  0.00    -0.025 A 
ATOM     15  C   LIG    1        1.204  -0.681  -0.013  0.00  0.00    +0.008 A 
ATOM     16  C   LIG    1        0.002  -0.004   0.002  0.00  0.00    +0.001 A 
ENDBRANCH   1  14
TORSDOF 2
