REMARK  Name = ZINC03924227
REMARK                            x       y       z     vdW  Elec       q    Type
REMARK                         _______ _______ _______ _____ _____    ______ ____
ROOT
ATOM      1  S   LIG    1       -1.367  -5.016  -0.059  0.00  0.00    +0.075 S 
ATOM      2  O   LIG    1       -2.350  -4.160   0.509  0.00  0.00    -0.150 OA
ATOM      3  O   LIG    1       -1.078  -6.301   0.473  0.00  0.00    -0.150 OA
ENDROOT
BRANCH   1   4
ATOM      4  C   LIG    1       -1.824  -5.258  -1.743  0.00  0.00    +0.109 A 
ATOM      5  C   LIG    1       -2.610  -4.321  -2.387  0.00  0.00    +0.032 A 
ATOM      6  C   LIG    1       -2.970  -4.509  -3.708  0.00  0.00    +0.047 A 
ATOM      7  C   LIG    1       -2.541  -5.639  -4.388  0.00  0.00    +0.121 A 
ATOM      8  C   LIG    1       -1.752  -6.579  -3.740  0.00  0.00    +0.047 A 
ATOM      9  C   LIG    1       -1.391  -6.383  -2.421  0.00  0.00    +0.032 A 
BRANCH   7  10
ATOM     10  O   LIG    1       -2.894  -5.827  -5.687  0.00  0.00    -0.490 OA
BRANCH  10  11
ATOM     11  C   LIG    1       -2.417  -7.014  -6.324  0.00  0.00    +0.247 C 
BRANCH  11  12
ATOM     12  C   LIG    1       -2.912  -7.050  -7.771  0.00  0.00    +0.145 C 
BRANCH  12  13
ATOM     13  N   LIG    1       -2.315  -5.942  -8.520  0.00  0.00    -0.306 N 
ATOM     14  H   LIG    1       -1.708  -5.329  -8.077  0.00  0.00    +0.149 HD
ATOM     15  C   LIG    1       -2.609  -5.774  -9.824  0.00  0.00    +0.280 C 
ATOM     16  O   LIG    1       -3.371  -6.543 -10.380  0.00  0.00    -0.267 OA
BRANCH  15  17
ATOM     17  C   LIG    1       -2.011  -4.661 -10.575  0.00  0.00    +0.190 A 
ATOM     18  C   LIG    1       -2.238  -4.392 -11.887  0.00  0.00    +0.063 A 
ATOM     19  C   LIG    1       -1.440  -3.207 -12.201  0.00  0.00    +0.021 A 
ATOM     20  C   LIG    1       -1.241  -2.446 -13.355  0.00  0.00    +0.011 A 
ATOM     21  C   LIG    1       -0.406  -1.365 -13.318  0.00  0.00    +0.001 A 
ATOM     22  C   LIG    1        0.245  -1.020 -12.141  0.00  0.00    +0.004 A 
ATOM     23  C   LIG    1        0.062  -1.758 -10.992  0.00  0.00    +0.047 A 
ATOM     24  C   LIG    1       -0.783  -2.862 -11.006  0.00  0.00    +0.136 A 
ATOM     25  O   LIG    1       -1.157  -3.750 -10.064  0.00  0.00    -0.450 OA
ENDBRANCH  15  17
ENDBRANCH  12  13
ENDBRANCH  11  12
ENDBRANCH  10  11
ENDBRANCH   7  10
ENDBRANCH   1   4
BRANCH   1  26
ATOM     26  N   LIG    1        0.056  -4.170  -0.054  0.00  0.00    -0.198 N 
BRANCH  26  32
ATOM     27  C   LIG    1       -0.018   1.503   0.010  0.00  0.00    +0.044 C 
ATOM     28  C   LIG    1        0.002  -0.004   0.002  0.00  0.00    -0.049 A 
ATOM     29  C   LIG    1        0.006  -0.687  -1.204  0.00  0.00    +0.008 A 
ATOM     30  C   LIG    1        0.024  -2.066  -1.226  0.00  0.00    -0.027 A 
ATOM     31  C   LIG    1        0.027  -2.798  -2.544  0.00  0.00    +0.046 C 
ATOM     32  C   LIG    1        0.039  -2.781  -0.035  0.00  0.00    +0.067 A 
ATOM     33  C   LIG    1        0.036  -2.093   1.188  0.00  0.00    +0.062 A 
ATOM     34  C   LIG    1        0.023  -0.696   1.193  0.00  0.00    +0.018 A 
BRANCH  33  35
ATOM     35  C   LIG    1        0.051  -2.839   2.459  0.00  0.00    +0.268 C 
ATOM     36  N   LIG    1        0.048  -2.174   3.631  0.00  0.00    -0.193 N 
ATOM     37  H   LIG    1        0.036  -1.204   3.639  0.00  0.00    +0.183 HD
ATOM     38  O   LIG    1        0.067  -4.055   2.450  0.00  0.00    -0.268 OA
BRANCH  36  39
ATOM     39  O   LIG    1        0.063  -2.891   4.853  0.00  0.00    -0.295 OA
ATOM     40  H   LIG    1        0.060  -2.328   5.639  0.00  0.00    +0.241 HD
ENDBRANCH  36  39
ENDBRANCH  33  35
ENDBRANCH  26  32
BRANCH  26  41
ATOM     41  C   LIG    1        1.334  -4.886  -0.071  0.00  0.00    +0.166 C 
BRANCH  41  42
ATOM     42  C   LIG    1        1.840  -5.043   1.340  0.00  0.00    -0.028 A 
ATOM     43  C   LIG    1        2.650  -4.071   1.896  0.00  0.00    +0.005 A 
ATOM     44  C   LIG    1        3.114  -4.216   3.190  0.00  0.00    +0.000 A 
ATOM     45  C   LIG    1        2.768  -5.332   3.928  0.00  0.00    +0.000 A 
ATOM     46  C   LIG    1        1.957  -6.304   3.372  0.00  0.00    +0.000 A 
ATOM     47  C   LIG    1        1.489  -6.157   2.080  0.00  0.00    +0.005 A 
ENDBRANCH  41  42
ENDBRANCH  26  41
ENDBRANCH   1  26
TORSDOF 12
