REMARK  Name = ZINC03989259
REMARK                            x       y       z     vdW  Elec       q    Type
REMARK                         _______ _______ _______ _____ _____    ______ ____
ROOT
ATOM      1  C   LIG    1       -0.262   1.686   2.631  0.00  0.00    +0.060 A 
ATOM      2  C   LIG    1       -1.349   2.111   1.837  0.00  0.00    -0.013 A 
ATOM      3  C   LIG    1       -1.508   1.912   0.352  0.00  0.00    +0.047 C 
ATOM      4  C   LIG    1       -2.240   2.740   2.684  0.00  0.00    +0.044 A 
ATOM      5  N   LIG    1       -1.711   2.711   3.958  0.00  0.00    -0.358 N 
ATOM      6  H   LIG    1       -2.130   3.087   4.748  0.00  0.00    +0.166 HD
ATOM      7  C   LIG    1       -0.525   2.080   3.930  0.00  0.00    +0.026 A 
ATOM      8  C   LIG    1        0.370   1.841   5.119  0.00  0.00    +0.064 C 
ENDROOT
BRANCH   4   9
ATOM      9  C   LIG    1       -3.474   3.317   2.310  0.00  0.00    +0.039 C 
ATOM     10  C   LIG    1       -3.927   4.453   2.952  0.00  0.00    +0.048 C 
ATOM     11  C   LIG    1       -5.245   5.108   2.797  0.00  0.00    +0.010 A 
ATOM     12  C   LIG    1       -6.371   4.817   2.035  0.00  0.00    +0.030 A 
ATOM     13  C   LIG    1       -7.481   5.635   2.113  0.00  0.00    +0.042 A 
ATOM     14 CL   LIG    1       -8.887   5.283   1.157  0.00  0.00    -0.084 Cl
ATOM     15  C   LIG    1       -7.473   6.737   2.953  0.00  0.00    +0.022 A 
ATOM     16  C   LIG    1       -6.363   7.030   3.719  0.00  0.00    +0.025 A 
ATOM     17  C   LIG    1       -5.236   6.218   3.653  0.00  0.00    +0.042 A 
ATOM     18  N   LIG    1       -4.009   6.284   4.303  0.00  0.00    -0.281 N 
ATOM     19  H   LIG    1       -3.765   6.971   4.943  0.00  0.00    +0.155 HD
ATOM     20  C   LIG    1       -3.203   5.275   3.930  0.00  0.00    +0.249 C 
ATOM     21  O   LIG    1       -2.070   5.078   4.333  0.00  0.00    -0.270 OA
ENDBRANCH   4   9
BRANCH   1  24
ATOM     22  N   LIG    1        2.015   1.650   1.742  0.00  0.00    -0.313 N 
ATOM     23  H   LIG    1        2.008   2.620   1.753  0.00  0.00    +0.149 HD
ATOM     24  C   LIG    1        0.934   0.963   2.162  0.00  0.00    +0.246 C 
ATOM     25  O   LIG    1        0.943  -0.253   2.148  0.00  0.00    -0.270 OA
BRANCH  22  26
ATOM     26  C   LIG    1        3.201   0.931   1.270  0.00  0.00    +0.086 C 
BRANCH  26  27
ATOM     27  C   LIG    1        4.276   1.938   0.856  0.00  0.00    -0.060 C 
BRANCH  27  28
ATOM     28  N   LIG    1        5.473   1.199   0.403  0.00  0.00    +0.380 N 
ATOM     29  H   LIG    1        5.734   0.514   1.122  0.00  0.00    -0.082 HD
BRANCH  28  31
ATOM     30  C   LIG    1        4.794   1.475  -1.958  0.00  0.00    -0.017 C 
ATOM     31  C   LIG    1        5.178   0.484  -0.857  0.00  0.00    -0.082 C 
ENDBRANCH  28  31
BRANCH  28  32
ATOM     32  C   LIG    1        6.599   2.135   0.201  0.00  0.00    -0.082 C 
ATOM     33  C   LIG    1        7.888   1.327   0.040  0.00  0.00    -0.017 C 
ENDBRANCH  28  32
ENDBRANCH  27  28
ENDBRANCH  26  27
ENDBRANCH  22  26
ENDBRANCH   1  24
TORSDOF 7
