REMARK  Name = ZINC03919580
REMARK                            x       y       z     vdW  Elec       q    Type
REMARK                         _______ _______ _______ _____ _____    ______ ____
ROOT
ATOM      1  C   LIG    1       -0.009   1.526   0.017  0.00  0.00    +0.016 C 
ATOM      2  C   LIG    1        0.013  -0.004   0.009  0.00  0.00    -0.004 C 
ATOM      3  C   LIG    1       -1.423  -0.459  -0.076  0.00  0.00    +0.019 C 
ATOM      4  C   LIG    1       -1.646  -1.812   0.599  0.00  0.00    +0.084 C 
ATOM      5  C   LIG    1       -1.152  -1.698   2.028  0.00  0.00    +0.197 C 
ATOM      6  C   LIG    1        0.219  -1.184   2.201  0.00  0.00    +0.159 C 
ATOM      7  O   LIG    1       -1.843  -2.013   2.974  0.00  0.00    -0.289 OA
ATOM      8  C   LIG    1        0.806  -0.422  -1.230  0.00  0.00    +0.003 C 
ATOM      9  C   LIG    1        0.087   0.067  -2.485  0.00  0.00    +0.005 C 
ATOM     10  C   LIG    1        0.909  -0.213  -3.753  0.00  0.00    +0.015 C 
ATOM     11  C   LIG    1        2.253   0.467  -3.578  0.00  0.00    +0.029 C 
ATOM     12  C   LIG    1        2.043   1.946  -3.247  0.00  0.00    +0.019 C 
ATOM     13  C   LIG    1        2.980  -0.215  -2.389  0.00  0.00    +0.006 C 
ATOM     14  C   LIG    1        4.393   0.367  -2.514  0.00  0.00    +0.012 C 
ATOM     15  C   LIG    1        4.626   0.357  -4.050  0.00  0.00    +0.075 C 
ATOM     16  C   LIG    1        3.232   0.335  -4.707  0.00  0.00    +0.139 C 
ATOM     17  O   LIG    1        2.977   0.260  -5.885  0.00  0.00    -0.297 OA
ATOM     18  C   LIG    1        2.224   0.164  -1.127  0.00  0.00    -0.003 C 
ATOM     19  C   LIG    1        2.936  -0.408   0.099  0.00  0.00    +0.008 C 
ATOM     20  C   LIG    1        2.199   0.013   1.375  0.00  0.00    +0.035 C 
ATOM     21  C   LIG    1        0.751  -0.430   1.239  0.00  0.00    -0.019 C 
ENDROOT
BRANCH   6  22
ATOM     22  O   LIG    1        0.934  -1.486   3.318  0.00  0.00    -0.503 OA
ATOM     23  H   LIG    1        0.461  -2.048   3.947  0.00  0.00    +0.292 HD
ENDBRANCH   6  22
TORSDOF 1
