REMARK  Name = ZINC03947792
REMARK                            x       y       z     vdW  Elec       q    Type
REMARK                         _______ _______ _______ _____ _____    ______ ____
ROOT
ATOM      1  C   LIG    1        1.014   3.445  -0.268  0.00  0.00    -0.007 A 
ATOM      2  C   LIG    1       -0.069   4.301  -0.227  0.00  0.00    +0.027 A 
ATOM      3  C   LIG    1       -1.355   3.790  -0.225  0.00  0.00    +0.041 A 
ATOM      4 CL   LIG    1       -2.715   4.868  -0.174  0.00  0.00    -0.084 Cl
ATOM      5  C   LIG    1       -1.560   2.422  -0.267  0.00  0.00    +0.022 A 
ATOM      6  C   LIG    1       -0.479   1.562  -0.303  0.00  0.00    +0.025 A 
ATOM      7  C   LIG    1        0.813   2.072  -0.306  0.00  0.00    +0.038 A 
ENDROOT
BRANCH   7   8
ATOM      8  N   LIG    1        1.909   1.204  -0.347  0.00  0.00    -0.281 N 
ATOM      9  H   LIG    1        2.739   1.449   0.091  0.00  0.00    +0.155 HD
ATOM     10  C   LIG    1        1.811   0.025  -0.994  0.00  0.00    +0.252 C 
ATOM     11  O   LIG    1        0.750  -0.315  -1.481  0.00  0.00    -0.270 OA
BRANCH  10  12
ATOM     12  C   LIG    1        2.991  -0.852  -1.111  0.00  0.00    +0.078 A 
ATOM     13  C   LIG    1        4.214  -0.462  -0.557  0.00  0.00    +0.017 A 
ATOM     14  C   LIG    1        5.311  -1.288  -0.666  0.00  0.00    +0.001 A 
ATOM     15  C   LIG    1        5.211  -2.500  -1.331  0.00  0.00    +0.004 A 
ATOM     16  C   LIG    1        4.011  -2.894  -1.887  0.00  0.00    +0.046 A 
ATOM     17  C   LIG    1        2.895  -2.078  -1.783  0.00  0.00    +0.129 A 
BRANCH  17  18
ATOM     18  O   LIG    1        1.715  -2.464  -2.330  0.00  0.00    -0.506 OA
ATOM     19  H   LIG    1        1.593  -2.178  -3.245  0.00  0.00    +0.292 HD
ENDBRANCH  17  18
ENDBRANCH  10  12
ENDBRANCH   7   8
BRANCH   1  20
ATOM     20  C   LIG    1        2.415   4.002  -0.271  0.00  0.00    +0.154 C 
BRANCH  20  27
ATOM     21  C   LIG    1        4.114   4.968  -6.033  0.00  0.00    +0.001 A 
ATOM     22  C   LIG    1        4.752   3.751  -5.882  0.00  0.00    +0.001 A 
ATOM     23  C   LIG    1        4.678   3.062  -4.682  0.00  0.00    +0.014 A 
ATOM     24  C   LIG    1        3.958   3.597  -3.626  0.00  0.00    +0.049 A 
ATOM     25  C   LIG    1        3.307   4.838  -3.779  0.00  0.00    +0.049 A 
ATOM     26  C   LIG    1        2.645   5.110  -2.486  0.00  0.00    +0.254 C 
ATOM     27  N   LIG    1        2.903   4.088  -1.649  0.00  0.00    -0.230 N 
ATOM     28  O   LIG    1        1.979   6.091  -2.223  0.00  0.00    -0.270 OA
ATOM     29  C   LIG    1        3.674   3.160  -2.243  0.00  0.00    +0.254 C 
ATOM     30  O   LIG    1        4.069   2.132  -1.729  0.00  0.00    -0.270 OA
ATOM     31  C   LIG    1        3.390   5.515  -4.985  0.00  0.00    +0.014 A 
ENDBRANCH  20  27
ENDBRANCH   1  20
TORSDOF 5
