REMARK  Name = ZINC03938713
REMARK                            x       y       z     vdW  Elec       q    Type
REMARK                         _______ _______ _______ _____ _____    ______ ____
ROOT
ATOM      1  C   LIG    1       -0.104   3.704   0.490  0.00  0.00    +0.014 C 
ATOM      2  C   LIG    1       -1.264   2.727   0.686  0.00  0.00    -0.002 C 
ATOM      3  C   LIG    1       -2.282   3.315   1.643  0.00  0.00    +0.010 C 
ATOM      4  C   LIG    1       -1.553   3.628   2.964  0.00  0.00    +0.009 C 
ATOM      5  C   LIG    1       -0.899   2.376   3.528  0.00  0.00    +0.023 C 
ATOM      6  C   LIG    1       -0.158   2.655   4.803  0.00  0.00    -0.041 A 
ATOM      7  C   LIG    1       -0.668   3.620   5.662  0.00  0.00    +0.008 A 
ATOM      8  C   LIG    1       -0.032   3.909   6.850  0.00  0.00    +0.047 A 
ATOM      9  C   LIG    1        1.127   3.227   7.192  0.00  0.00    +0.134 A 
ATOM     10  C   LIG    1        1.637   2.268   6.334  0.00  0.00    +0.050 A 
ATOM     11  C   LIG    1        0.999   1.982   5.134  0.00  0.00    -0.040 A 
ATOM     12  C   LIG    1        1.627   0.946   4.240  0.00  0.00    +0.036 C 
ATOM     13  C   LIG    1        0.653   0.484   3.157  0.00  0.00    +0.009 C 
ATOM     14  C   LIG    1        0.055   1.734   2.512  0.00  0.00    +0.000 C 
ATOM     15  C   LIG    1       -1.804   2.272  -0.674  0.00  0.00    +0.136 C 
ATOM     16  C   LIG    1       -0.718   1.275  -1.162  0.00  0.00    +0.033 C 
ATOM     17  C   LIG    1        0.001   0.755   0.108  0.00  0.00    +0.007 C 
ATOM     18  C   LIG    1       -0.739   1.389   1.281  0.00  0.00    +0.001 C 
ENDROOT
BRANCH   9  19
ATOM     19  O   LIG    1        1.759   3.500   8.364  0.00  0.00    -0.411 OA
BRANCH  19  20
ATOM     20  C   LIG    1        2.946   4.132   8.286  0.00  0.00    +0.408 C 
ATOM     21  N   LIG    1        3.681   4.325   9.399  0.00  0.00    -0.265 N 
ATOM     22  O   LIG    1        3.354   4.528   7.213  0.00  0.00    -0.226 OA
BRANCH  21  23
ATOM     23  C   LIG    1        3.189   3.848  10.694  0.00  0.00    +0.127 C 
BRANCH  23  24
ATOM     24  C   LIG    1        3.677   2.417  10.929  0.00  0.00    +0.127 C 
ATOM     25 CL   LIG    1        3.071   1.829  12.522  0.00  0.00    -0.124 Cl
ENDBRANCH  23  24
ENDBRANCH  21  23
BRANCH  21  26
ATOM     26  C   LIG    1        4.972   5.013   9.315  0.00  0.00    +0.127 C 
BRANCH  26  27
ATOM     27  C   LIG    1        4.762   6.516   9.501  0.00  0.00    +0.127 C 
ATOM     28 CL   LIG    1        6.351   7.363   9.397  0.00  0.00    -0.124 Cl
ENDBRANCH  26  27
ENDBRANCH  21  26
ENDBRANCH  19  20
ENDBRANCH   9  19
BRANCH  15  29
ATOM     29  O   LIG    1       -1.913   3.380  -1.571  0.00  0.00    -0.283 OA
BRANCH  29  30
ATOM     30  P   LIG    1       -3.282   3.767  -2.324  0.00  0.00    +0.473 P 
ATOM     31  O   LIG    1       -3.782   2.592  -3.072  0.00  0.00    -0.228 OA
BRANCH  30  32
ATOM     32  O   LIG    1       -3.007   4.978  -3.348  0.00  0.00    -0.303 OA
ATOM     33  H   LIG    1       -2.345   4.705  -4.002  0.00  0.00    +0.222 HD
ENDBRANCH  30  32
BRANCH  30  34
ATOM     34  O   LIG    1       -4.382   4.220  -1.239  0.00  0.00    -0.303 OA
ATOM     35  H   LIG    1       -4.547   3.490  -0.622  0.00  0.00    +0.222 HD
ENDBRANCH  30  34
ENDBRANCH  29  30
ENDBRANCH  15  29
TORSDOF 10
