REMARK  Name = ZINC03883784
REMARK                            x       y       z     vdW  Elec       q    Type
REMARK                         _______ _______ _______ _____ _____    ______ ____
ROOT
ATOM      1  C   LIG    1        3.695  -0.684  -0.038  0.00  0.00    +0.109 A 
ATOM      2  N   LIG    1        4.928  -0.196  -0.042  0.00  0.00    -0.247 NA
ATOM      3  C   LIG    1        5.974  -0.982  -0.058  0.00  0.00    +0.129 A 
ATOM      4  C   LIG    1        5.798  -2.343  -0.071  0.00  0.00    +0.059 A 
ATOM      5  S   LIG    1        4.013  -2.444  -0.051  0.00  0.00    -0.066 S 
ENDROOT
BRANCH   1   9
ATOM      6  C   LIG    1       -0.017   1.379   0.010  0.00  0.00    +0.000 A 
ATOM      7  C   LIG    1        1.168   2.094   0.002  0.00  0.00    +0.001 A 
ATOM      8  C   LIG    1        2.377   1.429  -0.013  0.00  0.00    +0.010 A 
ATOM      9  C   LIG    1        2.404   0.034  -0.021  0.00  0.00    +0.007 A 
ATOM     10  C   LIG    1        1.204  -0.681  -0.013  0.00  0.00    +0.010 A 
ATOM     11  C   LIG    1        0.002  -0.004   0.002  0.00  0.00    +0.001 A 
ENDBRANCH   1   9
BRANCH   4  12
ATOM     12  C   LIG    1        6.805  -3.426  -0.090  0.00  0.00    +0.101 A 
ATOM     13  C   LIG    1        6.536  -4.811  -0.108  0.00  0.00    +0.049 A 
ATOM     14  C   LIG    1        7.718  -5.462  -0.123  0.00  0.00    +0.105 A 
ATOM     15  N   LIG    1        8.704  -4.539  -0.115  0.00  0.00    -0.284 N 
ATOM     16  H   LIG    1        9.656  -4.724  -0.122  0.00  0.00    +0.188 HD
ATOM     17  N   LIG    1        8.114  -3.269  -0.099  0.00  0.00    -0.173 NA
ENDBRANCH   4  12
TORSDOF 2
