REMARK  Name = ZINC03875454
REMARK                            x       y       z     vdW  Elec       q    Type
REMARK                         _______ _______ _______ _____ _____    ______ ____
ROOT
ATOM      1  C   LIG    1       -0.018   1.461   0.010  0.00  0.00    +0.134 C 
ATOM      2  N   LIG    1        0.002  -0.004   0.002  0.00  0.00    -0.277 N 
ATOM      3  C   LIG    1        0.006  -0.692  -1.179  0.00  0.00    +0.252 C 
ATOM      4  C   LIG    1        0.017  -2.198  -1.057  0.00  0.00    +0.174 C 
ATOM      5  C   LIG    1       -0.325  -2.948  -2.328  0.00  0.00    +0.080 C 
ATOM      6  C   LIG    1       -1.242  -4.055  -1.857  0.00  0.00    -0.043 C 
ATOM      7  C   LIG    1       -1.453  -5.258  -2.361  0.00  0.00    +0.001 C 
ATOM      8  C   LIG    1       -2.407  -6.128  -1.639  0.00  0.00    -0.002 C 
ATOM      9  C   LIG    1       -2.721  -5.855  -0.379  0.00  0.00    +0.006 C 
ATOM     10  C   LIG    1       -2.132  -4.682   0.357  0.00  0.00    +0.162 C 
ATOM     11  C   LIG    1       -1.917  -3.515  -0.607  0.00  0.00    +0.137 C 
ATOM     12  S   LIG    1        1.625  -2.705  -0.367  0.00  0.00    -0.054 S 
ATOM     13  S   LIG    1        1.641  -1.613   1.378  0.00  0.00    -0.053 S 
ATOM     14  N   LIG    1       -1.026  -2.515  -0.048  0.00  0.00    -0.266 N 
ATOM     15  C   LIG    1       -1.046  -1.855   1.137  0.00  0.00    +0.255 C 
ATOM     16  O   LIG    1       -1.842  -2.110   2.017  0.00  0.00    -0.272 OA
ATOM     17  O   LIG    1        0.001  -0.131  -2.254  0.00  0.00    -0.272 OA
ATOM     18  C   LIG    1        0.024  -0.763   1.272  0.00  0.00    +0.193 C 
ENDROOT
BRANCH  10  19
ATOM     19  O   LIG    1       -3.024  -4.278   1.397  0.00  0.00    -0.386 OA
ATOM     20  H   LIG    1       -3.202  -4.967   2.052  0.00  0.00    +0.210 HD
ENDBRANCH  10  19
BRANCH  18  21
ATOM     21  C   LIG    1       -0.234   0.142   2.478  0.00  0.00    +0.203 C 
BRANCH  21  22
ATOM     22  O   LIG    1       -0.202  -0.639   3.675  0.00  0.00    -0.391 OA
ATOM     23  H   LIG    1       -0.358  -0.129   4.482  0.00  0.00    +0.210 HD
ENDBRANCH  21  22
ENDBRANCH  18  21
TORSDOF 3
