REMARK  Name = ZINC03952416
REMARK                            x       y       z     vdW  Elec       q    Type
REMARK                         _______ _______ _______ _____ _____    ______ ____
ROOT
ATOM      1  N   LIG    1       -1.550   2.451  -3.856  0.00  0.00    -0.203 N 
ENDROOT
BRANCH   1   5
ATOM      2  C   LIG    1       -2.198  -1.664  -3.996  0.00  0.00    +0.121 A 
ATOM      3  C   LIG    1       -2.967  -0.869  -3.160  0.00  0.00    +0.047 A 
ATOM      4  C   LIG    1       -2.754   0.494  -3.113  0.00  0.00    +0.028 A 
ATOM      5  C   LIG    1       -1.768   1.070  -3.903  0.00  0.00    +0.051 A 
ATOM      6  C   LIG    1       -1.001   0.274  -4.744  0.00  0.00    +0.028 A 
ATOM      7  C   LIG    1       -1.213  -1.090  -4.786  0.00  0.00    +0.047 A 
BRANCH   2   8
ATOM      8  O   LIG    1       -2.410  -3.007  -4.043  0.00  0.00    -0.489 OA
BRANCH   8  12
ATOM      9  N   LIG    1       -4.900  -5.503  -1.837  0.00  0.00    -0.228 N 
ATOM     10  C   LIG    1       -5.299  -5.267  -3.232  0.00  0.00    +0.229 C 
ATOM     11  C   LIG    1       -4.087  -4.747  -4.010  0.00  0.00    +0.088 C 
ATOM     12  C   LIG    1       -3.521  -3.514  -3.301  0.00  0.00    +0.181 C 
ATOM     13  C   LIG    1       -3.062  -3.899  -1.893  0.00  0.00    +0.088 C 
ATOM     14  C   LIG    1       -4.262  -4.410  -1.091  0.00  0.00    +0.229 C 
BRANCH   9  16
ATOM     15  C   LIG    1       -4.816  -6.909   0.219  0.00  0.00    +0.140 C 
ATOM     16  C   LIG    1       -5.117  -6.719  -1.245  0.00  0.00    +0.235 C 
ATOM     17  N   LIG    1       -5.591  -7.679  -2.008  0.00  0.00    -0.293 N 
ATOM     18  H   LIG    1       -5.780  -7.500  -3.001  0.00  0.00    +0.301 HD
ATOM     19  H   LIG    1       -5.769  -8.603  -1.614  0.00  0.00    +0.301 HD
ENDBRANCH   9  16
ENDBRANCH   8  12
ENDBRANCH   2   8
ENDBRANCH   1   5
BRANCH   1  20
ATOM     20  S   LIG    1       -2.781   3.469  -3.420  0.00  0.00    +0.056 S 
ATOM     21  O   LIG    1       -3.970   2.768  -3.762  0.00  0.00    -0.154 OA
ATOM     22  O   LIG    1       -2.466   4.707  -4.042  0.00  0.00    -0.154 OA
BRANCH  20  23
ATOM     23  C   LIG    1       -2.643   3.622  -1.618  0.00  0.00    +0.308 C 
BRANCH  23  24
ATOM     24  C   LIG    1       -3.601   4.678  -1.129  0.00  0.00    +0.328 C 
ATOM     25  O   LIG    1       -4.304   5.267  -1.915  0.00  0.00    -0.249 OA
BRANCH  24  26
ATOM     26  O   LIG    1       -3.672   4.965   0.181  0.00  0.00    -0.479 OA
ATOM     27  H   LIG    1       -3.127   4.508   0.791  0.00  0.00    +0.295 HD
ENDBRANCH  24  26
ENDBRANCH  23  24
ENDBRANCH  20  23
ENDBRANCH   1  20
BRANCH   1  28
ATOM     28  C   LIG    1       -0.235   2.998  -4.199  0.00  0.00    +0.166 C 
BRANCH  28  29
ATOM     29  C   LIG    1        0.684   2.879  -3.010  0.00  0.00    -0.028 A 
ATOM     30  C   LIG    1        1.512   1.765  -2.891  0.00  0.00    +0.006 A 
ATOM     31  C   LIG    1        2.354   1.626  -1.830  0.00  0.00    +0.009 A 
ATOM     32  C   LIG    1        2.392   2.620  -0.837  0.00  0.00    -0.018 A 
ATOM     33  C   LIG    1        3.251   2.506   0.271  0.00  0.00    +0.009 A 
ATOM     34  C   LIG    1        3.270   3.479   1.218  0.00  0.00    +0.016 A 
ATOM     35  C   LIG    1        2.440   4.608   1.108  0.00  0.00    +0.061 A 
ATOM     36  C   LIG    1        1.584   4.749   0.030  0.00  0.00    +0.024 A 
ATOM     37  C   LIG    1        1.549   3.754  -0.958  0.00  0.00    -0.017 A 
ATOM     38  C   LIG    1        0.697   3.864  -2.071  0.00  0.00    +0.013 A 
BRANCH  35  39
ATOM     39  C   LIG    1        2.481   5.654   2.155  0.00  0.00    +0.266 C 
ATOM     40  N   LIG    1        1.677   6.695   1.999  0.00  0.00    -0.288 N 
ATOM     41  H   LIG    1        1.061   6.749   1.179  0.00  0.00    +0.301 HD
ATOM     42  H   LIG    1        1.669   7.442   2.693  0.00  0.00    +0.301 HD
BRANCH  39  43
ATOM     43  N   LIG    1        3.332   5.519   3.231  0.00  0.00    -0.250 N 
ATOM     44  H   LIG    1        3.359   6.205   3.916  0.00  0.00    +0.288 HD
ATOM     45  H   LIG    1        3.903   4.739   3.302  0.00  0.00    +0.288 HD
ENDBRANCH  39  43
ENDBRANCH  35  39
ENDBRANCH  28  29
ENDBRANCH   1  28
TORSDOF 12
