REMARK  Name = ZINC03879105
REMARK                            x       y       z     vdW  Elec       q    Type
REMARK                         _______ _______ _______ _____ _____    ______ ____
ROOT
ATOM      1  C   LIG    1        0.446   3.305   6.870  0.00  0.00    +0.037 A 
ATOM      2  C   LIG    1        1.823   3.069   6.833  0.00  0.00    +0.013 A 
ATOM      3  C   LIG    1        2.605   3.388   7.921  0.00  0.00    +0.009 A 
ATOM      4  C   LIG    1        2.021   3.936   9.063  0.00  0.00    -0.018 A 
ATOM      5  C   LIG    1        0.646   4.167   9.103  0.00  0.00    +0.009 A 
ATOM      6  C   LIG    1       -0.137   3.854   8.015  0.00  0.00    +0.013 A 
ENDROOT
BRANCH   4   7
ATOM      7  C   LIG    1        2.864   4.274  10.236  0.00  0.00    -0.018 A 
ATOM      8  C   LIG    1        2.285   4.828  11.377  0.00  0.00    +0.008 A 
ATOM      9  C   LIG    1        3.073   5.136  12.467  0.00  0.00    +0.001 A 
ATOM     10  C   LIG    1        4.437   4.906  12.425  0.00  0.00    +0.000 A 
ATOM     11  C   LIG    1        5.017   4.362  11.293  0.00  0.00    +0.001 A 
ATOM     12  C   LIG    1        4.238   4.045  10.199  0.00  0.00    +0.008 A 
ENDBRANCH   4   7
BRANCH   1  15
ATOM     13  N   LIG    1        0.170   2.439   4.598  0.00  0.00    -0.266 N 
ATOM     14  H   LIG    1        1.113   2.210   4.597  0.00  0.00    +0.157 HD
ATOM     15  C   LIG    1       -0.393   2.969   5.702  0.00  0.00    +0.249 C 
ATOM     16  O   LIG    1       -1.591   3.171   5.736  0.00  0.00    -0.270 OA
BRANCH  13  22
ATOM     17  C   LIG    1       -4.153   2.512   2.540  0.00  0.00    +0.065 C 
ATOM     18  C   LIG    1       -2.673   2.247   2.443  0.00  0.00    +0.040 A 
ATOM     19  C   LIG    1       -2.138   1.798   1.252  0.00  0.00    +0.023 A 
ATOM     20  C   LIG    1       -0.773   1.561   1.167  0.00  0.00    +0.005 A 
ATOM     21  C   LIG    1        0.006   1.774   2.291  0.00  0.00    +0.044 A 
ATOM     22  C   LIG    1       -0.601   2.221   3.459  0.00  0.00    +0.125 A 
ATOM     23  N   LIG    1       -1.906   2.441   3.499  0.00  0.00    -0.237 NA
ENDBRANCH  13  22
ENDBRANCH   1  15
TORSDOF 3
