REMARK  Name = ZINC03873145
REMARK                            x       y       z     vdW  Elec       q    Type
REMARK                         _______ _______ _______ _____ _____    ______ ____
ROOT
ATOM      1  C   UNK A  1        7.594  -3.075   0.320  0.00  0.00    +0.017 C 
ENDROOT
BRANCH   1   2
ATOM      2  C   UNK A  1        7.884  -3.620   1.695  0.00  0.00    +0.202 C 
ATOM      3  N   PRO A  2        8.612  -2.896   2.567  0.00  0.00    -0.289 N 
ATOM      4  CD  PRO A  2        9.107  -1.526   2.344  0.00  0.00    +0.108 C 
ATOM      5  CG  PRO A  2        9.304  -0.939   3.764  0.00  0.00    +0.021 C 
ATOM      6  CB  PRO A  2        9.825  -2.177   4.543  0.00  0.00    +0.035 C 
ATOM      7  CA  PRO A  2        9.040  -3.341   3.902  0.00  0.00    +0.184 C 
ATOM      8  O   UNK A  1        7.461  -4.711   2.015  0.00  0.00    -0.277 OA
BRANCH   7   9
ATOM      9  C   PRO A  2        9.931  -4.550   3.779  0.00  0.00    +0.325 C 
ATOM     10  O   PRO A  2       10.627  -4.696   2.788  0.00  0.00    -0.249 OA
BRANCH   9  11
ATOM     11  OXT PRO A  2        9.955  -5.382   4.670  0.00  0.00    -0.479 OA
ATOM     12  HXT PRO A  2        9.421  -5.270   5.431  0.00  0.00    +0.295 HD
ENDBRANCH   9  11
ENDBRANCH   7   9
ENDBRANCH   1   2
BRANCH   1  13
ATOM     13  N   UNK A  1        6.685  -1.926   0.431  0.00  0.00    +0.395 N 
ATOM     14  H   UNK A  1        7.057  -1.265   1.096  0.00  0.00    -0.084 HD
ATOM     15  H   UNK A  1        6.594  -1.481  -0.470  0.00  0.00    -0.084 HD
BRANCH  13  16
ATOM     16  C   UNK A  1        5.366  -2.387   0.884  0.00  0.00    +0.040 C 
BRANCH  16  17
ATOM     17  C   UNK A  1        5.459  -2.841   2.318  0.00  0.00    +0.291 C 
ATOM     18  O   UNK A  1        4.824  -3.812   2.693  0.00  0.00    -0.253 OA
BRANCH  17  19
ATOM     19  O   UNK A  1        6.168  -2.236   3.104  0.00  0.00    -0.482 OA
ATOM     20  H   UNK A  1        6.656  -1.490   2.817  0.00  0.00    +0.295 HD
ENDBRANCH  17  19
ENDBRANCH  16  17
BRANCH  16  21
ATOM     21  C   UNK A  1        4.360  -1.240   0.776  0.00  0.00    -0.000 C 
BRANCH  21  22
ATOM     22  C   UNK A  1        4.173  -0.863  -0.695  0.00  0.00    +0.034 C 
BRANCH  22  26
ATOM     23  C   UNK A  1        1.362   2.340  -1.000  0.00  0.00    +0.000 A 
ATOM     24  C   UNK A  1        2.710   2.613  -0.860  0.00  0.00    +0.000 A 
ATOM     25  C   UNK A  1        3.619   1.577  -0.761  0.00  0.00    +0.003 A 
ATOM     26  C   UNK A  1        3.181   0.267  -0.802  0.00  0.00    -0.047 A 
ATOM     27  C   UNK A  1        1.833  -0.007  -0.941  0.00  0.00    +0.003 A 
ATOM     28  C   UNK A  1        0.924   1.029  -1.041  0.00  0.00    +0.000 A 
ENDBRANCH  22  26
ENDBRANCH  21  22
ENDBRANCH  16  21
ENDBRANCH  13  16
ENDBRANCH   1  13
BRANCH   1  29
ATOM     29  C   UNK A  1        8.902  -2.629  -0.338  0.00  0.00    -0.007 C 
BRANCH  29  30
ATOM     30  C   UNK A  1        8.616  -2.135  -1.757  0.00  0.00    -0.003 C 
BRANCH  30  31
ATOM     31  C   UNK A  1        9.924  -1.690  -2.415  0.00  0.00    -0.020 C 
BRANCH  31  32
ATOM     32  C   UNK A  1        9.638  -1.196  -3.835  0.00  0.00    -0.086 C 
BRANCH  32  33
ATOM     33  N   UNK A  1       10.894  -0.768  -4.466  0.00  0.00    +0.378 N 
ATOM     34  H   UNK A  1       10.706  -0.443  -5.402  0.00  0.00    -0.090 HD
ATOM     35  H   UNK A  1       11.534  -1.547  -4.503  0.00  0.00    -0.090 HD
ATOM     36  H   UNK A  1       11.304  -0.021  -3.926  0.00  0.00    -0.090 HD
ENDBRANCH  32  33
ENDBRANCH  31  32
ENDBRANCH  30  31
ENDBRANCH  29  30
ENDBRANCH   1  29
TORSDOF 15
