REMARK  Name = ZINC03999513
REMARK                            x       y       z     vdW  Elec       q    Type
REMARK                         _______ _______ _______ _____ _____    ______ ____
ROOT
ATOM      1  C   LIG    1        2.627   7.985  -0.023  0.00  0.00    +0.105 C 
ATOM      2  C   LIG    1        3.664   7.263  -0.864  0.00  0.00    +0.029 C 
ATOM      3  C   LIG    1        5.071   7.865  -0.875  0.00  0.00    +0.033 C 
ATOM      4  C   LIG    1        5.918   6.619  -1.137  0.00  0.00    -0.030 C 
ATOM      5  C   LIG    1        5.286   5.539  -0.694  0.00  0.00    -0.023 C 
ATOM      6  C   LIG    1        4.002   5.961  -0.078  0.00  0.00    +0.049 C 
ATOM      7  C   LIG    1        2.802   5.096  -0.100  0.00  0.00    -0.019 A 
ATOM      8  C   LIG    1        2.884   3.726  -0.150  0.00  0.00    +0.021 A 
ATOM      9  C   LIG    1        1.717   2.955  -0.151  0.00  0.00    +0.059 A 
ATOM     10  C   LIG    1        0.470   3.586  -0.103  0.00  0.00    +0.017 A 
ATOM     11  C   LIG    1        0.393   4.947  -0.049  0.00  0.00    +0.024 A 
ATOM     12  C   LIG    1        1.549   5.725  -0.056  0.00  0.00    +0.031 A 
ATOM     13  N   LIG    1        1.432   7.114  -0.029  0.00  0.00    -0.336 N 
ATOM     14  H   LIG    1        0.550   7.517  -0.014  0.00  0.00    +0.147 HD
ENDROOT
BRANCH   1  17
ATOM     15  C   LIG    1        3.328   7.371   3.636  0.00  0.00    +0.001 A 
ATOM     16  C   LIG    1        2.861   7.208   2.345  0.00  0.00    +0.005 A 
ATOM     17  C   LIG    1        3.132   8.166   1.385  0.00  0.00    -0.026 A 
ATOM     18  C   LIG    1        3.862   9.291   1.719  0.00  0.00    +0.020 A 
ATOM     19  C   LIG    1        4.326   9.457   3.012  0.00  0.00    +0.018 A 
ATOM     20 BR   LIG    1        5.324  10.996   3.469  0.00  0.00    -0.050 Br
ATOM     21  C   LIG    1        4.058   8.496   3.970  0.00  0.00    +0.015 A 
ENDBRANCH   1  17
BRANCH   9  22
ATOM     22  C   LIG    1        1.802   1.484  -0.210  0.00  0.00    +0.337 C 
ATOM     23  O   LIG    1        2.887   0.939  -0.257  0.00  0.00    -0.245 OA
BRANCH  22  24
ATOM     24  O   LIG    1        0.675   0.744  -0.211  0.00  0.00    -0.477 OA
ATOM     25  H   LIG    1       -0.161   1.165  -0.175  0.00  0.00    +0.295 HD
ENDBRANCH  22  24
ENDBRANCH   9  22
TORSDOF 3
