REMARK  Name = ZINC04097086
REMARK                            x       y       z     vdW  Elec       q    Type
REMARK                         _______ _______ _______ _____ _____    ______ ____
ROOT
ATOM      1  C   LIG    1       -4.184   2.248   6.639  0.00  0.00    -0.002 C 
ATOM      2  C   LIG    1       -3.003   2.932   7.372  0.00  0.00    +0.004 C 
ATOM      3  C   LIG    1       -1.759   2.753   6.460  0.00  0.00    +0.004 C 
ATOM      4  C   LIG    1       -2.377   2.561   5.071  0.00  0.00    -0.001 C 
ATOM      5  C   LIG    1       -1.505   1.847   4.053  0.00  0.00    +0.000 C 
ATOM      6  C   LIG    1       -0.283   2.713   3.730  0.00  0.00    +0.031 C 
ATOM      7  C   LIG    1        0.484   2.084   2.603  0.00  0.00    -0.027 C 
ATOM      8  C   LIG    1       -0.072   1.329   1.718  0.00  0.00    -0.065 C 
ATOM      9  C   LIG    1       -1.524   0.952   1.708  0.00  0.00    -0.008 C 
ATOM     10  C   LIG    1       -1.629  -0.550   1.979  0.00  0.00    +0.016 C 
ATOM     11  C   LIG    1       -2.111   1.228   0.321  0.00  0.00    +0.014 C 
ATOM     12  C   LIG    1       -1.272   0.511  -0.738  0.00  0.00    +0.032 C 
ATOM     13  C   LIG    1        0.152   1.069  -0.732  0.00  0.00    +0.119 C 
ATOM     14  C   LIG    1        0.813   0.769   0.617  0.00  0.00    +0.062 C 
ATOM     15  C   LIG    1       -2.330   1.683   2.769  0.00  0.00    +0.003 C 
ATOM     16  C   LIG    1       -3.638   0.940   3.027  0.00  0.00    +0.005 C 
ATOM     17  C   LIG    1       -4.455   1.598   4.150  0.00  0.00    +0.007 C 
ATOM     18  C   LIG    1       -3.575   1.626   5.386  0.00  0.00    -0.026 C 
ATOM     19  C   LIG    1       -3.067   0.216   5.693  0.00  0.00    +0.012 C 
ENDROOT
BRANCH   1  20
ATOM     20  C   LIG    1       -4.800   1.162   7.524  0.00  0.00    -0.010 C 
ATOM     21  C   LIG    1       -5.989   0.527   6.800  0.00  0.00    +0.008 C 
BRANCH  20  22
ATOM     22  C   LIG    1       -5.275   1.784   8.838  0.00  0.00    +0.003 C 
BRANCH  22  23
ATOM     23  C   LIG    1       -5.776   0.681   9.773  0.00  0.00    +0.001 C 
BRANCH  23  24
ATOM     24  C   LIG    1       -6.252   1.303  11.087  0.00  0.00    +0.005 C 
BRANCH  24  26
ATOM     25  C   LIG    1       -5.586  -0.713  12.404  0.00  0.00    +0.010 C 
ATOM     26  C   LIG    1       -6.753   0.200  12.021  0.00  0.00    +0.011 C 
BRANCH  26  27
ATOM     27  C   LIG    1       -7.343   0.830  13.284  0.00  0.00    +0.159 C 
BRANCH  27  28
ATOM     28  O   LIG    1       -7.915  -0.191  14.104  0.00  0.00    -0.395 OA
ATOM     29  H   LIG    1       -8.309   0.137  14.924  0.00  0.00    +0.209 HD
ENDBRANCH  27  28
ENDBRANCH  26  27
ENDBRANCH  24  26
ENDBRANCH  23  24
ENDBRANCH  22  23
ENDBRANCH  20  22
ENDBRANCH   1  20
BRANCH  13  30
ATOM     30  O   LIG    1        0.908   0.457  -1.779  0.00  0.00    -0.391 OA
ATOM     31  H   LIG    1        1.823   0.764  -1.835  0.00  0.00    +0.210 HD
ENDBRANCH  13  30
TORSDOF 8
