REMARK  Name = ZINC03995991
REMARK                            x       y       z     vdW  Elec       q    Type
REMARK                         _______ _______ _______ _____ _____    ______ ____
ROOT
ATOM      1  N   LIG    1        8.741   0.387   0.855  0.00  0.00    -0.285 N 
ATOM      2  C   LIG    1        9.738  -0.086   0.081  0.00  0.00    +0.302 C 
ATOM      3  N   LIG    1        9.464  -0.948  -0.918  0.00  0.00    -0.296 N 
ATOM      4  H   LIG    1        8.549  -1.228  -1.080  0.00  0.00    +0.151 HD
ATOM      5  O   LIG    1       10.884   0.265   0.284  0.00  0.00    -0.253 OA
ENDROOT
BRANCH   3   6
ATOM      6  C   LIG    1       10.547  -1.462  -1.760  0.00  0.00    +0.074 C 
ATOM      7  C   LIG    1       10.829  -0.470  -2.890  0.00  0.00    +0.022 C 
ATOM      8  C   LIG    1       11.961  -1.007  -3.769  0.00  0.00    +0.002 C 
ATOM      9  C   LIG    1       11.548  -2.355  -4.365  0.00  0.00    +0.000 C 
ATOM     10  C   LIG    1       11.266  -3.347  -3.235  0.00  0.00    +0.002 C 
ATOM     11  C   LIG    1       10.134  -2.810  -2.356  0.00  0.00    +0.022 C 
ENDBRANCH   3   6
BRANCH   1  12
ATOM     12  C   LIG    1        7.360  -0.036   0.611  0.00  0.00    +0.114 C 
BRANCH  12  13
ATOM     13  C   LIG    1        6.701   0.924  -0.381  0.00  0.00    +0.054 C 
BRANCH  13  17
ATOM     14  C   LIG    1        2.671  -0.309  -1.094  0.00  0.00    +0.009 A 
ATOM     15  C   LIG    1        2.955   0.580  -0.064  0.00  0.00    +0.015 A 
ATOM     16  C   LIG    1        4.258   0.976   0.163  0.00  0.00    +0.005 A 
ATOM     17  C   LIG    1        5.280   0.490  -0.632  0.00  0.00    -0.046 A 
ATOM     18  C   LIG    1        5.000  -0.395  -1.659  0.00  0.00    +0.005 A 
ATOM     19  C   LIG    1        3.700  -0.800  -1.888  0.00  0.00    +0.015 A 
BRANCH  14  20
ATOM     20  S   LIG    1        1.010  -0.818  -1.388  0.00  0.00    -0.108 S 
BRANCH  20  22
ATOM     21  C   LIG    1       -1.458  -0.090  -0.459  0.00  0.00    +0.034 C 
ATOM     22  C   LIG    1        0.028   0.227  -0.277  0.00  0.00    +0.112 C 
ATOM     23  C   LIG    1        0.279   1.700  -0.606  0.00  0.00    +0.034 C 
BRANCH  22  24
ATOM     24  C   LIG    1        0.428  -0.044   1.151  0.00  0.00    +0.321 C 
ATOM     25  O   LIG    1        1.295  -0.865   1.395  0.00  0.00    -0.249 OA
BRANCH  24  26
ATOM     26  O   LIG    1       -0.115   0.558   2.061  0.00  0.00    -0.480 OA
ATOM     27  H   LIG    1       -0.782   1.190   1.873  0.00  0.00    +0.295 HD
ENDBRANCH  24  26
ENDBRANCH  22  24
ENDBRANCH  20  22
ENDBRANCH  14  20
ENDBRANCH  13  17
ENDBRANCH  12  13
ENDBRANCH   1  12
BRANCH   1  28
ATOM     28  C   LIG    1        9.039   1.324   1.941  0.00  0.00    +0.109 C 
BRANCH  28  29
ATOM     29  C   LIG    1        9.322   0.542   3.226  0.00  0.00    +0.019 C 
BRANCH  29  30
ATOM     30  C   LIG    1        9.633   1.520   4.360  0.00  0.00    +0.002 C 
BRANCH  30  31
ATOM     31  C   LIG    1        9.915   0.739   5.645  0.00  0.00    +0.003 C 
BRANCH  31  32
ATOM     32  C   LIG    1       10.226   1.717   6.779  0.00  0.00    -0.011 C 
ATOM     33  C   LIG    1       11.524   2.465   6.466  0.00  0.00    +0.003 C 
ATOM     34  C   LIG    1       11.835   3.443   7.601  0.00  0.00    +0.000 C 
ATOM     35  C   LIG    1       11.995   2.670   8.912  0.00  0.00    +0.000 C 
ATOM     36  C   LIG    1       10.697   1.923   9.224  0.00  0.00    +0.000 C 
ATOM     37  C   LIG    1       10.386   0.945   8.090  0.00  0.00    +0.003 C 
ENDBRANCH  31  32
ENDBRANCH  30  31
ENDBRANCH  29  30
ENDBRANCH  28  29
ENDBRANCH   1  28
TORSDOF 13
