REMARK  Name = ZINC03875502
REMARK                            x       y       z     vdW  Elec       q    Type
REMARK                         _______ _______ _______ _____ _____    ______ ____
ROOT
ATOM      1  C   LIG    1        0.376  -2.034   8.120  0.00  0.00    +0.120 C 
ENDROOT
BRANCH   1   2
ATOM      2  C   LIG    1       -0.219  -3.267   8.751  0.00  0.00    -0.011 A 
ATOM      3  C   LIG    1       -1.420  -3.184   9.429  0.00  0.00    +0.007 A 
ATOM      4  C   LIG    1       -1.966  -4.315  10.008  0.00  0.00    +0.004 A 
ATOM      5  C   LIG    1       -1.310  -5.528   9.908  0.00  0.00    -0.050 A 
ATOM      6  C   LIG    1       -1.905  -6.760  10.540  0.00  0.00    +0.044 C 
ATOM      7  C   LIG    1       -0.109  -5.610   9.228  0.00  0.00    +0.004 A 
ATOM      8  C   LIG    1        0.434  -4.481   8.646  0.00  0.00    +0.007 A 
ENDBRANCH   1   2
BRANCH   1  12
ATOM      9  C   LIG    1       -1.061  -1.651   4.113  0.00  0.00    +0.120 A 
ATOM     10  C   LIG    1        0.101  -2.364   4.369  0.00  0.00    +0.046 A 
ATOM     11  C   LIG    1        0.564  -2.486   5.665  0.00  0.00    +0.010 A 
ATOM     12  C   LIG    1       -0.131  -1.899   6.707  0.00  0.00    -0.011 A 
ATOM     13  C   LIG    1       -1.289  -1.188   6.454  0.00  0.00    +0.010 A 
ATOM     14  C   LIG    1       -1.753  -1.058   5.160  0.00  0.00    +0.046 A 
BRANCH   9  15
ATOM     15  O   LIG    1       -1.518  -1.528   2.839  0.00  0.00    -0.494 OA
BRANCH  15  16
ATOM     16  C   LIG    1       -0.755  -2.165   1.813  0.00  0.00    +0.210 C 
BRANCH  16  17
ATOM     17  C   LIG    1       -1.419  -1.919   0.457  0.00  0.00    -0.037 C 
BRANCH  17  18
ATOM     18  N   LIG    1       -1.374  -0.485   0.142  0.00  0.00    +0.382 N 
ATOM     19  H   LIG    1       -1.793   0.038   0.896  0.00  0.00    -0.082 HD
BRANCH  18  21
ATOM     20  C   LIG    1        0.080   1.452  -0.218  0.00  0.00    -0.017 C 
ATOM     21  C   LIG    1        0.023  -0.065  -0.028  0.00  0.00    -0.082 C 
ENDBRANCH  18  21
BRANCH  18  22
ATOM     22  C   LIG    1       -2.116  -0.233  -1.101  0.00  0.00    -0.082 C 
ATOM     23  C   LIG    1       -3.600  -0.533  -0.879  0.00  0.00    -0.017 C 
ENDBRANCH  18  22
ENDBRANCH  17  18
ENDBRANCH  16  17
ENDBRANCH  15  16
ENDBRANCH   9  15
ENDBRANCH   1  12
BRANCH   1  24
ATOM     24  O   LIG    1        1.801  -2.146   8.106  0.00  0.00    -0.379 OA
ATOM     25  H   LIG    1        2.251  -1.386   7.713  0.00  0.00    +0.211 HD
ENDBRANCH   1  24
BRANCH   1  26
ATOM     26  C   LIG    1       -0.031  -0.800   8.928  0.00  0.00    +0.079 C 
BRANCH  26  27
ATOM     27  C   LIG    1        0.476  -0.936  10.341  0.00  0.00    -0.044 A 
ATOM     28  C   LIG    1       -0.310  -1.545  11.301  0.00  0.00    +0.005 A 
ATOM     29  C   LIG    1        0.154  -1.669  12.597  0.00  0.00    +0.020 A 
ATOM     30  C   LIG    1        1.406  -1.184  12.933  0.00  0.00    +0.041 A 
ATOM     31 CL   LIG    1        1.989  -1.340  14.560  0.00  0.00    -0.084 Cl
ATOM     32  C   LIG    1        2.192  -0.575  11.971  0.00  0.00    +0.020 A 
ATOM     33  C   LIG    1        1.729  -0.456  10.674  0.00  0.00    +0.005 A 
ENDBRANCH  26  27
ENDBRANCH   1  26
TORSDOF 11
