REMARK  Name = ZINC03919414
REMARK                            x       y       z     vdW  Elec       q    Type
REMARK                         _______ _______ _______ _____ _____    ______ ____
ROOT
ATOM      1  N   ASP A  3        5.069  -1.450  -2.724  0.00  0.00    -0.302 N 
ATOM      2  H   ASP A  3        4.540  -1.890  -3.408  0.00  0.00    +0.150 HD
ATOM      3  C   GLY A  2        6.351  -1.813  -2.526  0.00  0.00    +0.231 C 
ATOM      4  O   GLY A  2        7.038  -1.203  -1.734  0.00  0.00    -0.274 OA
ENDROOT
BRANCH   3   5
ATOM      5  CA  GLY A  2        6.932  -2.975  -3.289  0.00  0.00    +0.200 C 
BRANCH   5   6
ATOM      6  N   GLY A  2        8.331  -3.166  -2.898  0.00  0.00    -0.308 N 
ATOM      7  H   GLY A  2        8.735  -2.580  -2.238  0.00  0.00    +0.149 HD
ATOM      8  C   ARG A  1        9.058  -4.155  -3.455  0.00  0.00    +0.199 C 
ATOM      9  O   ARG A  1        8.554  -4.887  -4.280  0.00  0.00    -0.278 OA
BRANCH   8  10
ATOM     10  CA  ARG A  1       10.497  -4.351  -3.053  0.00  0.00    +0.013 C 
BRANCH  10  11
ATOM     11  N   ARG A  1       10.921  -5.714  -3.399  0.00  0.00    +0.386 N 
ATOM     12  H1  ARG A  1       10.341  -6.381  -2.911  0.00  0.00    -0.089 HD
ATOM     13  H2  ARG A  1       11.884  -5.846  -3.130  0.00  0.00    -0.089 HD
ATOM     14  H3  ARG A  1       10.828  -5.853  -4.394  0.00  0.00    -0.089 HD
ENDBRANCH  10  11
BRANCH  10  15
ATOM     15  CB  ARG A  1       11.376  -3.341  -3.793  0.00  0.00    -0.004 C 
BRANCH  15  16
ATOM     16  CG  ARG A  1       12.817  -3.455  -3.293  0.00  0.00    +0.036 C 
BRANCH  16  17
ATOM     17  CD  ARG A  1       13.696  -2.445  -4.034  0.00  0.00    +0.195 C 
BRANCH  17  18
ATOM     18  NE  ARG A  1       15.076  -2.555  -3.555  0.00  0.00    -0.279 N 
ATOM     19  HE  ARG A  1       15.301  -3.202  -2.869  0.00  0.00    +0.258 HD
BRANCH  18  20
ATOM     20  CZ  ARG A  1       16.047  -1.745  -4.076  0.00  0.00    +0.341 C 
ATOM     21  NH1 ARG A  1       17.302  -1.845  -3.641  0.00  0.00    -0.292 N 
ATOM     22 HH11 ARG A  1       17.527  -2.493  -2.955  0.00  0.00    +0.255 HD
ATOM     23 HH12 ARG A  1       17.991  -1.271  -4.011  0.00  0.00    +0.255 HD
BRANCH  20  24
ATOM     24  NH2 ARG A  1       15.738  -0.857  -5.019  0.00  0.00    -0.292 N 
ATOM     25 HH21 ARG A  1       16.427  -0.282  -5.389  0.00  0.00    +0.255 HD
ATOM     26 HH22 ARG A  1       14.824  -0.784  -5.336  0.00  0.00    +0.255 HD
ENDBRANCH  20  24
ENDBRANCH  18  20
ENDBRANCH  17  18
ENDBRANCH  16  17
ENDBRANCH  15  16
ENDBRANCH  10  15
ENDBRANCH   8  10
ENDBRANCH   5   6
ENDBRANCH   3   5
BRANCH   1  27
ATOM     27  CA  ASP A  3        4.472  -0.391  -1.906  0.00  0.00    +0.169 C 
BRANCH  27  30
ATOM     28  N   VAL A  4        2.224   0.241  -1.091  0.00  0.00    -0.301 N 
ATOM     29  H   VAL A  4        2.632   1.001  -0.648  0.00  0.00    +0.150 HD
ATOM     30  C   ASP A  3        2.986  -0.615  -1.800  0.00  0.00    +0.235 C 
ATOM     31  O   ASP A  3        2.475  -1.566  -2.353  0.00  0.00    -0.274 OA
BRANCH  28  32
ATOM     32  CA  VAL A  4        0.779   0.023  -0.988  0.00  0.00    +0.184 C 
BRANCH  32  34
ATOM     33  CG1 VAL A  4        0.428   2.197   0.192  0.00  0.00    +0.009 C 
ATOM     34  CB  VAL A  4        0.254   0.680   0.290  0.00  0.00    +0.014 C 
ATOM     35  CG2 VAL A  4       -1.230   0.348   0.462  0.00  0.00    +0.009 C 
ENDBRANCH  32  34
BRANCH  32  36
ATOM     36  C   VAL A  4        0.093   0.630  -2.184  0.00  0.00    +0.326 C 
ATOM     37  O   VAL A  4        0.574   1.607  -2.732  0.00  0.00    -0.249 OA
BRANCH  36  38
ATOM     38  OXT VAL A  4       -0.944   0.145  -2.604  0.00  0.00    -0.479 OA
ATOM     39  HXT VAL A  4       -1.314  -0.606  -2.182  0.00  0.00    +0.295 HD
ENDBRANCH  36  38
ENDBRANCH  32  36
ENDBRANCH  28  32
ENDBRANCH  27  30
BRANCH  27  40
ATOM     40  CB  ASP A  3        4.738   0.968  -2.558  0.00  0.00    +0.152 C 
BRANCH  40  41
ATOM     41  CG  ASP A  3        4.194   0.965  -3.964  0.00  0.00    +0.307 C 
ATOM     42  OD1 ASP A  3        3.579  -0.003  -4.378  0.00  0.00    -0.251 OA
BRANCH  41  43
ATOM     43  OD2 ASP A  3        4.370   1.931  -4.687  0.00  0.00    -0.481 OA
ATOM     44  HD2 ASP A  3        4.843   2.675  -4.368  0.00  0.00    +0.295 HD
ENDBRANCH  41  43
ENDBRANCH  40  41
ENDBRANCH  27  40
ENDBRANCH   1  27
TORSDOF 19
