REMARK  Name = ZINC04071646
REMARK                            x       y       z     vdW  Elec       q    Type
REMARK                         _______ _______ _______ _____ _____    ______ ____
ROOT
ATOM      1  C   LIG    1       -4.724   2.548  -1.043  0.00  0.00    +0.068 C 
ATOM      2  C   LIG    1       -3.335   2.577  -0.459  0.00  0.00    +0.075 A 
ATOM      3  C   LIG    1       -2.844   3.535   0.448  0.00  0.00    +0.108 A 
ATOM      4  C   LIG    1       -1.518   3.185   0.736  0.00  0.00    +0.092 A 
ATOM      5  N   LIG    1       -1.238   2.070   0.019  0.00  0.00    -0.231 N 
ATOM      6  C   LIG    1       -0.766   4.028   1.675  0.00  0.00    +0.044 A 
ATOM      7  C   LIG    1        0.559   3.730   1.998  0.00  0.00    +0.014 A 
ATOM      8  C   LIG    1        1.245   4.534   2.882  0.00  0.00    +0.001 A 
ATOM      9  C   LIG    1        0.624   5.636   3.449  0.00  0.00    +0.004 A 
ATOM     10  C   LIG    1       -0.685   5.940   3.139  0.00  0.00    +0.047 A 
ATOM     11  C   LIG    1       -1.396   5.143   2.249  0.00  0.00    +0.141 A 
ATOM     12  O   LIG    1       -2.678   5.447   1.950  0.00  0.00    -0.422 OA
ATOM     13  C   LIG    1       -3.412   4.720   1.092  0.00  0.00    +0.348 A 
ATOM     14  O   LIG    1       -4.563   5.040   0.860  0.00  0.00    -0.244 OA
ATOM     15  N   LIG    1       -2.384   1.717  -0.706  0.00  0.00    -0.170 NA
ENDROOT
BRANCH   5  16
ATOM     16  C   LIG    1       -0.017   1.385   0.010  0.00  0.00    +0.066 A 
ATOM     17  C   LIG    1        0.608   1.092  -1.196  0.00  0.00    +0.028 A 
ATOM     18  C   LIG    1        1.809   0.411  -1.202  0.00  0.00    +0.002 A 
ATOM     19  C   LIG    1        2.391   0.021  -0.010  0.00  0.00    +0.000 A 
ATOM     20  C   LIG    1        1.771   0.310   1.192  0.00  0.00    +0.002 A 
ATOM     21  C   LIG    1        0.570   0.991   1.205  0.00  0.00    +0.028 A 
ENDBRANCH   5  16
TORSDOF 1
