REMARK  Name = ZINC03962029
REMARK                            x       y       z     vdW  Elec       q    Type
REMARK                         _______ _______ _______ _____ _____    ______ ____
ROOT
ATOM      1  C   LIG    1        3.466   6.132  -0.001  0.00  0.00    +0.073 A 
ATOM      2  C   LIG    1        3.358   7.515   0.112  0.00  0.00    +0.038 A 
ATOM      3  C   LIG    1        4.522   8.285   0.103  0.00  0.00    +0.006 A 
ATOM      4  C   LIG    1        5.750   7.628  -0.020  0.00  0.00    +0.030 A 
ATOM      5  C   LIG    1        5.771   6.252  -0.127  0.00  0.00    +0.112 A 
ATOM      6  N   LIG    1        4.654   5.552  -0.111  0.00  0.00    -0.255 NA
ENDROOT
BRANCH   1  13
ATOM      7  C   LIG    1       -0.013   1.076   0.008  0.00  0.00    +0.001 A 
ATOM      8  C   LIG    1       -1.234   1.747   0.017  0.00  0.00    +0.002 A 
ATOM      9  C   LIG    1       -1.288   3.107   0.032  0.00  0.00    +0.028 A 
ATOM     10  C   LIG    1       -0.097   3.854   0.024  0.00  0.00    +0.071 A 
ATOM     11  C   LIG    1        1.144   3.169   0.008  0.00  0.00    +0.001 A 
ATOM     12  C   LIG    1        2.336   3.913   0.000  0.00  0.00    +0.021 A 
ATOM     13  C   LIG    1        2.239   5.297   0.007  0.00  0.00    +0.019 A 
ATOM     14  C   LIG    1        0.973   5.902   0.023  0.00  0.00    +0.121 A 
ATOM     15  N   LIG    1       -0.126   5.191   0.030  0.00  0.00    -0.254 NA
ATOM     16  C   LIG    1        1.162   1.764   0.000  0.00  0.00    +0.010 A 
ENDBRANCH   1  13
BRANCH   3  17
ATOM     17  C   LIG    1        4.457   9.763   0.221  0.00  0.00    +0.094 A 
ATOM     18  C   LIG    1        5.553  10.644   0.225  0.00  0.00    +0.064 A 
ATOM     19  C   LIG    1        5.005  11.907   0.354  0.00  0.00    +0.146 A 
ATOM     20  N   LIG    1        3.651  11.736   0.421  0.00  0.00    -0.259 N 
ATOM     21  N   LIG    1        3.364  10.487   0.336  0.00  0.00    -0.171 NA
BRANCH  19  22
ATOM     22  C   LIG    1        5.736  13.182   0.410  0.00  0.00    +0.355 C 
ATOM     23  O   LIG    1        6.949  13.191   0.339  0.00  0.00    -0.243 OA
BRANCH  22  24
ATOM     24  O   LIG    1        5.059  14.341   0.540  0.00  0.00    -0.476 OA
ATOM     25  H   LIG    1        4.124  14.334   0.595  0.00  0.00    +0.295 HD
ENDBRANCH  22  24
ENDBRANCH  19  22
BRANCH  20  26
ATOM     26  C   LIG    1        2.671  12.816   0.562  0.00  0.00    +0.125 C 
BRANCH  26  27
ATOM     27  C   LIG    1        2.246  13.303  -0.825  0.00  0.00    -0.063 C 
BRANCH  27  28
ATOM     28  N   LIG    1        1.246  14.375  -0.672  0.00  0.00    +0.379 N 
ATOM     29  H   LIG    1        0.420  13.999  -0.192  0.00  0.00    -0.090 HD
ATOM     30  H   LIG    1        0.968  14.726  -1.587  0.00  0.00    -0.090 HD
ATOM     31  H   LIG    1        1.633  15.137  -0.119  0.00  0.00    -0.090 HD
ENDBRANCH  27  28
ENDBRANCH  26  27
ENDBRANCH  20  26
ENDBRANCH   3  17
TORSDOF 7
