REMARK  Name = ZINC03983953
REMARK                            x       y       z     vdW  Elec       q    Type
REMARK                         _______ _______ _______ _____ _____    ______ ____
ROOT
ATOM      1  C   LIG    1       -0.018   1.465   0.010  0.00  0.00    -0.095 C 
ATOM      2  N   LIG    1        0.002  -0.004   0.002  0.00  0.00    +0.383 N 
ATOM      3  H   LIG    1        0.492  -0.321  -0.821  0.00  0.00    -0.081 HD
ATOM      4  C   LIG    1       -1.375  -0.499  -0.045  0.00  0.00    -0.069 C 
ATOM      5  C   LIG    1       -1.339  -2.022  -0.223  0.00  0.00    +0.021 C 
ATOM      6  C   LIG    1       -0.544  -2.607   0.915  0.00  0.00    -0.021 C 
ATOM      7  C   LIG    1        0.377  -1.899   1.546  0.00  0.00    -0.056 C 
ATOM      8  C   LIG    1        1.119  -2.519   2.660  0.00  0.00    -0.014 A 
ATOM      9  C   LIG    1        0.774  -3.570   3.480  0.00  0.00    +0.009 A 
ATOM     10  C   LIG    1        1.645  -3.974   4.488  0.00  0.00    +0.003 A 
ATOM     11  C   LIG    1        2.876  -3.381   4.745  0.00  0.00    +0.026 A 
ATOM     12  C   LIG    1        3.258  -2.315   3.932  0.00  0.00    +0.047 A 
ATOM     13  N   LIG    1        4.320  -1.469   3.820  0.00  0.00    -0.360 N 
ATOM     14  H   LIG    1        5.103  -1.484   4.394  0.00  0.00    +0.165 HD
ATOM     15  C   LIG    1        4.125  -0.583   2.772  0.00  0.00    +0.087 A 
ATOM     16  C   LIG    1        2.959  -0.819   2.180  0.00  0.00    -0.023 A 
ATOM     17  C   LIG    1        2.213  -0.221   1.016  0.00  0.00    +0.026 C 
ATOM     18  C   LIG    1        2.375  -1.932   2.919  0.00  0.00    +0.010 A 
ATOM     19  C   LIG    1        0.709  -0.475   1.186  0.00  0.00    -0.033 C 
ENDROOT
BRANCH   5  20
ATOM     20  C   LIG    1       -2.764  -2.579  -0.198  0.00  0.00    +0.161 C 
BRANCH  20  21
ATOM     21  O   LIG    1       -2.732  -3.980  -0.480  0.00  0.00    -0.394 OA
ATOM     22  H   LIG    1       -3.603  -4.400  -0.481  0.00  0.00    +0.209 HD
ENDBRANCH  20  21
ENDBRANCH   5  20
TORSDOF 2
