REMARK  Name = ZINC03951312
REMARK                            x       y       z     vdW  Elec       q    Type
REMARK                         _______ _______ _______ _____ _____    ______ ____
ROOT
ATOM      1  C   LIG    1        0.013  -2.642  -2.620  0.00  0.00    -0.008 A 
ATOM      2  C   LIG    1       -1.187  -2.880  -3.263  0.00  0.00    +0.007 A 
ATOM      3  C   LIG    1       -1.193  -3.334  -4.569  0.00  0.00    +0.001 A 
ATOM      4  C   LIG    1        0.001  -3.549  -5.231  0.00  0.00    +0.002 A 
ATOM      5  C   LIG    1        1.201  -3.311  -4.588  0.00  0.00    -0.065 A 
ATOM      6  C   LIG    1        1.207  -2.853  -3.284  0.00  0.00    +0.009 A 
ENDROOT
BRANCH   1   7
ATOM      7  C   LIG    1        0.020  -2.147  -1.196  0.00  0.00    +0.258 C 
BRANCH   7   8
ATOM      8  N   LIG    1        0.000  -0.683  -1.188  0.00  0.00    -0.237 N 
ATOM      9  H   LIG    1       -0.015  -0.193  -2.026  0.00  0.00    +0.291 HD
BRANCH   8  11
ATOM     10  C   LIG    1       -0.018   1.503   0.010  0.00  0.00    +0.139 C 
ATOM     11  C   LIG    1        0.002  -0.004   0.002  0.00  0.00    +0.233 C 
ATOM     12  N   LIG    1        0.021  -0.657   1.118  0.00  0.00    -0.293 N 
ATOM     13  H   LIG    1        0.035  -1.627   1.113  0.00  0.00    +0.301 HD
ATOM     14  H   LIG    1        0.023  -0.176   1.961  0.00  0.00    +0.301 HD
ENDBRANCH   8  11
ENDBRANCH   7   8
ENDBRANCH   1   7
BRANCH   5  15
ATOM     15  C   LIG    1        2.502  -3.546  -5.310  0.00  0.00    -0.051 C 
BRANCH  15  16
ATOM     16  N   LIG    1        2.909  -2.315  -6.000  0.00  0.00    +0.381 N 
ATOM     17  H   LIG    1        3.781  -2.472  -6.484  0.00  0.00    -0.090 HD
ATOM     18  H   LIG    1        3.028  -1.574  -5.325  0.00  0.00    -0.090 HD
ATOM     19  H   LIG    1        2.198  -2.051  -6.666  0.00  0.00    -0.090 HD
ENDBRANCH  15  16
ENDBRANCH   5  15
TORSDOF 5
