REMARK  Name = ZINC03977949
REMARK                            x       y       z     vdW  Elec       q    Type
REMARK                         _______ _______ _______ _____ _____    ______ ____
ROOT
ATOM      1  C   LIG    1       -0.717   0.236   0.939  0.00  0.00    +0.012 C 
ATOM      2  C   LIG    1       -0.514  -1.240   0.589  0.00  0.00    +0.013 C 
ATOM      3  C   LIG    1        0.438  -1.354  -0.593  0.00  0.00    +0.011 C 
ATOM      4  C   LIG    1        1.327  -2.589  -0.511  0.00  0.00    -0.003 C 
ATOM      5  C   LIG    1        0.631  -3.759   0.169  0.00  0.00    +0.002 C 
ATOM      6  C   LIG    1        0.289  -3.451   1.619  0.00  0.00    -0.007 C 
ATOM      7  C   LIG    1       -0.949  -4.251   2.031  0.00  0.00    +0.016 C 
ATOM      8  C   LIG    1        1.462  -3.826   2.526  0.00  0.00    +0.019 C 
ATOM      9  C   LIG    1        1.214  -3.471   3.979  0.00  0.00    +0.080 C 
ATOM     10  C   LIG    1        0.886  -2.001   4.067  0.00  0.00    +0.156 C 
ATOM     11  O   LIG    1        1.094  -1.392   5.096  0.00  0.00    -0.293 OA
ATOM     12  C   LIG    1        0.318  -1.312   2.910  0.00  0.00    +0.046 C 
ATOM     13  C   LIG    1       -0.635  -4.092  -0.622  0.00  0.00    +0.005 C 
ATOM     14  C   LIG    1       -0.209  -4.591  -2.002  0.00  0.00    +0.011 C 
ATOM     15  C   LIG    1        0.589  -3.528  -2.760  0.00  0.00    +0.018 C 
ATOM     16  C   LIG    1       -0.318  -2.413  -3.285  0.00  0.00    +0.016 C 
ATOM     17  C   LIG    1        1.319  -4.269  -3.914  0.00  0.00    +0.176 C 
ATOM     18  C   LIG    1        2.652  -4.720  -3.351  0.00  0.00    +0.057 C 
ATOM     19  C   LIG    1        2.743  -4.166  -1.910  0.00  0.00    +0.009 C 
ATOM     20  C   LIG    1        1.737  -3.001  -1.914  0.00  0.00    +0.003 C 
ATOM     21  C   LIG    1        0.063  -1.962   1.780  0.00  0.00    -0.057 C 
ENDROOT
BRANCH  17  22
ATOM     22  C   LIG    1        1.504  -3.342  -5.088  0.00  0.00    +0.174 C 
ATOM     23  C   LIG    1        0.451  -3.271  -6.164  0.00  0.00    +0.090 C 
ATOM     24  O   LIG    1        2.495  -2.657  -5.166  0.00  0.00    -0.293 OA
ENDBRANCH  17  22
BRANCH  17  25
ATOM     25  O   LIG    1        0.572  -5.421  -4.309  0.00  0.00    -0.450 OA
BRANCH  25  26
ATOM     26  C   LIG    1        1.099  -6.186  -5.277  0.00  0.00    +0.305 C 
ATOM     27  C   LIG    1        0.330  -7.370  -5.804  0.00  0.00    +0.136 C 
ATOM     28  O   LIG    1        2.190  -5.926  -5.726  0.00  0.00    -0.251 OA
ENDBRANCH  25  26
ENDBRANCH  17  25
TORSDOF 3
