REMARK  Name = ZINC03948733
REMARK                            x       y       z     vdW  Elec       q    Type
REMARK                         _______ _______ _______ _____ _____    ______ ____
ROOT
ATOM      1  N   LIG    1        2.417  -4.083  -0.246  0.00  0.00    -0.268 N 
ATOM      2  H   LIG    1        1.580  -4.570  -0.317  0.00  0.00    +0.156 HD
ATOM      3  C   LIG    1        2.407  -2.740  -0.133  0.00  0.00    +0.308 C 
ATOM      4  N   LIG    1        1.237  -2.083  -0.003  0.00  0.00    -0.266 N 
ATOM      5  H   LIG    1        0.408  -2.580   0.077  0.00  0.00    +0.156 HD
ATOM      6  O   LIG    1        3.454  -2.122  -0.148  0.00  0.00    -0.252 OA
ENDROOT
BRANCH   1  12
ATOM      7  C   LIG    1        5.956  -4.907   0.318  0.00  0.00    +0.002 A 
ATOM      8  C   LIG    1        6.038  -6.144  -0.293  0.00  0.00    +0.001 A 
ATOM      9  C   LIG    1        4.921  -6.700  -0.889  0.00  0.00    +0.017 A 
ATOM     10  C   LIG    1        3.718  -6.019  -0.875  0.00  0.00    +0.039 A 
ATOM     11 BR   LIG    1        2.191  -6.780  -1.691  0.00  0.00    -0.048 Br
ATOM     12  C   LIG    1        3.633  -4.776  -0.262  0.00  0.00    +0.049 A 
ATOM     13  C   LIG    1        4.758  -4.219   0.331  0.00  0.00    +0.024 A 
ENDBRANCH   1  12
BRANCH   4  14
ATOM     14  C   LIG    1        1.219  -0.686   0.015  0.00  0.00    +0.078 A 
ATOM     15  C   LIG    1        2.265   0.013   0.606  0.00  0.00    +0.028 A 
ATOM     16  C   LIG    1        2.252   1.390   0.627  0.00  0.00    +0.022 A 
ATOM     17  C   LIG    1        1.185   2.088   0.053  0.00  0.00    +0.069 A 
ATOM     18  C   LIG    1        0.133   1.385  -0.542  0.00  0.00    +0.078 A 
ATOM     19 BR   LIG    1       -1.308   2.324  -1.329  0.00  0.00    -0.045 Br
ATOM     20  C   LIG    1        0.152   0.003  -0.560  0.00  0.00    +0.153 A 
BRANCH  17  21
ATOM     21  C   LIG    1        1.171   3.520   0.074  0.00  0.00    +0.100 C 
ATOM     22  N   LIG    1        1.159   4.656   0.090  0.00  0.00    -0.191 NA
ENDBRANCH  17  21
BRANCH  20  23
ATOM     23  O   LIG    1       -0.869  -0.684  -1.139  0.00  0.00    -0.504 OA
ATOM     24  H   LIG    1       -0.737  -0.867  -2.079  0.00  0.00    +0.292 HD
ENDBRANCH  20  23
ENDBRANCH   4  14
TORSDOF 4
