REMARK  Name = ZINC03992480
REMARK                            x       y       z     vdW  Elec       q    Type
REMARK                         _______ _______ _______ _____ _____    ______ ____
ROOT
ATOM      1  C   LIG    1        0.056  -3.367   1.755  0.00  0.00    +0.165 C 
ATOM      2  C   LIG    1       -0.129  -4.544   2.722  0.00  0.00    +0.023 C 
ATOM      3  C   LIG    1       -1.487  -5.230   2.449  0.00  0.00    +0.006 C 
ATOM      4  C   LIG    1       -1.214  -6.701   2.850  0.00  0.00    +0.001 C 
ATOM      5  C   LIG    1        0.240  -6.971   2.365  0.00  0.00    +0.005 C 
ATOM      6  C   LIG    1        0.922  -5.594   2.273  0.00  0.00    +0.012 C 
ATOM      7  C   LIG    1        1.156  -5.259   0.787  0.00  0.00    +0.112 C 
ATOM      8  N   LIG    1        0.854  -3.834   0.618  0.00  0.00    -0.288 N 
ATOM      9  C   LIG    1        1.249  -3.072  -0.422  0.00  0.00    +0.237 C 
ATOM     10  O   LIG    1        0.864  -1.925  -0.514  0.00  0.00    -0.274 OA
ENDROOT
BRANCH   1  13
ATOM     11  N   LIG    1        0.095  -1.415   3.275  0.00  0.00    -0.304 N 
ATOM     12  H   LIG    1       -0.983  -1.562   3.434  0.00  0.00    +0.149 HD
ATOM     13  C   LIG    1        0.774  -2.242   2.454  0.00  0.00    +0.234 C 
ATOM     14  O   LIG    1        1.963  -2.080   2.279  0.00  0.00    -0.274 OA
BRANCH  11  15
ATOM     15  C   LIG    1        0.794  -0.322   3.954  0.00  0.00    +0.149 C 
BRANCH  15  16
ATOM     16  C   LIG    1        0.048   0.047   5.211  0.00  0.00    +0.237 C 
ATOM     17  O   LIG    1       -1.085  -0.339   5.376  0.00  0.00    -0.285 OA
BRANCH  16  18
ATOM     18  C   LIG    1        0.709   0.886   6.251  0.00  0.00    +0.282 C 
ATOM     19  N   LIG    1        0.042   1.216   7.375  0.00  0.00    -0.306 N 
ATOM     20  H   LIG    1       -0.990   0.865   7.525  0.00  0.00    +0.149 HD
ATOM     21  O   LIG    1        1.847   1.274   6.085  0.00  0.00    -0.267 OA
BRANCH  19  22
ATOM     22  C   LIG    1        0.691   2.041   8.396  0.00  0.00    +0.073 C 
ATOM     23  C   LIG    1        0.515   1.624   9.858  0.00  0.00    +0.024 C 
ATOM     24  C   LIG    1       -0.212   2.860   9.322  0.00  0.00    +0.024 C 
ENDBRANCH  19  22
ENDBRANCH  16  18
ENDBRANCH  15  16
BRANCH  15  25
ATOM     25  C   LIG    1        0.862   0.893   3.027  0.00  0.00    +0.030 C 
BRANCH  25  27
ATOM     26  C   LIG    1        1.793   1.773   0.882  0.00  0.00    +0.004 C 
ATOM     27  C   LIG    1        1.725   0.557   1.809  0.00  0.00    -0.001 C 
ENDBRANCH  25  27
ENDBRANCH  15  25
ENDBRANCH  11  15
ENDBRANCH   1  13
BRANCH   9  28
ATOM     28  C   LIG    1        2.168  -3.645  -1.469  0.00  0.00    +0.164 C 
BRANCH  28  29
ATOM     29  N   LIG    1        1.794  -3.122  -2.786  0.00  0.00    -0.302 N 
ATOM     30  H   LIG    1        1.269  -2.159  -2.866  0.00  0.00    +0.150 HD
ATOM     31  C   LIG    1        2.094  -3.822  -3.898  0.00  0.00    +0.234 C 
ATOM     32  O   LIG    1        2.673  -4.883  -3.809  0.00  0.00    -0.274 OA
BRANCH  31  33
ATOM     33  C   LIG    1        1.709  -3.284  -5.253  0.00  0.00    +0.162 C 
BRANCH  33  34
ATOM     34  C   LIG    1        0.190  -3.114  -5.321  0.00  0.00    +0.018 C 
ATOM     35  C   LIG    1       -0.486  -4.469  -5.099  0.00  0.00    +0.006 C 
ATOM     36  C   LIG    1       -2.005  -4.299  -5.167  0.00  0.00    +0.000 C 
ATOM     37  C   LIG    1       -2.396  -3.753  -6.542  0.00  0.00    +0.000 C 
ATOM     38  C   LIG    1       -1.720  -2.399  -6.764  0.00  0.00    +0.000 C 
ATOM     39  C   LIG    1       -0.201  -2.569  -6.696  0.00  0.00    +0.006 C 
ENDBRANCH  33  34
BRANCH  33  40
ATOM     40  N   LIG    1        2.142  -4.222  -6.291  0.00  0.00    -0.298 N 
ATOM     41  H   LIG    1        2.276  -5.287  -6.050  0.00  0.00    +0.150 HD
ATOM     42  C   LIG    1        2.377  -3.780  -7.543  0.00  0.00    +0.264 C 
ATOM     43  O   LIG    1        2.230  -2.604  -7.809  0.00  0.00    -0.268 OA
BRANCH  42  44
ATOM     44  C   LIG    1        2.816  -4.729  -8.593  0.00  0.00    +0.143 A 
ATOM     45  C   LIG    1        3.054  -4.275  -9.890  0.00  0.00    +0.143 A 
ATOM     46  N   LIG    1        3.450  -5.123 -10.821  0.00  0.00    -0.259 NA
ATOM     47  C   LIG    1        3.609  -6.402 -10.528  0.00  0.00    +0.130 A 
ATOM     48  C   LIG    1        3.367  -6.857  -9.240  0.00  0.00    +0.131 A 
ATOM     49  N   LIG    1        2.978  -6.017  -8.303  0.00  0.00    -0.247 NA
ENDBRANCH  42  44
ENDBRANCH  33  40
ENDBRANCH  31  33
ENDBRANCH  28  29
BRANCH  28  50
ATOM     50  C   LIG    1        3.612  -3.246  -1.154  0.00  0.00    -0.011 C 
ATOM     51  C   LIG    1        3.728  -1.721  -1.137  0.00  0.00    +0.013 C 
ATOM     52  C   LIG    1        4.544  -3.817  -2.225  0.00  0.00    +0.013 C 
ATOM     53  C   LIG    1        4.007  -3.803   0.215  0.00  0.00    +0.013 C 
ENDBRANCH  28  50
ENDBRANCH   9  28
TORSDOF 14
