REMARK  Name = ZINC03894450
REMARK                            x       y       z     vdW  Elec       q    Type
REMARK                         _______ _______ _______ _____ _____    ______ ____
ROOT
ATOM      1  C   LIG    1        2.054  -0.873   1.071  0.00  0.00    +0.122 A 
ATOM      2  C   LIG    1        2.735  -0.692  -0.142  0.00  0.00    +0.047 A 
ATOM      3  C   LIG    1        4.080  -0.901  -0.203  0.00  0.00    -0.038 A 
ATOM      4  C   LIG    1        4.833  -0.714  -1.494  0.00  0.00    +0.044 C 
ATOM      5  C   LIG    1        4.748  -1.299   0.974  0.00  0.00    +0.005 A 
ATOM      6  C   LIG    1        6.132  -1.531   0.979  0.00  0.00    +0.033 A 
ATOM      7  C   LIG    1        6.750  -1.917   2.148  0.00  0.00    +0.034 A 
ATOM      8  C   LIG    1        6.010  -2.080   3.324  0.00  0.00    +0.025 A 
ATOM      9  C   LIG    1        4.668  -1.861   3.342  0.00  0.00    +0.030 A 
ATOM     10  C   LIG    1        4.005  -1.465   2.167  0.00  0.00    +0.073 A 
ATOM     11  N   LIG    1        2.685  -1.239   2.167  0.00  0.00    -0.232 NA
ENDROOT
BRANCH   7  12
ATOM     12  N   LIG    1        8.131  -2.150   2.159  0.00  0.00    -0.285 N 
ATOM     13  H   LIG    1        8.502  -2.837   2.735  0.00  0.00    +0.155 HD
ATOM     14  C   LIG    1        8.944  -1.419   1.371  0.00  0.00    +0.220 C 
ATOM     15  O   LIG    1        8.493  -0.498   0.723  0.00  0.00    -0.275 OA
BRANCH  14  16
ATOM     16  C   LIG    1       10.412  -1.748   1.293  0.00  0.00    +0.075 C 
ATOM     17  C   LIG    1       11.037  -1.623   2.684  0.00  0.00    +0.013 C 
ATOM     18  C   LIG    1       10.861  -0.192   3.195  0.00  0.00    +0.004 C 
ATOM     19  C   LIG    1       11.551   0.781   2.237  0.00  0.00    -0.014 C 
ATOM     20  C   LIG    1       11.374   2.212   2.749  0.00  0.00    +0.007 C 
ATOM     21  C   LIG    1       10.926   0.656   0.846  0.00  0.00    +0.004 C 
ATOM     22  C   LIG    1       11.102  -0.775   0.334  0.00  0.00    +0.013 C 
ENDBRANCH  14  16
ENDBRANCH   7  12
BRANCH   1  23
ATOM     23  N   LIG    1        0.685  -0.656   1.118  0.00  0.00    -0.316 N 
BRANCH  23  25
ATOM     24  C   LIG    1       -0.078   1.158  -0.334  0.00  0.00    +0.024 C 
ATOM     25  C   LIG    1       -0.052  -0.355  -0.112  0.00  0.00    +0.103 C 
ENDBRANCH  23  25
BRANCH  23  26
ATOM     26  C   LIG    1       -0.024  -0.727   2.398  0.00  0.00    +0.103 C 
ATOM     27  C   LIG    1       -0.502  -2.160   2.638  0.00  0.00    +0.024 C 
ENDBRANCH  23  26
ENDBRANCH   1  23
TORSDOF 5
