REMARK  Name = ZINC03995438
REMARK                            x       y       z     vdW  Elec       q    Type
REMARK                         _______ _______ _______ _____ _____    ______ ____
ROOT
ATOM      1  N   LIG    1       -1.413  -1.998   0.005  0.00  0.00    -0.276 N 
ATOM      2  C   LIG    1       -1.421  -2.664  -1.165  0.00  0.00    +0.334 A 
ATOM      3  O   LIG    1       -1.444  -2.034  -2.205  0.00  0.00    -0.246 OA
ATOM      4  N   LIG    1       -1.397  -4.007  -1.214  0.00  0.00    -0.259 N 
ATOM      5  C   LIG    1       -1.377  -4.743  -0.083  0.00  0.00    +0.282 A 
ATOM      6  O   LIG    1       -1.361  -5.960  -0.140  0.00  0.00    -0.265 OA
ATOM      7  C   LIG    1       -1.374  -4.088   1.167  0.00  0.00    +0.149 A 
ATOM      8  N   LIG    1       -1.356  -4.513   2.481  0.00  0.00    -0.332 N 
ATOM      9  C   LIG    1       -1.364  -3.394   3.256  0.00  0.00    +0.141 A 
ATOM     10  N   LIG    1       -1.385  -2.327   2.482  0.00  0.00    -0.210 NA
ATOM     11  H   LIG    1       -1.341  -5.432   2.791  0.00  0.00    +0.168 HD
ATOM     12  C   LIG    1       -1.393  -2.697   1.202  0.00  0.00    +0.169 A 
ENDROOT
BRANCH   9  13
ATOM     13  C   LIG    1       -1.351  -3.378   4.734  0.00  0.00    +0.017 A 
ATOM     14  C   LIG    1       -1.323  -4.578   5.448  0.00  0.00    +0.011 A 
ATOM     15  C   LIG    1       -1.310  -4.556   6.827  0.00  0.00    +0.001 A 
ATOM     16  C   LIG    1       -1.326  -3.349   7.503  0.00  0.00    +0.000 A 
ATOM     17  C   LIG    1       -1.354  -2.156   6.802  0.00  0.00    +0.001 A 
ATOM     18  C   LIG    1       -1.361  -2.164   5.423  0.00  0.00    +0.011 A 
ENDBRANCH   9  13
BRANCH   1  19
ATOM     19  C   LIG    1       -1.433  -0.534   0.013  0.00  0.00    +0.128 C 
BRANCH  19  21
ATOM     20  C   LIG    1       -0.019   1.526   0.010  0.00  0.00    +0.005 C 
ATOM     21  C   LIG    1        0.002  -0.004   0.002  0.00  0.00    +0.018 C 
ENDBRANCH  19  21
ENDBRANCH   1  19
BRANCH   4  22
ATOM     22  C   LIG    1       -1.400  -4.682  -2.514  0.00  0.00    +0.130 C 
BRANCH  22  23
ATOM     23  C   LIG    1       -2.843  -4.937  -2.953  0.00  0.00    +0.018 C 
ATOM     24  C   LIG    1       -2.846  -5.642  -4.311  0.00  0.00    +0.005 C 
ENDBRANCH  22  23
ENDBRANCH   4  22
TORSDOF 5
