REMARK  Name = ZINC04031202
REMARK                            x       y       z     vdW  Elec       q    Type
REMARK                         _______ _______ _______ _____ _____    ______ ____
ROOT
ATOM      1  C   LIG    1        2.222  -0.148  -2.639  0.00  0.00    +0.012 C 
ATOM      2  C   LIG    1        1.075   0.791  -3.005  0.00  0.00    -0.016 C 
ATOM      3  C   LIG    1        0.614   1.562  -1.794  0.00  0.00    +0.008 C 
ATOM      4  C   LIG    1       -0.107   0.605  -0.829  0.00  0.00    +0.005 C 
ATOM      5  C   LIG    1       -1.296  -0.059  -1.510  0.00  0.00    +0.002 C 
ATOM      6  C   LIG    1       -0.858  -0.852  -2.747  0.00  0.00    -0.003 C 
ATOM      7  C   LIG    1       -0.072  -2.089  -2.333  0.00  0.00    +0.008 C 
ATOM      8  C   LIG    1       -1.031  -3.032  -1.587  0.00  0.00    +0.032 C 
ATOM      9  C   LIG    1       -1.549  -2.281  -0.373  0.00  0.00    -0.060 C 
ATOM     10  C   LIG    1       -1.484  -2.901   0.804  0.00  0.00    +0.046 C 
ATOM     11  C   LIG    1       -2.020  -2.281   2.018  0.00  0.00    +0.156 C 
ATOM     12  C   LIG    1       -2.896  -1.058   1.853  0.00  0.00    +0.080 C 
ATOM     13  C   LIG    1       -2.279  -0.169   0.776  0.00  0.00    +0.019 C 
ATOM     14  O   LIG    1       -1.768  -2.732   3.120  0.00  0.00    -0.293 OA
ATOM     15  C   LIG    1       -2.116  -0.907  -0.545  0.00  0.00    -0.007 C 
ATOM     16  C   LIG    1       -3.520  -1.059  -1.147  0.00  0.00    +0.016 C 
ATOM     17  C   LIG    1        1.563   1.643  -4.196  0.00  0.00    +0.104 C 
ATOM     18  C   LIG    1        1.415   0.688  -5.411  0.00  0.00    +0.015 C 
ATOM     19  C   LIG    1        0.521  -0.494  -4.935  0.00  0.00    +0.005 C 
ATOM     20  C   LIG    1       -0.120   0.076  -3.664  0.00  0.00    -0.001 C 
ENDROOT
BRANCH  17  21
ATOM     21  C   LIG    1        3.004   2.022  -3.994  0.00  0.00    +0.308 C 
ATOM     22  O   LIG    1        3.400   2.326  -2.894  0.00  0.00    -0.251 OA
BRANCH  21  23
ATOM     23  O   LIG    1        3.850   2.021  -5.036  0.00  0.00    -0.480 OA
ATOM     24  H   LIG    1        3.543   1.785  -5.889  0.00  0.00    +0.295 HD
ENDBRANCH  21  23
ENDBRANCH  17  21
TORSDOF 2
