REMARK  Name = ZINC03978827
REMARK                            x       y       z     vdW  Elec       q    Type
REMARK                         _______ _______ _______ _____ _____    ______ ____
ROOT
ATOM      1  C   LIG    1       -2.250   1.740   1.597  0.00  0.00    +0.008 C 
ATOM      2  C   LIG    1       -2.363   0.215   1.618  0.00  0.00    -0.011 C 
ATOM      3  C   LIG    1       -3.775  -0.188   2.050  0.00  0.00    +0.004 C 
ATOM      4  C   LIG    1       -3.883  -1.711   2.024  0.00  0.00    +0.019 C 
ATOM      5  C   LIG    1       -2.871  -2.345   2.977  0.00  0.00    +0.074 C 
ATOM      6  C   LIG    1       -3.203  -1.992   4.422  0.00  0.00    +0.019 C 
ATOM      7  C   LIG    1       -2.291  -2.749   5.389  0.00  0.00    +0.012 C 
ATOM      8  C   LIG    1       -0.821  -2.448   5.131  0.00  0.00    -0.005 C 
ATOM      9  C   LIG    1       -0.540  -1.035   5.657  0.00  0.00    +0.016 C 
ATOM     10  C   LIG    1       -0.493  -2.462   3.666  0.00  0.00    -0.063 C 
ATOM     11  C   LIG    1        0.612  -2.975   3.189  0.00  0.00    -0.026 C 
ATOM     12  C   LIG    1        1.687  -3.615   4.017  0.00  0.00    +0.031 C 
ATOM     13  C   LIG    1        1.522  -3.208   5.482  0.00  0.00    +0.006 C 
ATOM     14  C   LIG    1        2.570  -3.893   6.361  0.00  0.00    -0.025 C 
ATOM     15  C   LIG    1        2.601  -5.398   6.122  0.00  0.00    +0.012 C 
ATOM     16  C   LIG    1        3.949  -3.325   5.979  0.00  0.00    +0.010 C 
ATOM     17  C   LIG    1        5.016  -3.922   6.891  0.00  0.00    +0.032 C 
ATOM     18  C   LIG    1        4.760  -3.521   8.337  0.00  0.00    +0.120 C 
ATOM     19  C   LIG    1        3.362  -3.922   8.810  0.00  0.00    -0.006 C 
ATOM     20  C   LIG    1        3.107  -3.135  10.120  0.00  0.00    +0.014 C 
ATOM     21  C   LIG    1        3.339  -5.406   9.172  0.00  0.00    +0.014 C 
ATOM     22  C   LIG    1        2.290  -3.541   7.816  0.00  0.00    +0.003 C 
ATOM     23  C   LIG    1        0.903  -4.049   8.206  0.00  0.00    +0.005 C 
ATOM     24  C   LIG    1       -0.126  -3.234   7.407  0.00  0.00    +0.008 C 
ATOM     25  C   LIG    1        0.077  -3.424   5.910  0.00  0.00    -0.019 C 
ATOM     26  C   LIG    1       -0.372  -4.847   5.537  0.00  0.00    +0.012 C 
ATOM     27  C   LIG    1       -1.454  -1.877   2.650  0.00  0.00    +0.035 C 
ATOM     28  C   LIG    1       -1.363  -0.356   2.631  0.00  0.00    -0.003 C 
ATOM     29  C   LIG    1        0.047   0.083   2.226  0.00  0.00    +0.008 C 
ENDROOT
BRANCH   5  30
ATOM     30  C   LIG    1       -2.945  -3.844   2.790  0.00  0.00    +0.312 C 
ATOM     31  O   LIG    1       -3.724  -4.320   1.982  0.00  0.00    -0.250 OA
BRANCH  30  32
ATOM     32  O   LIG    1       -2.224  -4.577   3.446  0.00  0.00    -0.480 OA
ATOM     33  H   LIG    1       -1.625  -4.211   4.067  0.00  0.00    +0.295 HD
ENDBRANCH  30  32
ENDBRANCH   5  30
BRANCH  18  34
ATOM     34  O   LIG    1        5.735  -4.146   9.181  0.00  0.00    -0.391 OA
ATOM     35  H   LIG    1        6.648  -3.904   8.973  0.00  0.00    +0.210 HD
ENDBRANCH  18  34
TORSDOF 3
