REMARK  Name = ZINC04081043
REMARK                            x       y       z     vdW  Elec       q    Type
REMARK                         _______ _______ _______ _____ _____    ______ ____
ROOT
ATOM      1  C   LIG    1       -1.288  -0.770   0.021  0.00  0.00    +0.061 C 
ATOM      2  C   LIG    1       -1.790  -0.974  -1.431  0.00  0.00    +0.012 C 
ATOM      3  C   LIG    1       -1.927  -2.508  -1.635  0.00  0.00    +0.005 C 
ATOM      4  C   LIG    1       -2.107  -3.030  -0.205  0.00  0.00    -0.001 C 
ATOM      5  C   LIG    1       -1.761  -4.490   0.016  0.00  0.00    -0.004 C 
ATOM      6  C   LIG    1       -2.704  -5.388  -0.786  0.00  0.00    +0.004 C 
ATOM      7  C   LIG    1       -2.371  -6.855  -0.507  0.00  0.00    +0.004 C 
ATOM      8  C   LIG    1       -2.542  -7.143   0.986  0.00  0.00    -0.002 C 
ATOM      9  C   LIG    1       -1.571  -6.230   1.807  0.00  0.00    -0.026 C 
ATOM     10  C   LIG    1       -0.118  -6.487   1.405  0.00  0.00    +0.012 C 
ATOM     11  C   LIG    1       -1.748  -6.517   3.300  0.00  0.00    +0.010 C 
ATOM     12  C   LIG    1       -1.397  -7.978   3.585  0.00  0.00    +0.032 C 
ATOM     13  C   LIG    1       -2.322  -8.892   2.777  0.00  0.00    +0.115 C 
ATOM     14  C   LIG    1       -2.208  -8.609   1.265  0.00  0.00    +0.035 C 
ATOM     15  C   LIG    1       -1.929  -4.770   1.524  0.00  0.00    -0.001 C 
ATOM     16  C   LIG    1       -1.070  -3.846   2.381  0.00  0.00    +0.005 C 
ATOM     17  C   LIG    1       -1.342  -2.368   2.055  0.00  0.00    +0.008 C 
ATOM     18  C   LIG    1       -1.071  -2.174   0.576  0.00  0.00    -0.019 C 
ATOM     19  C   LIG    1        0.345  -2.648   0.243  0.00  0.00    +0.012 C 
ENDROOT
BRANCH   1  21
ATOM     20  C   LIG    1        0.430   0.760   1.252  0.00  0.00    +0.086 C 
ATOM     21  C   LIG    1        0.008  -0.002   0.023  0.00  0.00    +0.134 C 
ATOM     22  O   LIG    1        0.708   0.004  -0.961  0.00  0.00    -0.297 OA
ENDBRANCH   1  21
BRANCH  13  23
ATOM     23  O   LIG    1       -3.679  -8.646   3.150  0.00  0.00    -0.392 OA
ATOM     24  H   LIG    1       -3.865  -8.807   4.086  0.00  0.00    +0.210 HD
ENDBRANCH  13  23
TORSDOF 2
