REMARK  Name = ZINC03873371
REMARK                            x       y       z     vdW  Elec       q    Type
REMARK                         _______ _______ _______ _____ _____    ______ ____
ROOT
ATOM      1  C   LIG    1       -3.156  -1.967  -1.424  0.00  0.00    +0.098 C 
ENDROOT
BRANCH   1   2
ATOM      2  C   LIG    1       -3.417  -2.635  -2.749  0.00  0.00    -0.014 A 
ATOM      3  C   LIG    1       -3.138  -1.968  -3.927  0.00  0.00    +0.007 A 
ATOM      4  C   LIG    1       -3.377  -2.580  -5.143  0.00  0.00    +0.020 A 
ATOM      5  C   LIG    1       -3.896  -3.862  -5.181  0.00  0.00    +0.042 A 
ATOM      6 CL   LIG    1       -4.197  -4.631  -6.708  0.00  0.00    -0.083 Cl
ATOM      7  C   LIG    1       -4.175  -4.531  -4.003  0.00  0.00    +0.040 A 
ATOM      8  C   LIG    1       -3.931  -3.919  -2.786  0.00  0.00    +0.047 A 
ATOM      9 CL   LIG    1       -4.276  -4.760  -1.307  0.00  0.00    -0.083 Cl
ENDBRANCH   1   2
BRANCH   1  10
ATOM     10  S   LIG    1       -1.870  -0.703  -1.627  0.00  0.00    -0.146 S 
BRANCH  10  11
ATOM     11  C   LIG    1       -1.522  -0.154   0.066  0.00  0.00    +0.104 C 
BRANCH  11  18
ATOM     12  C   LIG    1       -0.614   2.173  -0.090  0.00  0.00    +0.006 A 
ATOM     13  C   LIG    1        0.441   3.066  -0.102  0.00  0.00    +0.020 A 
ATOM     14  C   LIG    1        1.739   2.605   0.028  0.00  0.00    +0.041 A 
ATOM     15 CL   LIG    1        3.064   3.727   0.013  0.00  0.00    -0.084 Cl
ATOM     16  C   LIG    1        1.980   1.250   0.171  0.00  0.00    +0.020 A 
ATOM     17  C   LIG    1        0.925   0.358   0.183  0.00  0.00    +0.006 A 
ATOM     18  C   LIG    1       -0.372   0.819   0.052  0.00  0.00    -0.037 A 
ENDBRANCH  11  18
ENDBRANCH  10  11
ENDBRANCH   1  10
BRANCH   1  19
ATOM     19  C   LIG    1       -4.442  -1.309  -0.922  0.00  0.00    +0.141 C 
BRANCH  19  20
ATOM     20  N   LIG    1       -4.912  -0.337  -1.913  0.00  0.00    -0.337 N 
ATOM     21  C   LIG    1       -4.512   0.968  -2.024  0.00  0.00    +0.104 A 
ATOM     22  C   LIG    1       -5.189   1.496  -3.062  0.00  0.00    +0.101 A 
ATOM     23  N   LIG    1       -5.981   0.540  -3.570  0.00  0.00    -0.352 N 
ATOM     24  H   LIG    1       -6.578   0.649  -4.326  0.00  0.00    +0.166 HD
ATOM     25  C   LIG    1       -5.816  -0.562  -2.890  0.00  0.00    +0.173 A 
ENDBRANCH  19  20
ENDBRANCH   1  19
TORSDOF 6
