REMARK  Name = ZINC03930111
REMARK                            x       y       z     vdW  Elec       q    Type
REMARK                         _______ _______ _______ _____ _____    ______ ____
ROOT
ATOM      1  CA  LEU A  1       -0.455  -4.117  -3.174  0.00  0.00    +0.159 C 
ENDROOT
BRANCH   1   3
ATOM      2  C   UNK A  0       -1.571  -2.402  -1.850  0.00  0.00    +0.218 C 
ATOM      3  N   LEU A  1       -1.230  -3.697  -2.004  0.00  0.00    -0.304 N 
ATOM      4  H   LEU A  1       -1.534  -4.439  -1.251  0.00  0.00    +0.149 HD
ATOM      5  O   UNK A  0       -1.315  -1.600  -2.723  0.00  0.00    -0.275 OA
BRANCH   2   6
ATOM      6  C   UNK A  0       -2.269  -1.951  -0.593  0.00  0.00    +0.130 C 
BRANCH   6  10
ATOM      7  C   UNK A  0       -3.027   2.249  -0.814  0.00  0.00    +0.035 A 
ATOM      8  C   UNK A  0       -3.968   1.347  -1.291  0.00  0.00    +0.023 A 
ATOM      9  C   UNK A  0       -3.720  -0.010  -1.218  0.00  0.00    +0.006 A 
ATOM     10  C   UNK A  0       -2.536  -0.470  -0.671  0.00  0.00    -0.039 A 
ATOM     11  C   UNK A  0       -1.597   0.426  -0.195  0.00  0.00    +0.006 A 
ATOM     12  C   UNK A  0       -1.839   1.784  -0.264  0.00  0.00    +0.023 A 
BRANCH   7  16
ATOM     13  N   UNK A  0       -3.169   5.748   0.078  0.00  0.00    -0.269 N 
ATOM     14  H   UNK A  0       -3.849   6.135  -0.695  0.00  0.00    +0.156 HD
ATOM     15  C   UNK A  0       -2.845   4.440   0.097  0.00  0.00    +0.308 C 
ATOM     16  N   UNK A  0       -3.275   3.625  -0.887  0.00  0.00    -0.269 N 
ATOM     17  H   UNK A  0       -3.820   4.040  -1.746  0.00  0.00    +0.156 HD
ATOM     18  O   UNK A  0       -2.165   3.995   1.002  0.00  0.00    -0.252 OA
BRANCH  13  25
ATOM     19  C   UNK A  0       -2.692   8.453  -0.664  0.00  0.00    +0.045 C 
ATOM     20  C   UNK A  0       -2.391   7.942   0.721  0.00  0.00    -0.029 A 
ATOM     21  C   UNK A  0       -1.869   8.795   1.674  0.00  0.00    +0.005 A 
ATOM     22  C   UNK A  0       -1.593   8.327   2.946  0.00  0.00    +0.000 A 
ATOM     23  C   UNK A  0       -1.839   7.004   3.268  0.00  0.00    +0.002 A 
ATOM     24  C   UNK A  0       -2.366   6.148   2.321  0.00  0.00    +0.023 A 
ATOM     25  C   UNK A  0       -2.639   6.614   1.041  0.00  0.00    +0.038 A 
ENDBRANCH  13  25
ENDBRANCH   7  16
ENDBRANCH   6  10
ENDBRANCH   2   6
ENDBRANCH   1   3
BRANCH   1  26
ATOM     26  C   LEU A  1       -0.767  -5.556  -3.494  0.00  0.00    +0.234 C 
ATOM     27  N   ASP A  2       -0.576  -6.025  -4.743  0.00  0.00    -0.302 N 
ATOM     28  H   ASP A  2       -0.108  -5.385  -5.505  0.00  0.00    +0.150 HD
ATOM     29  O   LEU A  1       -1.189  -6.292  -2.627  0.00  0.00    -0.274 OA
BRANCH  27  30
ATOM     30  CA  ASP A  2       -0.993  -7.388  -5.085  0.00  0.00    +0.169 C 
BRANCH  30  31
ATOM     31  C   ASP A  2        0.082  -8.360  -4.670  0.00  0.00    +0.234 C 
ATOM     32  N   VAL A  3       -0.084  -9.680  -4.887  0.00  0.00    -0.302 N 
ATOM     33  H   VAL A  3       -1.003 -10.047  -5.367  0.00  0.00    +0.150 HD
ATOM     34  O   ASP A  2        1.095  -7.955  -4.141  0.00  0.00    -0.274 OA
BRANCH  32  35
ATOM     35  CA  VAL A  3        0.961 -10.625  -4.484  0.00  0.00    +0.162 C 
BRANCH  35  36
ATOM     36  C   VAL A  3        0.865 -11.869  -5.329  0.00  0.00    +0.237 C 
ATOM     37  N   PRO A  4        1.986 -12.513  -5.710  0.00  0.00    -0.286 N 
ATOM     38  CD  PRO A  4        3.365 -12.058  -5.459  0.00  0.00    +0.109 C 
ATOM     39  CG  PRO A  4        4.214 -12.736  -6.563  0.00  0.00    +0.021 C 
ATOM     40  CB  PRO A  4        3.524 -14.121  -6.680  0.00  0.00    +0.035 C 
ATOM     41  CA  PRO A  4        2.036 -13.789  -6.439  0.00  0.00    +0.184 C 
ATOM     42  O   VAL A  3       -0.221 -12.291  -5.666  0.00  0.00    -0.274 OA
BRANCH  41  43
ATOM     43  C   PRO A  4        1.393 -14.875  -5.616  0.00  0.00    +0.325 C 
ATOM     44  O   PRO A  4        0.935 -14.617  -4.527  0.00  0.00    -0.249 OA
BRANCH  43  45
ATOM     45  OXT PRO A  4        1.327 -16.128  -6.092  0.00  0.00    -0.479 OA
ATOM     46  HXT PRO A  4        1.682 -16.328  -6.936  0.00  0.00    +0.295 HD
ENDBRANCH  43  45
ENDBRANCH  41  43
ENDBRANCH  35  36
BRANCH  35  47
ATOM     47  CB  VAL A  3        0.774 -10.993  -3.011  0.00  0.00    +0.012 C 
ATOM     48  CG2 VAL A  3        0.918  -9.737  -2.149  0.00  0.00    +0.009 C 
ATOM     49  CG1 VAL A  3        1.836 -12.016  -2.603  0.00  0.00    +0.009 C 
ENDBRANCH  35  47
ENDBRANCH  32  35
ENDBRANCH  30  31
BRANCH  30  50
ATOM     50  CB  ASP A  2       -1.217  -7.489  -6.595  0.00  0.00    +0.152 C 
BRANCH  50  51
ATOM     51  CG  ASP A  2       -2.382  -6.618  -6.989  0.00  0.00    +0.307 C 
ATOM     52  OD1 ASP A  2       -3.036  -6.062  -6.138  0.00  0.00    -0.251 OA
BRANCH  51  53
ATOM     53  OD2 ASP A  2       -2.693  -6.460  -8.285  0.00  0.00    -0.481 OA
ATOM     54  HD2 ASP A  2       -2.186  -6.891  -8.945  0.00  0.00    +0.295 HD
ENDBRANCH  51  53
ENDBRANCH  50  51
ENDBRANCH  30  50
ENDBRANCH  27  30
ENDBRANCH   1  26
BRANCH   1  55
ATOM     55  CB  LEU A  1        1.039  -3.973  -2.875  0.00  0.00    +0.034 C 
BRANCH  55  56
ATOM     56  CG  LEU A  1        1.848  -4.390  -4.105  0.00  0.00    -0.015 C 
ATOM     57  CD2 LEU A  1        3.336  -4.424  -3.749  0.00  0.00    +0.007 C 
ATOM     58  CD1 LEU A  1        1.616  -3.384  -5.233  0.00  0.00    +0.007 C 
ENDBRANCH  55  56
ENDBRANCH   1  55
TORSDOF 18
