REMARK  Name = ZINC04016162
REMARK                            x       y       z     vdW  Elec       q    Type
REMARK                         _______ _______ _______ _____ _____    ______ ____
ROOT
ATOM      1  C   LIG    1        0.605  -0.606  -1.053  0.00  0.00    +0.132 A 
ATOM      2  C   LIG    1        1.176   0.164  -2.068  0.00  0.00    +0.050 A 
ATOM      3  C   LIG    1        1.791  -0.438  -3.142  0.00  0.00    +0.050 A 
ATOM      4  C   LIG    1        1.855  -1.829  -3.236  0.00  0.00    +0.132 A 
ATOM      5  C   LIG    1        1.289  -2.613  -2.234  0.00  0.00    +0.078 A 
ATOM      6  C   LIG    1        1.333  -4.089  -2.294  0.00  0.00    +0.198 C 
ATOM      7  O   LIG    1        1.443  -4.672  -3.355  0.00  0.00    -0.286 OA
ATOM      8  C   LIG    1        1.252  -4.832  -1.008  0.00  0.00    +0.033 A 
ATOM      9  C   LIG    1        1.774  -6.111  -0.877  0.00  0.00    +0.012 A 
ATOM     10  C   LIG    1        1.668  -6.772   0.336  0.00  0.00    +0.001 A 
ATOM     11  C   LIG    1        1.048  -6.168   1.414  0.00  0.00    +0.001 A 
ATOM     12  C   LIG    1        0.522  -4.891   1.299  0.00  0.00    +0.012 A 
ATOM     13  C   LIG    1        0.620  -4.215   0.091  0.00  0.00    +0.033 A 
ATOM     14  C   LIG    1        0.071  -2.848  -0.076  0.00  0.00    +0.198 C 
ATOM     15  O   LIG    1       -0.833  -2.443   0.629  0.00  0.00    -0.286 OA
ATOM     16  C   LIG    1        0.661  -1.995  -1.128  0.00  0.00    +0.078 A 
ENDROOT
BRANCH   1  18
ATOM     17  C   LIG    1       -0.017   1.425   0.010  0.00  0.00    +0.277 C 
ATOM     18  O   LIG    1        0.002  -0.004   0.002  0.00  0.00    -0.494 OA
ENDBRANCH   1  18
BRANCH   4  19
ATOM     19  O   LIG    1        2.464  -2.414  -4.297  0.00  0.00    -0.494 OA
ATOM     20  C   LIG    1        3.020  -1.544  -5.285  0.00  0.00    +0.277 C 
ENDBRANCH   4  19
TORSDOF 2
