REMARK  Name = ZINC04095696
REMARK                            x       y       z     vdW  Elec       q    Type
REMARK                         _______ _______ _______ _____ _____    ______ ____
ROOT
ATOM      1  C   UNK A  1        2.692   0.337   4.270  0.00  0.00    +0.114 C 
ATOM      2  C   UNK A  1        3.278  -0.273   5.306  0.00  0.00    +0.003 C 
ENDROOT
BRANCH   1   4
ATOM      3  C   UNK A  0        2.603  -0.261   1.966  0.00  0.00    +0.221 C 
ATOM      4  N   UNK A  1        2.148  -0.423   3.225  0.00  0.00    -0.280 N 
ATOM      5  H   UNK A  1        1.446  -1.066   3.407  0.00  0.00    +0.155 HD
ATOM      6  O   UNK A  0        3.417   0.605   1.722  0.00  0.00    -0.275 OA
BRANCH   3  11
ATOM      7  C   UNK A  0        3.677   0.203  -0.723  0.00  0.00    +0.011 C 
ATOM      8  C   UNK A  0        2.655  -0.921  -0.544  0.00  0.00    -0.023 C 
ATOM      9  C   UNK A  0        2.861  -2.147  -1.436  0.00  0.00    +0.011 C 
ATOM     10  C   UNK A  0        1.216  -0.522  -0.213  0.00  0.00    +0.020 C 
ATOM     11  C   UNK A  0        2.101  -1.156   0.862  0.00  0.00    +0.081 C 
ENDBRANCH   3  11
ENDBRANCH   1   4
BRANCH   1  12
ATOM     12  C   UNK A  1        2.617   1.806   4.227  0.00  0.00    +0.351 C 
ATOM     13  O   UNK A  1        3.018   2.467   5.175  0.00  0.00    -0.244 OA
BRANCH  12  14
ATOM     14  O   UNK A  1        2.154   2.367   3.243  0.00  0.00    -0.476 OA
ATOM     15  H   UNK A  1        1.847   1.861   2.516  0.00  0.00    +0.295 HD
ENDBRANCH  12  14
ENDBRANCH   1  12
BRANCH   2  16
ATOM     16  C   UNK A  1        3.458  -1.769   5.296  0.00  0.00    +0.029 C 
BRANCH  16  17
ATOM     17  C   UNK A  1        4.933  -2.106   5.522  0.00  0.00    +0.005 C 
BRANCH  17  18
ATOM     18  C   UNK A  1        5.117  -3.625   5.512  0.00  0.00    +0.011 C 
BRANCH  18  19
ATOM     19  C   UNK A  1        6.591  -3.962   5.739  0.00  0.00    +0.069 C 
BRANCH  19  20
ATOM     20  S   UNK A  1        6.809  -5.763   5.727  0.00  0.00    -0.162 S 
BRANCH  20  21
ATOM     21  C   UNK A  1        8.587  -5.993   6.005  0.00  0.00    +0.064 C 
BRANCH  21  22
ATOM     22  C   UNK A  1        8.912  -7.488   6.018  0.00  0.00    +0.046 C 
BRANCH  22  23
ATOM     23  N   UNK A  1        8.159  -8.143   7.096  0.00  0.00    +0.387 N 
ATOM     24  H   UNK A  1        8.374  -9.129   7.105  0.00  0.00    -0.089 HD
ATOM     25  H   UNK A  1        7.170  -8.016   6.941  0.00  0.00    -0.089 HD
ATOM     26  H   UNK A  1        8.416  -7.735   7.982  0.00  0.00    -0.089 HD
ENDBRANCH  22  23
BRANCH  22  27
ATOM     27  C   UNK A  1       10.389  -7.678   6.249  0.00  0.00    +0.291 C 
ATOM     28  O   UNK A  1       10.820  -7.782   7.385  0.00  0.00    -0.253 OA
BRANCH  27  29
ATOM     29  O   UNK A  1       11.153  -7.728   5.300  0.00  0.00    -0.482 OA
ATOM     30  H   UNK A  1       10.822  -7.648   4.427  0.00  0.00    +0.295 HD
ENDBRANCH  27  29
ENDBRANCH  22  27
ENDBRANCH  21  22
ENDBRANCH  20  21
ENDBRANCH  19  20
ENDBRANCH  18  19
ENDBRANCH  17  18
ENDBRANCH  16  17
ENDBRANCH   2  16
TORSDOF 14
