REMARK  Name = ZINC03897191
REMARK                            x       y       z     vdW  Elec       q    Type
REMARK                         _______ _______ _______ _____ _____    ______ ____
ROOT
ATOM      1  C   LIG    1       -2.448   0.190   1.665  0.00  0.00    +0.012 C 
ATOM      2  C   LIG    1       -1.123   0.918   1.390  0.00  0.00    -0.026 C 
ATOM      3  C   LIG    1       -0.471   0.343   0.140  0.00  0.00    +0.010 C 
ATOM      4  C   LIG    1       -1.344   0.591  -1.090  0.00  0.00    +0.032 C 
ATOM      5  C   LIG    1       -1.577   2.091  -1.265  0.00  0.00    +0.115 C 
ATOM      6  C   LIG    1       -2.266   2.657  -0.024  0.00  0.00    +0.035 C 
ATOM      7  C   LIG    1       -0.211   0.732   2.609  0.00  0.00    +0.001 C 
ATOM      8  C   LIG    1        0.104  -0.721   2.912  0.00  0.00    +0.005 C 
ATOM      9  C   LIG    1        0.887  -0.866   4.231  0.00  0.00    +0.010 C 
ATOM     10  C   LIG    1        1.620   0.400   4.580  0.00  0.00    +0.004 C 
ATOM     11  C   LIG    1        0.688   1.334   5.377  0.00  0.00    +0.014 C 
ATOM     12  C   LIG    1        2.167   1.099   3.320  0.00  0.00    +0.075 C 
ATOM     13  C   LIG    1        3.013   2.230   3.929  0.00  0.00    +0.036 C 
ATOM     14  C   LIG    1        3.708   1.536   5.131  0.00  0.00    +0.011 C 
ATOM     15  C   LIG    1        2.879   0.267   5.453  0.00  0.00    +0.027 C 
ATOM     16  C   LIG    1        1.083   1.512   2.373  0.00  0.00    +0.025 C 
ATOM     17  C   LIG    1        0.759   3.001   2.350  0.00  0.00    +0.007 C 
ATOM     18  C   LIG    1       -0.133   3.240   1.122  0.00  0.00    +0.004 C 
ATOM     19  C   LIG    1       -1.410   2.411   1.218  0.00  0.00    -0.002 C 
ENDROOT
BRANCH  15  20
ATOM     20  C   LIG    1        3.678  -0.979   5.170  0.00  0.00    -0.022 C 
ATOM     21  C   LIG    1        4.775  -1.064   4.422  0.00  0.00    +0.094 C 
ATOM     22  C   LIG    1        5.247  -2.451   4.401  0.00  0.00    +0.332 C 
ATOM     23  O   LIG    1        4.428  -3.226   5.136  0.00  0.00    -0.457 OA
ATOM     24  O   LIG    1        6.231  -2.844   3.805  0.00  0.00    -0.246 OA
ATOM     25  C   LIG    1        3.381  -2.372   5.676  0.00  0.00    +0.264 C 
ENDBRANCH  15  20
BRANCH   5  26
ATOM     26  O   LIG    1       -2.407   2.311  -2.409  0.00  0.00    -0.392 OA
ATOM     27  H   LIG    1       -2.031   1.982  -3.237  0.00  0.00    +0.210 HD
ENDBRANCH   5  26
BRANCH  12  28
ATOM     28  O   LIG    1        3.059   0.210   2.612  0.00  0.00    -0.388 OA
ATOM     29  H   LIG    1        3.467   0.605   1.829  0.00  0.00    +0.210 HD
ENDBRANCH  12  28
TORSDOF 3
