REMARK  Name = ZINC03991715
REMARK                            x       y       z     vdW  Elec       q    Type
REMARK                         _______ _______ _______ _____ _____    ______ ____
ROOT
ATOM      1  C   LIG    1        4.026   4.354   2.808  0.00  0.00    +0.121 A 
ATOM      2  C   LIG    1        3.535   5.514   2.226  0.00  0.00    +0.046 A 
ATOM      3  C   LIG    1        4.394   6.555   1.931  0.00  0.00    +0.007 A 
ATOM      4  C   LIG    1        5.744   6.437   2.205  0.00  0.00    -0.043 A 
ATOM      5  C   LIG    1        6.237   5.280   2.779  0.00  0.00    +0.007 A 
ATOM      6  C   LIG    1        5.381   4.239   3.081  0.00  0.00    +0.046 A 
ENDROOT
BRANCH   1   7
ATOM      7  O   LIG    1        3.182   3.331   3.104  0.00  0.00    -0.492 OA
BRANCH   7   8
ATOM      8  C   LIG    1        1.800   3.520   2.795  0.00  0.00    +0.235 C 
BRANCH   8   9
ATOM      9  C   LIG    1        1.012   2.272   3.196  0.00  0.00    +0.100 C 
BRANCH   9  12
ATOM     10  C   LIG    1       -0.391   1.538   0.502  0.00  0.00    +0.088 C 
ATOM     11  C   LIG    1       -1.048   2.155   1.710  0.00  0.00    +0.126 A 
ATOM     12  C   LIG    1       -0.446   2.471   2.870  0.00  0.00    +0.086 A 
ATOM     13  N   LIG    1       -1.373   2.996   3.686  0.00  0.00    -0.213 NA
ATOM     14  C   LIG    1       -2.527   3.010   3.056  0.00  0.00    +0.234 A 
ATOM     15  O   LIG    1       -2.348   2.498   1.825  0.00  0.00    -0.440 OA
BRANCH  14  16
ATOM     16  C   LIG    1       -3.799   3.508   3.602  0.00  0.00    +0.074 A 
ATOM     17  C   LIG    1       -5.045   3.555   3.005  0.00  0.00    +0.021 A 
ATOM     18  C   LIG    1       -6.096   4.071   3.726  0.00  0.00    +0.008 A 
ATOM     19  C   LIG    1       -5.881   4.515   4.992  0.00  0.00    +0.046 A 
ATOM     20  S   LIG    1       -4.137   4.202   5.212  0.00  0.00    -0.092 S 
ENDBRANCH  14  16
ENDBRANCH   9  12
ENDBRANCH   8   9
ENDBRANCH   7   8
ENDBRANCH   1   7
BRANCH   4  21
ATOM     21  C   LIG    1        6.680   7.572   1.877  0.00  0.00    +0.094 C 
BRANCH  21  22
ATOM     22  C   LIG    1        7.214   7.398   0.454  0.00  0.00    +0.207 C 
ATOM     23  C   LIG    1        8.258   8.478   0.165  0.00  0.00    +0.068 C 
BRANCH  22  24
ATOM     24  C   LIG    1        7.848   6.037   0.318  0.00  0.00    +0.349 C 
ATOM     25  O   LIG    1        9.039   5.908   0.472  0.00  0.00    -0.246 OA
BRANCH  24  26
ATOM     26  O   LIG    1        7.089   4.969   0.027  0.00  0.00    -0.478 OA
ATOM     27  H   LIG    1        6.165   5.069  -0.092  0.00  0.00    +0.295 HD
ENDBRANCH  24  26
ENDBRANCH  22  24
BRANCH  22  28
ATOM     28  O   LIG    1        6.136   7.515  -0.477  0.00  0.00    -0.474 OA
BRANCH  28  29
ATOM     29  C   LIG    1        6.436   7.352  -1.792  0.00  0.00    +0.122 A 
ATOM     30  C   LIG    1        7.716   6.976  -2.171  0.00  0.00    +0.046 A 
ATOM     31  C   LIG    1        8.017   6.805  -3.509  0.00  0.00    +0.004 A 
ATOM     32  C   LIG    1        7.046   7.020  -4.470  0.00  0.00    +0.000 A 
ATOM     33  C   LIG    1        5.771   7.402  -4.095  0.00  0.00    +0.004 A 
ATOM     34  C   LIG    1        5.464   7.568  -2.759  0.00  0.00    +0.046 A 
ENDBRANCH  28  29
ENDBRANCH  22  28
ENDBRANCH  21  22
ENDBRANCH   4  21
TORSDOF 11
