REMARK  Name = ZINC04014141
REMARK                            x       y       z     vdW  Elec       q    Type
REMARK                         _______ _______ _______ _____ _____    ______ ____
ROOT
ATOM      1  N   LIG    1        2.403   1.104  -0.014  0.00  0.00    -0.278 N 
ATOM      2  H   LIG    1        3.202   1.535   0.329  0.00  0.00    +0.155 HD
ATOM      3  C   LIG    1        2.472  -0.145  -0.514  0.00  0.00    +0.252 C 
ATOM      4  O   LIG    1        1.494  -0.647  -1.035  0.00  0.00    -0.270 OA
ENDROOT
BRANCH   3   5
ATOM      5  C   LIG    1        3.734  -0.905  -0.429  0.00  0.00    +0.080 A 
ATOM      6  C   LIG    1        4.861  -0.330   0.164  0.00  0.00    +0.036 A 
ATOM      7  C   LIG    1        6.036  -1.047   0.245  0.00  0.00    +0.042 A 
ATOM      8 CL   LIG    1        7.434  -0.335   0.988  0.00  0.00    -0.084 Cl
ATOM      9  C   LIG    1        6.107  -2.333  -0.270  0.00  0.00    +0.023 A 
ATOM     10  C   LIG    1        5.002  -2.910  -0.863  0.00  0.00    +0.047 A 
ATOM     11  C   LIG    1        3.810  -2.204  -0.947  0.00  0.00    +0.129 A 
BRANCH  11  12
ATOM     12  O   LIG    1        2.724  -2.770  -1.530  0.00  0.00    -0.506 OA
ATOM     13  H   LIG    1        2.658  -2.608  -2.481  0.00  0.00    +0.292 HD
ENDBRANCH  11  12
ENDBRANCH   3   5
BRANCH   1  19
ATOM     14  C   LIG    1        1.149   3.175   0.021  0.00  0.00    +0.143 A 
ATOM     15  C   LIG    1       -0.067   3.839   0.046  0.00  0.00    +0.080 A 
ATOM     16  C   LIG    1       -1.248   3.120   0.060  0.00  0.00    +0.125 A 
ATOM     17  C   LIG    1       -1.220   1.738   0.045  0.00  0.00    +0.034 A 
ATOM     18  C   LIG    1       -0.012   1.067   0.025  0.00  0.00    +0.029 A 
ATOM     19  C   LIG    1        1.177   1.782   0.011  0.00  0.00    +0.076 A 
BRANCH  14  21
ATOM     20  C   LIG    1        2.205   5.305   0.020  0.00  0.00    +0.277 C 
ATOM     21  O   LIG    1        2.311   3.880   0.008  0.00  0.00    -0.493 OA
ENDBRANCH  14  21
BRANCH  16  22
ATOM     22  N   LIG    1       -2.545   3.833   0.086  0.00  0.00    +0.006 N 
ATOM     23  O   LIG    1       -2.571   5.051   0.095  0.00  0.00    -0.130 OA
BRANCH  22  24
ATOM     24  O   LIG    1       -3.586   3.202   0.098  0.00  0.00    -0.396 OA
ATOM     25  H   LIG    1       -3.566   2.265   0.091  0.00  0.00    +0.329 HD
ENDBRANCH  22  24
ENDBRANCH  16  22
ENDBRANCH   1  19
TORSDOF 6
