REMARK  Name = ZINC03976110
REMARK                            x       y       z     vdW  Elec       q    Type
REMARK                         _______ _______ _______ _____ _____    ______ ____
ROOT
ATOM      1  C   LIG    1        0.136  -2.145   1.202  0.00  0.00    +0.007 A 
ATOM      2  C   LIG    1        0.122  -2.812  -0.009  0.00  0.00    +0.046 A 
ATOM      3  C   LIG    1        0.029  -2.098  -1.195  0.00  0.00    +0.132 A 
ATOM      4  C   LIG    1       -0.056  -0.714  -1.165  0.00  0.00    +0.094 A 
ATOM      5  C   LIG    1       -0.036  -0.047   0.050  0.00  0.00    +0.160 A 
ATOM      6  C   LIG    1        0.058  -0.766   1.234  0.00  0.00    +0.049 A 
ENDROOT
BRANCH   3   7
ATOM      7  O   LIG    1        0.014  -2.754  -2.385  0.00  0.00    -0.456 OA
BRANCH   7   8
ATOM      8  C   LIG    1       -1.067  -3.525  -2.674  0.00  0.00    +0.132 A 
ATOM      9  C   LIG    1       -2.166  -3.523  -1.829  0.00  0.00    +0.046 A 
ATOM     10  C   LIG    1       -3.264  -4.307  -2.126  0.00  0.00    +0.004 A 
ATOM     11  C   LIG    1       -3.265  -5.092  -3.263  0.00  0.00    +0.004 A 
ATOM     12  C   LIG    1       -2.169  -5.098  -4.110  0.00  0.00    -0.040 A 
ATOM     13  C   LIG    1       -1.929  -5.859  -5.396  0.00  0.00    +0.041 C 
ATOM     14  C   LIG    1       -0.404  -5.794  -5.625  0.00  0.00    +0.023 C 
ATOM     15  C   LIG    1       -0.013  -4.495  -4.888  0.00  0.00    +0.045 C 
ATOM     16  C   LIG    1       -1.071  -4.311  -3.821  0.00  0.00    -0.002 A 
BRANCH  14  17
ATOM     17  C   LIG    1       -0.082  -5.695  -7.117  0.00  0.00    +0.160 C 
BRANCH  17  18
ATOM     18  O   LIG    1       -0.466  -6.907  -7.769  0.00  0.00    -0.395 OA
ATOM     19  H   LIG    1       -0.290  -6.915  -8.720  0.00  0.00    +0.209 HD
ENDBRANCH  17  18
ENDBRANCH  14  17
ENDBRANCH   7   8
ENDBRANCH   3   7
BRANCH   5  20
ATOM     20  O   LIG    1       -0.114   1.309   0.083  0.00  0.00    -0.346 OA
BRANCH  20  21
ATOM     21  S   LIG    1        1.237   2.009   0.037  0.00  0.00    +0.121 S 
ATOM     22  O   LIG    1        2.074   1.235   0.886  0.00  0.00    -0.137 OA
ATOM     23  O   LIG    1        0.953   3.367   0.342  0.00  0.00    -0.137 OA
BRANCH  21  24
ATOM     24  C   LIG    1        1.783   1.856  -1.686  0.00  0.00    +0.211 C 
BRANCH  24  25
ATOM     25  C   LIG    1        3.146   2.531  -1.851  0.00  0.00    +0.035 C 
BRANCH  25  26
ATOM     26  C   LIG    1        3.607   2.402  -3.304  0.00  0.00    +0.115 C 
BRANCH  26  27
ATOM     27  C   LIG    1        4.970   3.078  -3.469  0.00  0.00    +0.390 C 
ATOM     28  F   LIG    1        4.864   4.431  -3.131  0.00  0.00    -0.171 F 
ATOM     29  F   LIG    1        5.391   2.960  -4.798  0.00  0.00    -0.171 F 
ATOM     30  F   LIG    1        5.901   2.459  -2.628  0.00  0.00    -0.171 F 
ENDBRANCH  26  27
ENDBRANCH  25  26
ENDBRANCH  24  25
ENDBRANCH  21  24
ENDBRANCH  20  21
ENDBRANCH   5  20
TORSDOF 10
