REMARK  Name = ZINC03979252
REMARK                            x       y       z     vdW  Elec       q    Type
REMARK                         _______ _______ _______ _____ _____    ______ ____
ROOT
ATOM      1  N   LIG    1        1.570   5.093  -2.203  0.00  0.00    -0.312 N 
ATOM      2  H   LIG    1        0.845   5.421  -1.648  0.00  0.00    +0.149 HD
ATOM      3  C   LIG    1        2.361   4.096  -1.758  0.00  0.00    +0.225 C 
ATOM      4  O   LIG    1        3.267   3.686  -2.452  0.00  0.00    -0.275 OA
ENDROOT
BRANCH   3   5
ATOM      5  C   LIG    1        2.119   3.491  -0.399  0.00  0.00    +0.142 C 
ATOM      6  C   LIG    1        0.724   2.931  -0.346  0.00  0.00    +0.013 A 
ATOM      7  C   LIG    1       -0.347   3.792  -0.181  0.00  0.00    +0.028 A 
ATOM      8  C   LIG    1       -1.637   3.298  -0.132  0.00  0.00    +0.041 A 
ATOM      9 CL   LIG    1       -2.975   4.384   0.075  0.00  0.00    -0.084 Cl
ATOM     10  C   LIG    1       -1.862   1.938  -0.252  0.00  0.00    +0.023 A 
ATOM     11  C   LIG    1       -0.797   1.074  -0.410  0.00  0.00    +0.048 A 
ATOM     12  C   LIG    1        0.502   1.569  -0.461  0.00  0.00    +0.133 A 
ATOM     13  O   LIG    1        1.532   0.704  -0.622  0.00  0.00    -0.455 OA
ATOM     14  C   LIG    1        2.789   1.072  -0.274  0.00  0.00    +0.133 A 
ATOM     15  C   LIG    1        3.743   0.089  -0.038  0.00  0.00    +0.048 A 
ATOM     16  C   LIG    1        5.029   0.442   0.316  0.00  0.00    +0.023 A 
ATOM     17  C   LIG    1        5.372   1.777   0.437  0.00  0.00    +0.041 A 
ATOM     18 CL   LIG    1        6.990   2.222   0.880  0.00  0.00    -0.084 Cl
ATOM     19  C   LIG    1        4.424   2.757   0.203  0.00  0.00    +0.028 A 
ATOM     20  C   LIG    1        3.133   2.408  -0.151  0.00  0.00    +0.013 A 
ENDBRANCH   3   5
BRANCH   1  24
ATOM     21  N   LIG    1        1.778   8.031  -5.217  0.00  0.00    +0.382 N 
ATOM     22  C   LIG    1        0.774   6.975  -5.393  0.00  0.00    -0.073 C 
ATOM     23  C   LIG    1        0.504   6.294  -4.050  0.00  0.00    +0.004 C 
ATOM     24  C   LIG    1        1.805   5.681  -3.524  0.00  0.00    +0.069 C 
ATOM     25  C   LIG    1        2.868   6.777  -3.414  0.00  0.00    +0.004 C 
ATOM     26  C   LIG    1        3.050   7.442  -4.781  0.00  0.00    -0.073 C 
BRANCH  21  28
ATOM     27  C   LIG    1        2.354  10.089  -4.020  0.00  0.00    -0.016 C 
ATOM     28  C   LIG    1        1.310   8.986  -4.204  0.00  0.00    -0.078 C 
ENDBRANCH  21  28
BRANCH  21  29
ATOM     29  C   LIG    1        1.979   8.732  -6.492  0.00  0.00    -0.044 C 
BRANCH  29  30
ATOM     30  C   LIG    1        2.584   7.785  -7.496  0.00  0.00    -0.090 C 
ATOM     31  C   LIG    1        1.693   7.193  -8.208  0.00  0.00    -0.029 C 
ATOM     32  C   LIG    1        2.035   6.290  -9.370  0.00  0.00    +0.027 C 
ATOM     33  C   LIG    1        2.404   4.902  -8.841  0.00  0.00    +0.004 C 
ATOM     34  C   LIG    1        3.164   4.995  -7.526  0.00  0.00    +0.000 C 
ATOM     35  C   LIG    1        4.595   5.373  -7.866  0.00  0.00    +0.000 C 
ATOM     36  C   LIG    1        4.674   6.788  -8.443  0.00  0.00    +0.004 C 
ATOM     37  C   LIG    1        4.068   7.758  -7.422  0.00  0.00    +0.028 C 
ENDBRANCH  29  30
ENDBRANCH  21  29
ENDBRANCH   1  24
TORSDOF 5
