REMARK  Name = ZINC03939511
REMARK                            x       y       z     vdW  Elec       q    Type
REMARK                         _______ _______ _______ _____ _____    ______ ____
ROOT
ATOM      1  C   LIG    1       -1.482   7.945   2.479  0.00  0.00    +0.090 A 
ATOM      2  C   LIG    1       -0.867   9.032   3.038  0.00  0.00    +0.080 A 
ATOM      3  C   LIG    1       -1.572   9.825   3.909  0.00  0.00    +0.142 A 
ATOM      4  C   LIG    1       -2.892   9.479   4.195  0.00  0.00    +0.117 A 
ATOM      5  S   LIG    1       -3.113   8.013   3.200  0.00  0.00    -0.062 S 
ENDROOT
BRANCH   1  10
ATOM      6  C   LIG    1       -0.787   2.893   1.346  0.00  0.00    +0.164 A 
ATOM      7  C   LIG    1       -0.260   3.742   0.396  0.00  0.00    +0.079 A 
ATOM      8  C   LIG    1       -0.369   5.126   0.563  0.00  0.00    +0.093 A 
ATOM      9  C   LIG    1       -1.017   5.638   1.700  0.00  0.00    +0.078 A 
ATOM     10  N   LIG    1       -0.964   7.017   1.580  0.00  0.00    -0.292 N 
ATOM     11  C   LIG    1       -0.309   7.296   0.415  0.00  0.00    +0.205 A 
ATOM     12  C   LIG    1       -1.544   4.774   2.649  0.00  0.00    +0.077 A 
ATOM     13  N   LIG    1        0.038   6.191  -0.177  0.00  0.00    -0.235 NA
ATOM     14  C   LIG    1       -1.435   3.408   2.471  0.00  0.00    +0.164 A 
BRANCH   6  16
ATOM     15  C   LIG    1       -0.013   1.086   0.008  0.00  0.00    +0.277 C 
ATOM     16  O   LIG    1       -0.682   1.547   1.184  0.00  0.00    -0.491 OA
ENDBRANCH   6  16
BRANCH  14  17
ATOM     17  O   LIG    1       -1.956   2.561   3.399  0.00  0.00    -0.491 OA
ATOM     18  C   LIG    1       -2.605   3.153   4.526  0.00  0.00    +0.277 C 
ENDBRANCH  14  17
ENDBRANCH   1  10
BRANCH   4  19
ATOM     19  C   LIG    1       -3.815  10.121   5.050  0.00  0.00    +0.252 C 
ATOM     20  N   LIG    1       -5.060   9.624   5.193  0.00  0.00    -0.325 N 
ATOM     21  H   LIG    1       -5.693  10.065   5.781  0.00  0.00    +0.145 HD
ATOM     22  H   LIG    1       -5.322   8.825   4.709  0.00  0.00    +0.145 HD
ATOM     23  O   LIG    1       -3.486  11.124   5.659  0.00  0.00    -0.270 OA
ENDBRANCH   4  19
BRANCH   3  24
ATOM     24  O   LIG    1       -0.999  10.915   4.480  0.00  0.00    -0.486 OA
BRANCH  24  25
ATOM     25  C   LIG    1        0.358  11.193   4.129  0.00  0.00    +0.265 C 
BRANCH  25  26
ATOM     26  C   LIG    1        0.822  12.430   4.854  0.00  0.00    +0.001 A 
ATOM     27  C   LIG    1       -0.043  13.101   5.699  0.00  0.00    +0.007 A 
ATOM     28  C   LIG    1        0.384  14.233   6.367  0.00  0.00    +0.000 A 
ATOM     29  C   LIG    1        1.672  14.700   6.184  0.00  0.00    +0.001 A 
ATOM     30  C   LIG    1        2.535  14.032   5.336  0.00  0.00    +0.013 A 
ATOM     31  C   LIG    1        2.110  12.897   4.671  0.00  0.00    +0.061 A 
BRANCH  31  32
ATOM     32  C   LIG    1        3.051  12.169   3.745  0.00  0.00    +0.418 C 
ATOM     33  F   LIG    1        2.512  12.148   2.454  0.00  0.00    -0.166 F 
ATOM     34  F   LIG    1        3.228  10.857   4.198  0.00  0.00    -0.166 F 
ATOM     35  F   LIG    1        4.285  12.826   3.725  0.00  0.00    -0.166 F 
ENDBRANCH  31  32
ENDBRANCH  25  26
ENDBRANCH  24  25
ENDBRANCH   3  24
TORSDOF 8
