REMARK  Name = ZINC03874479
REMARK                            x       y       z     vdW  Elec       q    Type
REMARK                         _______ _______ _______ _____ _____    ______ ____
ROOT
ATOM      1  C   LIG    1        2.910   3.842  -0.006  0.00  0.00    +0.001 A 
ATOM      2  C   LIG    1        3.342   2.526  -0.029  0.00  0.00    +0.002 A 
ATOM      3  C   LIG    1        2.459   1.461  -0.026  0.00  0.00    +0.026 A 
ATOM      4  C   LIG    1        1.101   1.766   0.001  0.00  0.00    +0.047 A 
ATOM      5  C   LIG    1        0.659   3.118   0.031  0.00  0.00    +0.003 A 
ATOM      6  C   LIG    1       -0.770   3.065   0.060  0.00  0.00    -0.013 A 
ATOM      7  C   LIG    1       -1.126   1.723   0.016  0.00  0.00    +0.062 A 
ATOM      8  C   LIG    1       -2.582   1.511  -0.042  0.00  0.00    +0.233 C 
ATOM      9  C   LIG    1       -3.205   2.268   1.137  0.00  0.00    +0.068 C 
ATOM     10  C   LIG    1       -3.172   1.685   2.542  0.00  0.00    -0.000 C 
ATOM     11  C   LIG    1       -4.237   2.514   3.297  0.00  0.00    -0.077 C 
ATOM     12  N   LIG    1       -4.032   3.990   3.245  0.00  0.00    +0.384 N 
ATOM     13  H   LIG    1       -3.160   4.207   3.742  0.00  0.00    -0.081 HD
ATOM     14  C   LIG    1       -3.910   4.527   1.815  0.00  0.00    -0.031 C 
ATOM     15  C   LIG    1       -5.250   4.400   1.116  0.00  0.00    +0.023 C 
ATOM     16  C   LIG    1       -5.606   3.032   0.657  0.00  0.00    -0.041 A 
ATOM     17  C   LIG    1       -6.821   2.584   0.171  0.00  0.00    +0.007 A 
ATOM     18  C   LIG    1       -6.929   1.296  -0.339  0.00  0.00    +0.049 A 
ATOM     19  C   LIG    1       -5.868   0.394  -0.430  0.00  0.00    +0.159 A 
ATOM     20  C   LIG    1       -4.638   0.822   0.056  0.00  0.00    +0.167 A 
ATOM     21  C   LIG    1       -4.611   2.094   0.639  0.00  0.00    +0.014 A 
ATOM     22  C   LIG    1       -2.767   3.701   1.260  0.00  0.00    +0.072 C 
ATOM     23  O   LIG    1       -3.353   0.315   0.021  0.00  0.00    -0.478 OA
ATOM     24  C   LIG    1       -1.851   4.137   0.149  0.00  0.00    +0.071 C 
ATOM     25  N   LIG    1       -0.011   0.966   0.007  0.00  0.00    -0.355 N 
ATOM     26  H   LIG    1        0.002  -0.004   0.002  0.00  0.00    +0.166 HD
ATOM     27  C   LIG    1        1.580   4.174   0.025  0.00  0.00    +0.010 A 
ENDROOT
BRANCH  19  28
ATOM     28  O   LIG    1       -6.029  -0.844  -0.970  0.00  0.00    -0.503 OA
ATOM     29  H   LIG    1       -6.279  -1.523  -0.328  0.00  0.00    +0.292 HD
ENDBRANCH  19  28
BRANCH  22  30
ATOM     30  O   LIG    1       -1.881   3.619   2.378  0.00  0.00    -0.389 OA
ATOM     31  H   LIG    1       -1.446   4.454   2.597  0.00  0.00    +0.210 HD
ENDBRANCH  22  30
BRANCH  12  32
ATOM     32  C   LIG    1       -5.138   4.656   3.929  0.00  0.00    -0.075 C 
BRANCH  32  33
ATOM     33  C   LIG    1       -5.114   4.220   5.395  0.00  0.00    -0.028 C 
ATOM     34  C   LIG    1       -6.340   3.481   5.933  0.00  0.00    +0.002 C 
ATOM     35  C   LIG    1       -6.070   4.927   6.358  0.00  0.00    +0.002 C 
ENDBRANCH  32  33
ENDBRANCH  12  32
TORSDOF 4
