REMARK  Name = ZINC03938688
REMARK                            x       y       z     vdW  Elec       q    Type
REMARK                         _______ _______ _______ _____ _____    ______ ____
ROOT
ATOM      1  C   LIG    1        3.700  -0.683  -0.046  0.00  0.00    +0.287 C 
ATOM      2  N   LIG    1        3.725  -2.027   0.045  0.00  0.00    -0.161 N 
ATOM      3  C   LIG    1        4.831  -2.821   0.125  0.00  0.00    +0.220 A 
ATOM      4  N   LIG    1        4.425  -4.069   0.198  0.00  0.00    -0.180 NA
ATOM      5  C   LIG    1        3.087  -4.112   0.168  0.00  0.00    +0.241 A 
ATOM      6  N   LIG    1        2.618  -2.890   0.081  0.00  0.00    -0.124 NA
ATOM      7  O   LIG    1        4.738  -0.061  -0.160  0.00  0.00    -0.265 OA
ENDROOT
BRANCH   1  12
ATOM      8  C   LIG    1       -0.009   1.383   0.070  0.00  0.00    +0.006 A 
ATOM      9  C   LIG    1        0.559   1.058  -1.148  0.00  0.00    +0.039 A 
ATOM     10  C   LIG    1        1.766   0.386  -1.196  0.00  0.00    +0.139 A 
ATOM     11  F   LIG    1        2.318   0.070  -2.387  0.00  0.00    -0.205 F 
ATOM     12  C   LIG    1        2.413   0.034  -0.005  0.00  0.00    +0.111 A 
ATOM     13  C   LIG    1        1.830   0.367   1.223  0.00  0.00    +0.139 A 
ATOM     14  F   LIG    1        2.446   0.032   2.378  0.00  0.00    -0.205 F 
ATOM     15  C   LIG    1        0.623   1.039   1.251  0.00  0.00    +0.039 A 
ENDBRANCH   1  12
BRANCH   3  16
ATOM     16  N   LIG    1        6.142  -2.391   0.128  0.00  0.00    -0.327 N 
ATOM     17  H   LIG    1        6.864  -3.036   0.189  0.00  0.00    +0.145 HD
ATOM     18  H   LIG    1        6.342  -1.444   0.069  0.00  0.00    +0.145 HD
ENDBRANCH   3  16
BRANCH   5  19
ATOM     19  N   LIG    1        2.315  -5.270   0.225  0.00  0.00    -0.282 N 
ATOM     20  H   LIG    1        1.353  -5.218   0.115  0.00  0.00    +0.155 HD
BRANCH  19  21
ATOM     21  C   LIG    1        2.927  -6.508   0.441  0.00  0.00    +0.034 A 
ATOM     22  C   LIG    1        4.143  -6.576   1.108  0.00  0.00    +0.025 A 
ATOM     23  C   LIG    1        4.745  -7.801   1.320  0.00  0.00    +0.030 A 
ATOM     24  C   LIG    1        4.138  -8.959   0.869  0.00  0.00    +0.105 A 
ATOM     25  C   LIG    1        2.927  -8.894   0.205  0.00  0.00    +0.030 A 
ATOM     26  C   LIG    1        2.317  -7.673  -0.006  0.00  0.00    +0.025 A 
BRANCH  24  27
ATOM     27  S   LIG    1        4.909 -10.519   1.141  0.00  0.00    +0.056 S 
ATOM     28  O   LIG    1        6.298 -10.263   1.304  0.00  0.00    -0.153 OA
ATOM     29  O   LIG    1        4.408 -11.399   0.145  0.00  0.00    -0.153 OA
BRANCH  27  30
ATOM     30  N   LIG    1        4.361 -11.089   2.596  0.00  0.00    -0.204 NA
ATOM     31  H   LIG    1        4.671 -11.946   2.930  0.00  0.00    +0.144 HD
ATOM     32  H   LIG    1        3.728 -10.567   3.115  0.00  0.00    +0.144 HD
ENDBRANCH  27  30
ENDBRANCH  24  27
ENDBRANCH  19  21
ENDBRANCH   5  19
TORSDOF 6
