REMARK  Name = ZINC03995880
REMARK                            x       y       z     vdW  Elec       q    Type
REMARK                         _______ _______ _______ _____ _____    ______ ____
ROOT
ATOM      1  C   LIG    1       -0.017   1.378   0.010  0.00  0.00    +0.003 A 
ATOM      2  C   LIG    1        1.171   2.086   0.002  0.00  0.00    +0.016 A 
ATOM      3  C   LIG    1        2.377   1.411  -0.013  0.00  0.00    +0.063 A 
ATOM      4  C   LIG    1        2.396   0.029  -0.020  0.00  0.00    +0.016 A 
ATOM      5  C   LIG    1        1.208  -0.679  -0.012  0.00  0.00    +0.003 A 
ATOM      6  C   LIG    1        0.002  -0.004   0.002  0.00  0.00    -0.051 A 
ENDROOT
BRANCH   3   7
ATOM      7  P   LIG    1        3.936   2.339  -0.024  0.00  0.00    +0.358 P 
ATOM      8  O   LIG    1        4.691   2.076  -1.372  0.00  0.00    -0.253 OA
BRANCH   7   9
ATOM      9  O   LIG    1        4.830   1.873   1.175  0.00  0.00    -0.321 OA
ATOM     10  H   LIG    1        5.017   0.925   1.089  0.00  0.00    +0.220 HD
ENDBRANCH   7   9
BRANCH   7  11
ATOM     11  O   LIG    1        3.633   3.870   0.115  0.00  0.00    -0.321 OA
ATOM     12  H   LIG    1        3.079   4.159  -0.628  0.00  0.00    +0.220 HD
ENDBRANCH   7  11
ENDBRANCH   3   7
BRANCH   6  13
ATOM     13  CA  LIG    1       -1.293  -0.775   0.011  0.00  0.00    +0.066 C 
BRANCH  13  14
ATOM     14  N   LIG    1       -1.179  -1.933  -0.887  0.00  0.00    +0.390 N 
ATOM     15  H1  LIG    1       -0.430  -2.530  -0.572  0.00  0.00    -0.088 HD
ATOM     16  H2  LIG    1       -0.984  -1.613  -1.824  0.00  0.00    -0.088 HD
ATOM     17  H3  LIG    1       -2.046  -2.449  -0.881  0.00  0.00    -0.088 HD
ENDBRANCH  13  14
BRANCH  13  18
ATOM     18  C   LIG    1       -1.584  -1.252   1.410  0.00  0.00    +0.294 C 
ATOM     19  O   LIG    1       -1.896  -0.450   2.275  0.00  0.00    -0.253 OA
BRANCH  18  20
ATOM     20  OXT LIG    1       -1.508  -2.439   1.678  0.00  0.00    -0.482 OA
ATOM     21  HXT LIG    1       -1.268  -3.055   1.014  0.00  0.00    +0.295 HD
ENDBRANCH  18  20
ENDBRANCH  13  18
ENDBRANCH   6  13
TORSDOF 7
