REMARK  Name = ZINC03931585
REMARK                            x       y       z     vdW  Elec       q    Type
REMARK                         _______ _______ _______ _____ _____    ______ ____
ROOT
ATOM      1  C   LIG    1        0.980   0.841  -2.619  0.00  0.00    +0.016 C 
ENDROOT
BRANCH   1   2
ATOM      2  C   LIG    1       -0.361   1.479  -2.365  0.00  0.00    +0.202 C 
ATOM      3  N   LIG    1       -1.022   1.226  -1.218  0.00  0.00    -0.293 N 
ATOM      4  C   LIG    1       -2.268   1.906  -0.878  0.00  0.00    +0.119 C 
ATOM      5  C   LIG    1       -2.403   2.077   0.664  0.00  0.00    +0.089 C 
ATOM      6  S   LIG    1       -1.693   0.446   1.182  0.00  0.00    -0.140 S 
ATOM      7  C   LIG    1       -0.529   0.245  -0.233  0.00  0.00    +0.177 C 
ATOM      8  O   LIG    1       -0.846   2.221  -3.193  0.00  0.00    -0.277 OA
ENDBRANCH   1   2
BRANCH   1   9
ATOM      9  N   LIG    1        1.065   0.452  -4.038  0.00  0.00    +0.386 N 
ATOM     10  H   LIG    1        0.292  -0.187  -4.259  0.00  0.00    -0.089 HD
ATOM     11  H   LIG    1        1.948  -0.021  -4.218  0.00  0.00    -0.089 HD
ATOM     12  H   LIG    1        0.994   1.277  -4.631  0.00  0.00    -0.089 HD
ENDBRANCH   1   9
BRANCH   1  13
ATOM     13  C   LIG    1        2.092   1.833  -2.270  0.00  0.00    -0.020 C 
ATOM     14  C   LIG    1        2.025   2.169  -0.779  0.00  0.00    +0.006 C 
BRANCH  13  16
ATOM     15  C   LIG    1        4.554   2.244  -2.361  0.00  0.00    +0.004 C 
ATOM     16  C   LIG    1        3.451   1.209  -2.592  0.00  0.00    -0.001 C 
ENDBRANCH  13  16
ENDBRANCH   1  13
TORSDOF 4
