REMARK  Name = ZINC04096162
REMARK                            x       y       z     vdW  Elec       q    Type
REMARK                         _______ _______ _______ _____ _____    ______ ____
ROOT
ATOM      1  C   LIG    1       -0.961   0.837   3.820  0.00  0.00    +0.226 C 
ATOM      2  C   LIG    1       -1.770   2.012   4.381  0.00  0.00    +0.064 C 
ATOM      3  C   LIG    1       -2.193   1.641   5.806  0.00  0.00    +0.014 C 
ATOM      4  C   LIG    1       -0.928   3.275   4.339  0.00  0.00    +0.088 C 
ATOM      5  C   LIG    1       -0.787   3.680   2.863  0.00  0.00    +0.052 C 
ATOM      6  C   LIG    1        0.005   2.615   2.128  0.00  0.00    +0.056 C 
ATOM      7  C   LIG    1       -0.733   1.582   1.274  0.00  0.00    +0.016 C 
ATOM      8  C   LIG    1       -2.252   1.645   1.146  0.00  0.00    +0.015 C 
ATOM      9  C   LIG    1       -0.013   1.086   0.008  0.00  0.00    +0.015 C 
ATOM     10  C   LIG    1       -0.190   5.041   2.738  0.00  0.00    -0.019 C 
ATOM     11  C   LIG    1       -0.831   6.131   2.996  0.00  0.00    -0.045 C 
ATOM     12  C   LIG    1       -2.236   6.204   3.470  0.00  0.00    +0.076 C 
ATOM     13  C   LIG    1       -2.600   5.194   4.515  0.00  0.00    +0.140 C 
ATOM     14  C   LIG    1       -3.282   5.789   5.728  0.00  0.00    +0.191 C 
ATOM     15  O   LIG    1       -4.118   6.673   5.735  0.00  0.00    -0.289 OA
ATOM     16  C   LIG    1       -2.734   5.085   6.893  0.00  0.00    -0.009 C 
ATOM     17  C   LIG    1       -3.287   5.202   8.291  0.00  0.00    +0.047 C 
ATOM     18  C   LIG    1       -1.685   4.324   6.568  0.00  0.00    -0.011 C 
ATOM     19  C   LIG    1       -1.401   4.468   5.106  0.00  0.00    +0.084 C 
ATOM     20  C   LIG    1       -0.128   1.168   2.605  0.00  0.00    +0.160 C 
ENDROOT
BRANCH   4  21
ATOM     21  O   LIG    1        0.391   2.949   4.806  0.00  0.00    -0.387 OA
ATOM     22  H   LIG    1        0.424   2.677   5.733  0.00  0.00    +0.210 HD
ENDBRANCH   4  21
BRANCH  13  23
ATOM     23  O   LIG    1       -3.496   4.247   3.930  0.00  0.00    -0.380 OA
ATOM     24  H   LIG    1       -4.284   4.644   3.534  0.00  0.00    +0.211 HD
ENDBRANCH  13  23
BRANCH   1  25
ATOM     25  O   LIG    1       -1.867  -0.257   3.513  0.00  0.00    -0.457 OA
BRANCH  25  26
ATOM     26  C   LIG    1       -2.208  -1.068   4.526  0.00  0.00    +0.307 C 
ATOM     27  O   LIG    1       -1.764  -0.872   5.633  0.00  0.00    -0.251 OA
BRANCH  26  28
ATOM     28  C   LIG    1       -3.144  -2.224   4.284  0.00  0.00    +0.120 C 
BRANCH  28  30
ATOM     29  C   LIG    1       -4.316  -4.158   5.347  0.00  0.00    +0.004 C 
ATOM     30  C   LIG    1       -3.366  -2.984   5.593  0.00  0.00    +0.008 C 
ENDBRANCH  28  30
ENDBRANCH  26  28
ENDBRANCH  25  26
ENDBRANCH   1  25
BRANCH  11  31
ATOM     31  C   LIG    1       -0.098   7.431   2.798  0.00  0.00    +0.186 C 
BRANCH  31  32
ATOM     32  O   LIG    1        1.230   7.165   2.342  0.00  0.00    -0.391 OA
ATOM     33  H   LIG    1        1.762   7.958   2.193  0.00  0.00    +0.210 HD
ENDBRANCH  31  32
ENDBRANCH  11  31
BRANCH  20  34
ATOM     34  O   LIG    1        1.097   0.383   2.501  0.00  0.00    -0.453 OA
BRANCH  34  35
ATOM     35  C   LIG    1        1.030  -0.905   2.875  0.00  0.00    +0.308 C 
ATOM     36  O   LIG    1       -0.014  -1.363   3.275  0.00  0.00    -0.251 OA
BRANCH  35  37
ATOM     37  C   LIG    1        2.255  -1.778   2.796  0.00  0.00    +0.120 C 
BRANCH  37  38
ATOM     38  C   LIG    1        1.909  -3.188   3.277  0.00  0.00    +0.008 C 
ATOM     39  C   LIG    1        3.153  -4.075   3.196  0.00  0.00    +0.004 C 
ENDBRANCH  37  38
ENDBRANCH  35  37
ENDBRANCH  34  35
ENDBRANCH  20  34
TORSDOF 12
