REMARK  Name = ZINC03887002
REMARK                            x       y       z     vdW  Elec       q    Type
REMARK                         _______ _______ _______ _____ _____    ______ ____
ROOT
ATOM      1  C   LIG    1        4.952   1.189  -0.037  0.00  0.00    +0.172 C 
ATOM      2  C   LIG    1        3.782   2.192  -0.028  0.00  0.00    +0.090 C 
ATOM      3  C   LIG    1        2.550   1.316  -0.015  0.00  0.00    +0.075 C 
ATOM      4  N   LIG    1        2.905   0.074  -0.025  0.00  0.00    -0.181 NA
ATOM      5  N   LIG    1        4.284  -0.122  -0.038  0.00  0.00    -0.194 N 
ENDROOT
BRANCH   1   8
ATOM      6  C   LIG    1        7.405   1.893  -2.696  0.00  0.00    +0.041 A 
ATOM      7  C   LIG    1        6.991   1.953  -1.346  0.00  0.00    +0.046 A 
ATOM      8  C   LIG    1        5.785   1.360  -1.282  0.00  0.00    +0.127 A 
ATOM      9  O   LIG    1        5.452   0.942  -2.514  0.00  0.00    -0.466 OA
ATOM     10  C   LIG    1        6.428   1.268  -3.377  0.00  0.00    +0.195 A 
ENDBRANCH   1   8
BRANCH   3  11
ATOM     11  C   LIG    1        1.166   1.801   0.001  0.00  0.00    +0.035 A 
ATOM     12  C   LIG    1       -0.013   1.076   0.008  0.00  0.00    +0.017 A 
ATOM     13  C   LIG    1       -1.204   1.764   0.017  0.00  0.00    +0.008 A 
ATOM     14  C   LIG    1       -1.186   3.123   0.029  0.00  0.00    +0.046 A 
ATOM     15  S   LIG    1        0.562   3.481   0.015  0.00  0.00    -0.095 S 
ENDBRANCH   3  11
BRANCH   5  16
ATOM     16  C   LIG    1        4.905  -1.319  -0.051  0.00  0.00    +0.151 C 
ATOM     17  S   LIG    1        6.615  -1.395  -0.068  0.00  0.00    -0.017 S 
BRANCH  16  18
ATOM     18  N   LIG    1        4.180  -2.454  -0.051  0.00  0.00    -0.339 N 
ATOM     19  H   LIG    1        4.627  -3.315  -0.060  0.00  0.00    +0.144 HD
ATOM     20  H   LIG    1        3.211  -2.411  -0.041  0.00  0.00    +0.144 HD
ENDBRANCH  16  18
ENDBRANCH   5  16
TORSDOF 4
