REMARK  Name = ZINC04096023
REMARK                            x       y       z     vdW  Elec       q    Type
REMARK                         _______ _______ _______ _____ _____    ______ ____
ROOT
ATOM      1  C   LIG    1       -4.877   3.622   0.046  0.00  0.00    +0.256 C 
ATOM      2  C   LIG    1       -5.673   3.293  -1.242  0.00  0.00    +0.211 C 
ATOM      3  C   LIG    1       -7.136   3.516  -0.786  0.00  0.00    +0.179 C 
ATOM      4  C   LIG    1       -7.073   3.407   0.750  0.00  0.00    +0.177 C 
ATOM      5  O   LIG    1       -5.712   3.103   1.104  0.00  0.00    -0.346 OA
ENDROOT
BRANCH   1   8
ATOM      6  C   LIG    1       -1.235   3.047   0.030  0.00  0.00    +0.061 A 
ATOM      7  C   LIG    1       -2.431   3.683   0.034  0.00  0.00    +0.096 A 
ATOM      8  N   LIG    1       -3.577   2.946   0.036  0.00  0.00    -0.270 N 
ATOM      9  C   LIG    1       -3.522   1.602   0.028  0.00  0.00    +0.352 A 
ATOM     10  N   LIG    1       -2.354   0.962   0.018  0.00  0.00    -0.178 NA
ATOM     11  O   LIG    1       -4.558   0.959   0.030  0.00  0.00    -0.244 OA
ATOM     12  C   LIG    1       -1.212   1.637   0.017  0.00  0.00    +0.123 A 
BRANCH  12  13
ATOM     13  N   LIG    1       -0.011   0.966   0.007  0.00  0.00    -0.343 N 
ATOM     14  H   LIG    1        0.822   1.462   0.002  0.00  0.00    +0.144 HD
ATOM     15  H   LIG    1        0.055   0.391   0.823  0.00  0.00    +0.144 HD
ENDBRANCH  12  13
ENDBRANCH   1   8
BRANCH   3  16
ATOM     16  O   LIG    1       -7.589   4.814  -1.176  0.00  0.00    -0.386 OA
ATOM     17  H   LIG    1       -8.500   5.007  -0.915  0.00  0.00    +0.210 HD
ENDBRANCH   3  16
BRANCH   2  18
ATOM     18  O   LIG    1       -5.326   4.190  -2.299  0.00  0.00    -0.276 OA
BRANCH  18  19
ATOM     19  P   LIG    1       -4.697   3.696  -3.697  0.00  0.00    +0.473 P 
ATOM     20  O   LIG    1       -5.585   2.681  -4.306  0.00  0.00    -0.228 OA
BRANCH  19  21
ATOM     21  O   LIG    1       -3.246   3.052  -3.434  0.00  0.00    -0.303 OA
ATOM     22  H   LIG    1       -3.332   2.295  -2.833  0.00  0.00    +0.222 HD
ENDBRANCH  19  21
BRANCH  19  23
ATOM     23  O   LIG    1       -4.555   4.952  -4.694  0.00  0.00    -0.303 OA
ATOM     24  H   LIG    1       -5.429   5.340  -4.852  0.00  0.00    +0.222 HD
ENDBRANCH  19  23
ENDBRANCH  18  19
ENDBRANCH   2  18
BRANCH   4  25
ATOM     25  C   LIG    1       -7.999   2.288   1.230  0.00  0.00    +0.190 C 
BRANCH  25  26
ATOM     26  O   LIG    1       -8.024   2.269   2.659  0.00  0.00    -0.392 OA
ATOM     27  H   LIG    1       -8.593   1.583   3.034  0.00  0.00    +0.210 HD
ENDBRANCH  25  26
ENDBRANCH   4  25
TORSDOF 9
