REMARK  Name = ZINC03918297
REMARK                            x       y       z     vdW  Elec       q    Type
REMARK                         _______ _______ _______ _____ _____    ______ ____
ROOT
ATOM      1  N   ASP A  1        0.718   9.268   0.234  0.00  0.00    -0.303 N 
ATOM      2  H   ASP A  1        1.688   9.245   0.223  0.00  0.00    +0.149 HD
ATOM      3  C   UNK A  0        0.015   8.119   0.203  0.00  0.00    +0.214 C 
ATOM      4  O   UNK A  0       -1.193   8.143   0.306  0.00  0.00    -0.276 OA
ENDROOT
BRANCH   3   5
ATOM      5  C   UNK A  0        0.731   6.802   0.040  0.00  0.00    +0.099 C 
BRANCH   5   6
ATOM      6  C   UNK A  0       -0.291   5.663   0.037  0.00  0.00    +0.050 C 
BRANCH   6   7
ATOM      7  C   UNK A  0        0.436   4.327  -0.129  0.00  0.00    +0.229 C 
BRANCH   7   8
ATOM      8  O   UNK A  0       -0.518   3.263  -0.132  0.00  0.00    -0.492 OA
BRANCH   8   9
ATOM      9  C   UNK A  0       -0.035   2.002  -0.271  0.00  0.00    +0.121 A 
ATOM     10  C   UNK A  0       -0.909   0.922  -0.282  0.00  0.00    +0.046 A 
ATOM     11  C   UNK A  0       -0.422  -0.359  -0.424  0.00  0.00    +0.019 A 
ATOM     12  C   UNK A  0        0.951  -0.571  -0.556  0.00  0.00    +0.061 A 
ATOM     13  C   UNK A  0        1.826   0.516  -0.544  0.00  0.00    +0.019 A 
ATOM     14  C   UNK A  0        1.332   1.795  -0.403  0.00  0.00    +0.046 A 
BRANCH  12  15
ATOM     15  C   UNK A  0        1.478  -1.945  -0.708  0.00  0.00    +0.266 C 
ATOM     16  N   UNK A  0        0.594  -2.932  -0.710  0.00  0.00    -0.288 N 
ATOM     17  H   UNK A  0       -0.406  -2.726  -0.610  0.00  0.00    +0.301 HD
ATOM     18  H   UNK A  0        0.908  -3.897  -0.812  0.00  0.00    +0.301 HD
BRANCH  15  19
ATOM     19  N   UNK A  0        2.834  -2.153  -0.838  0.00  0.00    -0.250 N 
ATOM     20  H   UNK A  0        3.179  -3.054  -0.938  0.00  0.00    +0.288 HD
ATOM     21  H   UNK A  0        3.443  -1.398  -0.831  0.00  0.00    +0.288 HD
ENDBRANCH  15  19
ENDBRANCH  12  15
ENDBRANCH   8   9
ENDBRANCH   7   8
ENDBRANCH   6   7
ENDBRANCH   5   6
ENDBRANCH   3   5
BRANCH   1  22
ATOM     22  CA  ASP A  1        0.017  10.554   0.284  0.00  0.00    +0.169 C 
BRANCH  22  25
ATOM     23  N   ASP A  1       -1.087  12.097  -1.303  0.00  0.00    -0.301 N 
ATOM     24  H   ASP A  1       -1.287  12.677  -0.551  0.00  0.00    +0.150 HD
ATOM     25  C   ASP A  1       -0.419  10.943  -1.105  0.00  0.00    +0.235 C 
ATOM     26  O   ASP A  1       -0.169  10.218  -2.044  0.00  0.00    -0.274 OA
BRANCH  23  27
ATOM     27  CA  ASP A  1       -1.511  12.475  -2.653  0.00  0.00    +0.184 C 
BRANCH  27  29
ATOM     28  CG1 ASP A  1       -2.298  14.721  -1.891  0.00  0.00    +0.009 C 
ATOM     29  CB  ASP A  1       -2.717  13.413  -2.565  0.00  0.00    +0.014 C 
ATOM     30  CG2 ASP A  1       -3.237  13.709  -3.973  0.00  0.00    +0.009 C 
ENDBRANCH  27  29
BRANCH  27  31
ATOM     31  C   ASP A  1       -0.379  13.178  -3.357  0.00  0.00    +0.326 C 
ATOM     32  O   ASP A  1        0.674  13.345  -2.789  0.00  0.00    -0.249 OA
BRANCH  31  33
ATOM     33  OXT ASP A  1       -0.540  13.618  -4.614  0.00  0.00    -0.479 OA
ATOM     34  HXT ASP A  1       -1.357  13.488  -5.055  0.00  0.00    +0.295 HD
ENDBRANCH  31  33
ENDBRANCH  27  31
ENDBRANCH  23  27
ENDBRANCH  22  25
BRANCH  22  35
ATOM     35  CB  ASP A  1        0.956  11.625   0.843  0.00  0.00    +0.152 C 
BRANCH  35  36
ATOM     36  CG  ASP A  1        1.283  11.307   2.279  0.00  0.00    +0.307 C 
ATOM     37  OD1 ASP A  1        0.736  10.383   2.833  0.00  0.00    -0.251 OA
BRANCH  36  38
ATOM     38  OD2 ASP A  1        2.181  12.051   2.944  0.00  0.00    -0.481 OA
ATOM     39  HD2 ASP A  1        2.605  12.767   2.514  0.00  0.00    +0.295 HD
ENDBRANCH  36  38
ENDBRANCH  35  36
ENDBRANCH  22  35
ENDBRANCH   1  22
TORSDOF 16
