REMARK  Name = ZINC03975392
REMARK                            x       y       z     vdW  Elec       q    Type
REMARK                         _______ _______ _______ _____ _____    ______ ____
ROOT
ATOM      1  C   LIG    1        3.711  -0.707  -0.038  0.00  0.00    +0.140 C 
ENDROOT
BRANCH   1   2
ATOM      2  C   LIG    1        4.547  -0.514  -1.277  0.00  0.00    +0.007 A 
ATOM      3  C   LIG    1        5.854  -0.078  -1.168  0.00  0.00    +0.008 A 
ATOM      4  C   LIG    1        6.621   0.099  -2.304  0.00  0.00    +0.000 A 
ATOM      5  C   LIG    1        6.081  -0.161  -3.550  0.00  0.00    +0.001 A 
ATOM      6  C   LIG    1        4.775  -0.598  -3.660  0.00  0.00    +0.020 A 
ATOM      7  C   LIG    1        4.008  -0.780  -2.523  0.00  0.00    +0.047 A 
ATOM      8 CL   LIG    1        2.369  -1.335  -2.660  0.00  0.00    -0.083 Cl
ENDBRANCH   1   2
BRANCH   1  12
ATOM      9  C   LIG    1        0.111   1.566  -0.384  0.00  0.00    +0.000 A 
ATOM     10  C   LIG    1        1.331   2.212  -0.300  0.00  0.00    +0.000 A 
ATOM     11  C   LIG    1        2.496   1.476  -0.188  0.00  0.00    +0.006 A 
ATOM     12  C   LIG    1        2.441   0.095  -0.159  0.00  0.00    -0.011 A 
ATOM     13  C   LIG    1        1.221  -0.550  -0.241  0.00  0.00    +0.006 A 
ATOM     14  C   LIG    1        0.057   0.185  -0.355  0.00  0.00    +0.000 A 
ENDBRANCH   1  12
BRANCH   1  15
ATOM     15  C   LIG    1        3.371  -2.167   0.117  0.00  0.00    -0.011 A 
ATOM     16  C   LIG    1        3.859  -3.090  -0.789  0.00  0.00    +0.006 A 
ATOM     17  C   LIG    1        3.547  -4.429  -0.647  0.00  0.00    +0.000 A 
ATOM     18  C   LIG    1        2.746  -4.845   0.400  0.00  0.00    +0.000 A 
ATOM     19  C   LIG    1        2.258  -3.922   1.306  0.00  0.00    +0.000 A 
ATOM     20  C   LIG    1        2.574  -2.584   1.167  0.00  0.00    +0.006 A 
ENDBRANCH   1  15
BRANCH   1  21
ATOM     21  N   LIG    1        4.464  -0.255   1.135  0.00  0.00    -0.252 N 
ATOM     22  C   LIG    1        5.481  -0.914   1.728  0.00  0.00    +0.110 A 
ATOM     23  C   LIG    1        5.905  -0.166   2.772  0.00  0.00    +0.041 A 
ATOM     24  C   LIG    1        5.120   0.991   2.819  0.00  0.00    +0.134 A 
ATOM     25  N   LIG    1        4.260   0.941   1.835  0.00  0.00    -0.178 NA
ENDBRANCH   1  21
TORSDOF 4
