REMARK  Name = ZINC03932545
REMARK                            x       y       z     vdW  Elec       q    Type
REMARK                         _______ _______ _______ _____ _____    ______ ____
ROOT
ATOM      1  C   LIG    1        0.042   1.526   0.048  0.00  0.00    +0.016 C 
ATOM      2  C   LIG    1        0.071  -0.003   0.044  0.00  0.00    -0.007 C 
ATOM      3  C   LIG    1       -1.364  -0.467  -0.018  0.00  0.00    +0.019 C 
ATOM      4  C   LIG    1       -1.565  -1.822   0.659  0.00  0.00    +0.080 C 
ATOM      5  C   LIG    1       -1.046  -1.707   2.079  0.00  0.00    +0.156 C 
ATOM      6  C   LIG    1        0.319  -1.182   2.229  0.00  0.00    +0.046 C 
ATOM      7  O   LIG    1       -1.718  -2.030   3.036  0.00  0.00    -0.293 OA
ATOM      8  C   LIG    1        0.848  -0.424  -1.204  0.00  0.00    +0.002 C 
ATOM      9  C   LIG    1        0.099   0.032  -2.451  0.00  0.00    +0.005 C 
ATOM     10  C   LIG    1        0.909  -0.224  -3.734  0.00  0.00    +0.012 C 
ATOM     11  C   LIG    1        2.231   0.487  -3.565  0.00  0.00    -0.003 C 
ATOM     12  C   LIG    1        1.972   1.942  -3.165  0.00  0.00    +0.016 C 
ATOM     13  C   LIG    1        2.999  -0.195  -2.397  0.00  0.00    +0.006 C 
ATOM     14  C   LIG    1        4.373   0.456  -2.609  0.00  0.00    +0.032 C 
ATOM     15  C   LIG    1        4.471   0.485  -4.135  0.00  0.00    -0.022 C 
ATOM     16  C   LIG    1        3.224   0.455  -4.677  0.00  0.00    -0.036 C 
ATOM     17  C   LIG    1        2.262   0.180  -1.126  0.00  0.00    -0.003 C 
ATOM     18  C   LIG    1        2.998  -0.382   0.092  0.00  0.00    +0.008 C 
ATOM     19  C   LIG    1        2.274   0.032   1.378  0.00  0.00    +0.032 C 
ATOM     20  C   LIG    1        0.830  -0.424   1.264  0.00  0.00    -0.060 C 
ENDROOT
BRANCH  16  21
ATOM     21  C   LIG    1        2.903   0.448  -6.120  0.00  0.00    -0.004 A 
ATOM     22  C   LIG    1        3.275   1.522  -6.937  0.00  0.00    +0.011 A 
ATOM     23  C   LIG    1        2.950   1.467  -8.281  0.00  0.00    +0.020 A 
ATOM     24  C   LIG    1        2.276   0.363  -8.770  0.00  0.00    +0.111 A 
ATOM     25  N   LIG    1        1.938  -0.635  -7.976  0.00  0.00    -0.263 NA
ATOM     26  C   LIG    1        2.229  -0.631  -6.692  0.00  0.00    +0.118 A 
ENDBRANCH  16  21
TORSDOF 1
