REMARK  Name = ZINC03939153
REMARK                            x       y       z     vdW  Elec       q    Type
REMARK                         _______ _______ _______ _____ _____    ______ ____
ROOT
ATOM      1  C   LIG    1        6.723 -12.395   5.615  0.00  0.00    +0.048 A 
ATOM      2  C   LIG    1        6.979 -11.068   5.936  0.00  0.00    +0.025 A 
ATOM      3  C   LIG    1        8.235 -10.693   6.372  0.00  0.00    +0.005 A 
ATOM      4  C   LIG    1        9.238 -11.638   6.487  0.00  0.00    -0.049 A 
ATOM      5  C   LIG    1        8.987 -12.960   6.169  0.00  0.00    +0.005 A 
ATOM      6  C   LIG    1        7.732 -13.342   5.738  0.00  0.00    +0.025 A 
ENDROOT
BRANCH   1   7
ATOM      7  N   LIG    1        5.454 -12.777   5.175  0.00  0.00    -0.216 N 
ATOM      8  H   LIG    1        5.363 -13.366   4.410  0.00  0.00    +0.174 HD
BRANCH   7   9
ATOM      9  S   LIG    1        4.105 -12.224   5.960  0.00  0.00    +0.072 S 
ATOM     10  O   LIG    1        4.243 -10.814   6.062  0.00  0.00    -0.150 OA
ATOM     11  O   LIG    1        2.989 -12.837   5.330  0.00  0.00    -0.150 OA
BRANCH   9  15
ATOM     12  C   LIG    1        4.255 -13.846  10.186  0.00  0.00    +0.035 A 
ATOM     13  C   LIG    1        4.741 -12.575   9.911  0.00  0.00    +0.025 A 
ATOM     14  C   LIG    1        4.694 -12.083   8.621  0.00  0.00    +0.030 A 
ATOM     15  C   LIG    1        4.163 -12.855   7.604  0.00  0.00    +0.109 A 
ATOM     16  C   LIG    1        3.678 -14.122   7.875  0.00  0.00    +0.030 A 
ATOM     17  C   LIG    1        3.728 -14.621   9.162  0.00  0.00    +0.025 A 
BRANCH  12  21
ATOM     18  N   LIG    1        4.678 -16.123  12.960  0.00  0.00    -0.299 N 
ATOM     19  H   LIG    1        4.607 -15.516  13.713  0.00  0.00    +0.150 HD
ATOM     20  C   LIG    1        4.540 -15.658  11.703  0.00  0.00    +0.304 C 
ATOM     21  N   LIG    1        4.302 -14.348  11.492  0.00  0.00    -0.269 N 
ATOM     22  H   LIG    1        4.164 -13.752  12.245  0.00  0.00    +0.156 HD
ATOM     23  O   LIG    1        4.628 -16.419  10.759  0.00  0.00    -0.253 OA
BRANCH  18  24
ATOM     24  C   LIG    1        4.937 -17.547  13.189  0.00  0.00    +0.106 C 
BRANCH  24  25
ATOM     25  C   LIG    1        5.051 -17.809  14.692  0.00  0.00    +0.019 C 
BRANCH  25  26
ATOM     26  C   LIG    1        5.321 -19.296  14.931  0.00  0.00    +0.002 C 
BRANCH  26  27
ATOM     27  C   LIG    1        5.436 -19.558  16.434  0.00  0.00    -0.000 C 
BRANCH  27  29
ATOM     28  C   LIG    1        5.820 -21.308  18.176  0.00  0.00    +0.004 C 
ATOM     29  C   LIG    1        5.705 -21.045  16.673  0.00  0.00    -0.003 C 
ENDBRANCH  27  29
ENDBRANCH  26  27
ENDBRANCH  25  26
ENDBRANCH  24  25
ENDBRANCH  18  24
ENDBRANCH  12  21
ENDBRANCH   9  15
ENDBRANCH   7   9
ENDBRANCH   1   7
BRANCH   4  30
ATOM     30  C   LIG    1       10.608 -11.226   6.962  0.00  0.00    +0.016 C 
BRANCH  30  31
ATOM     31  C   LIG    1       10.675 -11.339   8.486  0.00  0.00    -0.078 C 
BRANCH  31  32
ATOM     32  N   LIG    1       12.011 -10.937   8.948  0.00  0.00    +0.381 N 
ATOM     33  H   LIG    1       12.188  -9.983   8.674  0.00  0.00    -0.086 HD
ATOM     34  H   LIG    1       12.705 -11.541   8.535  0.00  0.00    -0.086 HD
BRANCH  32  35
ATOM     35  C   LIG    1       12.075 -11.046  10.412  0.00  0.00    -0.048 C 
BRANCH  35  36
ATOM     36  C   LIG    1       13.466 -10.628  10.893  0.00  0.00    +0.135 C 
BRANCH  36  37
ATOM     37  O   LIG    1       14.450 -11.483  10.308  0.00  0.00    -0.390 OA
ATOM     38  H   LIG    1       14.341 -12.418  10.529  0.00  0.00    +0.210 HD
ENDBRANCH  36  37
BRANCH  36  39
ATOM     39  C   LIG    1       13.534 -10.741  12.418  0.00  0.00    +0.258 C 
BRANCH  39  40
ATOM     40  O   LIG    1       14.791 -10.241  12.877  0.00  0.00    -0.489 OA
BRANCH  40  41
ATOM     41  C   LIG    1       15.014 -10.270  14.218  0.00  0.00    +0.121 A 
ATOM     42  C   LIG    1       14.044 -10.776  15.072  0.00  0.00    +0.049 A 
ATOM     43  C   LIG    1       14.271 -10.805  16.434  0.00  0.00    +0.049 A 
ATOM     44  C   LIG    1       15.468 -10.330  16.948  0.00  0.00    +0.117 A 
ATOM     45  C   LIG    1       16.438  -9.826  16.095  0.00  0.00    +0.049 A 
ATOM     46  C   LIG    1       16.213  -9.800  14.732  0.00  0.00    +0.049 A 
BRANCH  44  47
ATOM     47  O   LIG    1       15.690 -10.359  18.290  0.00  0.00    -0.507 OA
ATOM     48  H   LIG    1       16.107 -11.173  18.602  0.00  0.00    +0.292 HD
ENDBRANCH  44  47
ENDBRANCH  40  41
ENDBRANCH  39  40
ENDBRANCH  36  39
ENDBRANCH  35  36
ENDBRANCH  32  35
ENDBRANCH  31  32
ENDBRANCH  30  31
ENDBRANCH   4  30
TORSDOF 19
