REMARK  Name = ZINC03977767
REMARK                            x       y       z     vdW  Elec       q    Type
REMARK                         _______ _______ _______ _____ _____    ______ ____
ROOT
ATOM      1  C   LIG    1        0.029  -2.888   2.435  0.00  0.00    +0.180 C 
ATOM      2  C   LIG    1        0.708  -1.552   2.041  0.00  0.00    +0.038 C 
ATOM      3  C   LIG    1        0.247  -0.433   2.977  0.00  0.00    +0.012 C 
ATOM      4  C   LIG    1        2.237  -1.778   2.190  0.00  0.00    +0.012 C 
ATOM      5  C   LIG    1        2.376  -3.298   2.047  0.00  0.00    +0.006 C 
ATOM      6  C   LIG    1        3.634  -3.905   2.640  0.00  0.00    +0.034 C 
ATOM      7  C   LIG    1        4.864  -3.380   1.898  0.00  0.00    +0.011 C 
ATOM      8  C   LIG    1        6.134  -3.965   2.524  0.00  0.00    +0.032 C 
ATOM      9  C   LIG    1        6.009  -5.477   2.519  0.00  0.00    -0.053 C 
ATOM     10  C   LIG    1        6.995  -6.202   2.007  0.00  0.00    +0.051 C 
ATOM     11  C   LIG    1        6.901  -7.669   1.966  0.00  0.00    +0.179 C 
ATOM     12  C   LIG    1        5.670  -8.309   2.460  0.00  0.00    +0.047 C 
ATOM     13  C   LIG    1        4.701  -7.566   2.973  0.00  0.00    -0.009 C 
ATOM     14  O   LIG    1        7.820  -8.340   1.533  0.00  0.00    -0.288 OA
ATOM     15  C   LIG    1        4.748  -6.087   3.130  0.00  0.00    +0.044 C 
ATOM     16  C   LIG    1        4.706  -5.764   4.625  0.00  0.00    +0.023 C 
ATOM     17  C   LIG    1        3.529  -5.431   2.476  0.00  0.00    +0.153 C 
ATOM     18  F   LIG    1        3.532  -5.715   1.106  0.00  0.00    -0.238 F 
ATOM     19  C   LIG    1        2.256  -5.994   3.102  0.00  0.00    +0.154 C 
ATOM     20  C   LIG    1        1.001  -5.280   2.575  0.00  0.00    +0.045 C 
ATOM     21  C   LIG    1        1.166  -3.803   2.878  0.00  0.00    +0.021 C 
ATOM     22  C   LIG    1        1.441  -3.603   4.369  0.00  0.00    +0.016 C 
ENDROOT
BRANCH   1  23
ATOM     23  C   LIG    1       -0.938  -2.670   3.570  0.00  0.00    +0.192 C 
ATOM     24  O   LIG    1       -0.584  -2.075   4.559  0.00  0.00    -0.292 OA
BRANCH  23  25
ATOM     25  C   LIG    1       -2.348  -3.194   3.470  0.00  0.00    +0.187 C 
ATOM     26 CL   LIG    1       -3.292  -2.656   4.908  0.00  0.00    -0.117 Cl
ENDBRANCH  23  25
ENDBRANCH   1  23
BRANCH  19  27
ATOM     27  O   LIG    1        2.325  -5.831   4.520  0.00  0.00    -0.389 OA
ATOM     28  H   LIG    1        1.565  -6.195   4.995  0.00  0.00    +0.210 HD
ENDBRANCH  19  27
BRANCH   1  29
ATOM     29  O   LIG    1       -0.649  -3.449   1.309  0.00  0.00    -0.449 OA
BRANCH  29  30
ATOM     30  C   LIG    1       -1.586  -2.689   0.720  0.00  0.00    +0.308 C 
ATOM     31  O   LIG    1       -1.883  -1.620   1.197  0.00  0.00    -0.251 OA
BRANCH  30  33
ATOM     32  C   LIG    1       -3.284  -2.125  -0.996  0.00  0.00    +0.015 C 
ATOM     33  C   LIG    1       -2.267  -3.171  -0.535  0.00  0.00    +0.117 C 
ENDBRANCH  30  33
ENDBRANCH  29  30
ENDBRANCH   1  29
TORSDOF 6
