REMARK  Name = ZINC03921793
REMARK                            x       y       z     vdW  Elec       q    Type
REMARK                         _______ _______ _______ _____ _____    ______ ____
ROOT
ATOM      1  C   LIG    1        4.832   1.491  -0.035  0.00  0.00    +0.052 C 
ATOM      2  C   LIG    1        3.654   2.157  -0.021  0.00  0.00    +0.012 C 
ENDROOT
BRANCH   2   3
ATOM      3  C   LIG    1        2.389   1.411  -0.013  0.00  0.00    -0.021 A 
ATOM      4  C   LIG    1        2.400   0.010  -0.020  0.00  0.00    +0.012 A 
ATOM      5  C   LIG    1        1.212  -0.686  -0.013  0.00  0.00    +0.050 A 
ATOM      6  C   LIG    1        0.002  -0.004   0.002  0.00  0.00    +0.158 A 
ATOM      7  C   LIG    1       -0.017   1.391   0.010  0.00  0.00    +0.159 A 
ATOM      8  C   LIG    1        1.169   2.098   0.002  0.00  0.00    +0.057 A 
BRANCH   6   9
ATOM      9  O   LIG    1       -1.166  -0.697   0.009  0.00  0.00    -0.503 OA
ATOM     10  H   LIG    1       -1.512  -0.893  -0.872  0.00  0.00    +0.292 HD
ENDBRANCH   6   9
BRANCH   7  11
ATOM     11  O   LIG    1       -1.204   2.054   0.019  0.00  0.00    -0.503 OA
ATOM     12  H   LIG    1       -1.543   2.241   0.905  0.00  0.00    +0.292 HD
ENDBRANCH   7  11
ENDBRANCH   2   3
BRANCH   1  13
ATOM     13  C   LIG    1        6.053   2.211  -0.043  0.00  0.00    +0.186 C 
ATOM     14  O   LIG    1        6.042   3.429  -0.037  0.00  0.00    -0.287 OA
BRANCH  13  18
ATOM     15  C   LIG    1        9.751   0.121  -0.089  0.00  0.00    +0.000 A 
ATOM     16  C   LIG    1        9.742   1.505  -0.082  0.00  0.00    +0.001 A 
ATOM     17  C   LIG    1        8.545   2.189  -0.067  0.00  0.00    +0.012 A 
ATOM     18  C   LIG    1        7.341   1.483  -0.059  0.00  0.00    +0.022 A 
ATOM     19  C   LIG    1        7.357   0.087  -0.061  0.00  0.00    +0.012 A 
ATOM     20  C   LIG    1        8.561  -0.585  -0.082  0.00  0.00    +0.001 A 
ENDBRANCH  13  18
ENDBRANCH   1  13
TORSDOF 5
