REMARK  Name = ZINC03995890
REMARK                            x       y       z     vdW  Elec       q    Type
REMARK                         _______ _______ _______ _____ _____    ______ ____
ROOT
ATOM      1  C   UNK A  0       -0.018   1.464   0.010  0.00  0.00    -0.048 C 
ATOM      2  C   UNK A  1        1.416   1.997  -0.001  0.00  0.00    +0.128 C 
ATOM      3  C   UNK A  1        2.130   1.502  -1.262  0.00  0.00    +0.168 C 
ATOM      4  C   UNK A  1        2.079  -0.029  -1.297  0.00  0.00    +0.134 C 
ATOM      5  C   UNK A  1        0.621  -0.487  -1.238  0.00  0.00    -0.014 C 
ATOM      6  N   UNK A  1        0.002  -0.004   0.002  0.00  0.00    +0.386 N 
ATOM      7  H   UNK A  1       -0.943  -0.353   0.063  0.00  0.00    -0.085 HD
ATOM      8  H   UNK A  1        0.533  -0.337   0.793  0.00  0.00    -0.085 HD
ENDROOT
BRANCH   2   9
ATOM      9  O   UNK A  1        2.109   1.526   1.157  0.00  0.00    -0.391 OA
ATOM     10  H   UNK A  1        1.710   1.801   1.993  0.00  0.00    +0.210 HD
ENDBRANCH   2   9
BRANCH   3  11
ATOM     11  O   UNK A  1        3.491   1.936  -1.243  0.00  0.00    -0.387 OA
ATOM     12  H   UNK A  1        3.597   2.897  -1.214  0.00  0.00    +0.210 HD
ENDBRANCH   3  11
BRANCH   4  13
ATOM     13  O   UNK A  1        2.680  -0.498  -2.506  0.00  0.00    -0.391 OA
ATOM     14  H   UNK A  1        3.606  -0.241  -2.611  0.00  0.00    +0.210 HD
ENDBRANCH   4  13
BRANCH   5  15
ATOM     15  C   UNK A  1        0.565  -2.016  -1.273  0.00  0.00    +0.143 C 
BRANCH  15  16
ATOM     16  O   UNK A  1       -0.797  -2.442  -1.335  0.00  0.00    -0.397 OA
ATOM     17  H   UNK A  1       -0.908  -3.402  -1.360  0.00  0.00    +0.209 HD
ENDBRANCH  15  16
ENDBRANCH   5  15
TORSDOF 5
