REMARK  Name = ZINC03932233
REMARK                            x       y       z     vdW  Elec       q    Type
REMARK                         _______ _______ _______ _____ _____    ______ ____
ROOT
ATOM      1  C   LIG    1       -0.935   0.930  -0.916  0.00  0.00    +0.008 C 
ATOM      2  C   LIG    1       -0.576  -0.552  -0.791  0.00  0.00    -0.011 C 
ATOM      3  C   LIG    1        0.545  -0.921  -1.785  0.00  0.00    +0.009 C 
ATOM      4  C   LIG    1        1.460  -1.925  -1.062  0.00  0.00    -0.034 C 
ATOM      5  C   LIG    1        0.863  -2.131   0.345  0.00  0.00    +0.009 C 
ATOM      6  C   LIG    1        0.038  -0.845   0.600  0.00  0.00    -0.011 C 
ATOM      7  C   LIG    1       -1.060  -1.101   1.634  0.00  0.00    +0.008 C 
ENDROOT
BRANCH   4   8
ATOM      8  C   LIG    1        1.483  -3.254  -1.821  0.00  0.00    -0.079 C 
BRANCH   8   9
ATOM      9  N   LIG    1        2.069  -3.034  -3.155  0.00  0.00    +0.378 N 
ATOM     10  H   LIG    1        1.498  -2.350  -3.666  0.00  0.00    -0.090 HD
ATOM     11  H   LIG    1        2.087  -3.908  -3.677  0.00  0.00    -0.090 HD
ATOM     12  H   LIG    1        3.017  -2.673  -3.065  0.00  0.00    -0.090 HD
ENDBRANCH   8   9
ENDBRANCH   4   8
BRANCH   4  13
ATOM     13  C   LIG    1        2.877  -1.359  -0.953  0.00  0.00    +0.125 C 
BRANCH  13  14
ATOM     14  C   LIG    1        3.760  -2.350  -0.238  0.00  0.00    +0.305 C 
ATOM     15  O   LIG    1        3.281  -3.350   0.241  0.00  0.00    -0.251 OA
BRANCH  14  16
ATOM     16  O   LIG    1        5.079  -2.121  -0.134  0.00  0.00    -0.481 OA
ATOM     17  H   LIG    1        5.450  -1.345  -0.506  0.00  0.00    +0.295 HD
ENDBRANCH  14  16
ENDBRANCH  13  14
ENDBRANCH   4  13
TORSDOF 5
