REMARK  Name = ZINC04091242
REMARK                            x       y       z     vdW  Elec       q    Type
REMARK                         _______ _______ _______ _____ _____    ______ ____
ROOT
ATOM      1  C   LIG    1       -1.081  -2.083   0.091  0.00  0.00    +0.034 A 
ATOM      2  C   LIG    1        0.158  -2.707   0.177  0.00  0.00    +0.024 A 
ATOM      3  C   LIG    1        0.244  -4.082   0.258  0.00  0.00    +0.014 A 
ATOM      4  C   LIG    1       -0.917  -4.854   0.254  0.00  0.00    +0.033 A 
ATOM      5  C   LIG    1       -2.175  -4.227   0.168  0.00  0.00    +0.035 A 
ATOM      6  C   LIG    1       -3.409  -5.041   0.163  0.00  0.00    +0.195 C 
ATOM      7  C   LIG    1       -3.320  -6.514   0.249  0.00  0.00    +0.033 A 
ATOM      8  C   LIG    1       -4.476  -7.288   0.244  0.00  0.00    +0.012 A 
ATOM      9  C   LIG    1       -4.383  -8.667   0.324  0.00  0.00    +0.001 A 
ATOM     10  C   LIG    1       -3.148  -9.282   0.409  0.00  0.00    +0.001 A 
ATOM     11  C   LIG    1       -1.988  -8.526   0.415  0.00  0.00    +0.012 A 
ATOM     12  C   LIG    1       -2.063  -7.139   0.335  0.00  0.00    +0.033 A 
ATOM     13  O   LIG    1       -4.494  -4.500   0.088  0.00  0.00    -0.287 OA
ATOM     14  C   LIG    1       -0.830  -6.325   0.340  0.00  0.00    +0.195 C 
ATOM     15  O   LIG    1        0.256  -6.866   0.415  0.00  0.00    -0.287 OA
ATOM     16  C   LIG    1       -2.250  -2.842   0.092  0.00  0.00    +0.035 A 
ENDROOT
BRANCH   1  19
ATOM     17  C   LIG    1       -2.193   1.470   0.609  0.00  0.00    +0.109 C 
ATOM     18  C   LIG    1       -2.168  -0.037   0.609  0.00  0.00    +0.214 C 
ATOM     19  N   LIG    1       -1.156  -0.694   0.009  0.00  0.00    -0.286 N 
ATOM     20  H   LIG    1       -0.479  -0.200  -0.479  0.00  0.00    +0.155 HD
ATOM     21  O   LIG    1       -3.059  -0.658   1.148  0.00  0.00    -0.276 OA
ENDBRANCH   1  19
TORSDOF 1
