REMARK  Name = ZINC03873830
REMARK                            x       y       z     vdW  Elec       q    Type
REMARK                         _______ _______ _______ _____ _____    ______ ____
ROOT
ATOM      1  C   LIG    1        3.062   5.479   5.022  0.00  0.00    +0.051 C 
ATOM      2  C   LIG    1        2.437   5.260   3.668  0.00  0.00    -0.010 A 
ATOM      3  C   LIG    1        3.036   5.259   2.474  0.00  0.00    +0.028 A 
ATOM      4  C   LIG    1        2.242   5.026   1.273  0.00  0.00    +0.092 A 
ATOM      5  C   LIG    1        2.851   5.020   0.002  0.00  0.00    +0.272 C 
ATOM      6  N   LIG    1        2.273   4.821  -1.224  0.00  0.00    -0.203 N 
ATOM      7  H   LIG    1        2.877   4.859  -1.982  0.00  0.00    +0.298 HD
ATOM      8  C   LIG    1        0.922   4.569  -1.536  0.00  0.00    +0.144 A 
ATOM      9  C   LIG    1        0.722   4.422  -2.892  0.00  0.00    +0.051 A 
ATOM     10  C   LIG    1       -0.552   4.168  -3.381  0.00  0.00    +0.004 A 
ATOM     11  C   LIG    1       -1.625   4.066  -2.518  0.00  0.00    +0.002 A 
ATOM     12  C   LIG    1       -1.438   4.208  -1.153  0.00  0.00    +0.032 A 
ATOM     13  C   LIG    1       -0.164   4.462  -0.655  0.00  0.00    +0.110 A 
ATOM     14  N   LIG    1       -0.156   4.578   0.711  0.00  0.00    -0.236 NA
ATOM     15  C   LIG    1        0.856   4.815   1.516  0.00  0.00    +0.117 A 
ATOM     16  S   LIG    1        0.727   4.943   3.284  0.00  0.00    -0.074 S 
ENDROOT
BRANCH   5  17
ATOM     17  N   LIG    1        4.196   5.244  -0.008  0.00  0.00    -0.228 N 
ATOM     18  C   LIG    1        5.148   4.127   0.093  0.00  0.00    +0.207 C 
ATOM     19  C   LIG    1        6.163   4.253  -1.053  0.00  0.00    -0.035 C 
ATOM     20  N   LIG    1        6.783   5.594  -0.991  0.00  0.00    +0.383 N 
ATOM     21  H   LIG    1        7.175   5.736  -0.053  0.00  0.00    -0.082 HD
ATOM     22  C   LIG    1        7.871   5.694  -1.986  0.00  0.00    -0.096 C 
ATOM     23  C   LIG    1        5.766   6.637  -1.248  0.00  0.00    -0.035 C 
ATOM     24  C   LIG    1        4.734   6.608  -0.116  0.00  0.00    +0.207 C 
ENDBRANCH   5  17
TORSDOF 1
