REMARK  Name = ZINC03995327
REMARK                            x       y       z     vdW  Elec       q    Type
REMARK                         _______ _______ _______ _____ _____    ______ ____
ROOT
ATOM      1  C   LIG    1       -0.021   1.445  -0.409  0.00  0.00    -0.096 C 
ATOM      2  N   LIG    1       -0.000  -0.017  -0.275  0.00  0.00    +0.378 N 
ATOM      3  H   LIG    1       -0.946  -0.367  -0.254  0.00  0.00    -0.082 HD
ATOM      4  C   LIG    1        0.715  -0.604  -1.416  0.00  0.00    -0.078 C 
ATOM      5  C   LIG    1        0.640  -2.128  -1.324  0.00  0.00    -0.007 C 
ATOM      6  C   LIG    1        1.297  -2.603  -0.024  0.00  0.00    +0.001 C 
ATOM      7  C   LIG    1        1.063  -4.109   0.113  0.00  0.00    +0.067 C 
ATOM      8  C   LIG    1        1.484  -4.597   1.476  0.00  0.00    +0.046 A 
ATOM      9  C   LIG    1        1.645  -3.730   2.549  0.00  0.00    -0.025 A 
ATOM     10  C   LIG    1        1.438  -2.245   2.430  0.00  0.00    +0.039 C 
ATOM     11  C   LIG    1        2.019  -4.223   3.774  0.00  0.00    +0.015 A 
ATOM     12  C   LIG    1        2.240  -5.603   3.908  0.00  0.00    +0.001 A 
ATOM     13  C   LIG    1        2.627  -6.172   5.132  0.00  0.00    +0.010 A 
ATOM     14  C   LIG    1        2.833  -7.516   5.214  0.00  0.00    +0.001 A 
ATOM     15  C   LIG    1        2.665  -8.334   4.098  0.00  0.00    +0.002 A 
ATOM     16  C   LIG    1        2.290  -7.816   2.897  0.00  0.00    +0.028 A 
ATOM     17  C   LIG    1        2.066  -6.433   2.773  0.00  0.00    +0.071 A 
ATOM     18  N   LIG    1        1.695  -5.893   1.612  0.00  0.00    -0.251 NA
ATOM     19  C   LIG    1        0.638  -1.901   1.171  0.00  0.00    -0.012 C 
ATOM     20  C   LIG    1        0.685  -0.385   0.968  0.00  0.00    -0.075 C 
ENDROOT
BRANCH   6  21
ATOM     21  C   LIG    1        2.772  -2.298  -0.051  0.00  0.00    -0.037 A 
ATOM     22  C   LIG    1        3.205  -0.989  -0.157  0.00  0.00    +0.004 A 
ATOM     23  C   LIG    1        4.558  -0.705  -0.182  0.00  0.00    +0.004 A 
ATOM     24  C   LIG    1        5.481  -1.730  -0.101  0.00  0.00    +0.045 A 
ATOM     25  C   LIG    1        5.049  -3.044   0.006  0.00  0.00    +0.117 A 
ATOM     26  C   LIG    1        3.691  -3.325   0.037  0.00  0.00    +0.049 A 
BRANCH  25  27
ATOM     27  O   LIG    1        5.955  -4.054   0.086  0.00  0.00    -0.507 OA
ATOM     28  H   LIG    1        6.219  -4.275   0.990  0.00  0.00    +0.292 HD
ENDBRANCH  25  27
ENDBRANCH   6  21
TORSDOF 2
