REMARK  Name = ZINC03897190
REMARK                            x       y       z     vdW  Elec       q    Type
REMARK                         _______ _______ _______ _____ _____    ______ ____
ROOT
ATOM      1  C   LIG    1        1.671   0.628   3.822  0.00  0.00    +0.012 C 
ATOM      2  C   LIG    1        1.112  -0.750   3.496  0.00  0.00    -0.026 C 
ATOM      3  C   LIG    1        0.247  -1.244   4.660  0.00  0.00    +0.010 C 
ATOM      4  C   LIG    1        1.094  -1.468   5.910  0.00  0.00    +0.032 C 
ATOM      5  C   LIG    1        2.217  -2.464   5.625  0.00  0.00    +0.115 C 
ATOM      6  C   LIG    1        3.095  -1.937   4.485  0.00  0.00    +0.035 C 
ATOM      7  C   LIG    1        0.248  -0.706   2.225  0.00  0.00    +0.001 C 
ATOM      8  C   LIG    1       -1.000   0.132   2.393  0.00  0.00    +0.005 C 
ATOM      9  C   LIG    1       -1.868   0.190   1.124  0.00  0.00    +0.010 C 
ATOM     10  C   LIG    1       -1.170  -0.434  -0.053  0.00  0.00    +0.004 C 
ATOM     11  C   LIG    1       -1.226  -1.968   0.037  0.00  0.00    +0.014 C 
ATOM     12  C   LIG    1        0.276   0.093  -0.157  0.00  0.00    +0.075 C 
ATOM     13  C   LIG    1        0.727  -0.490  -1.504  0.00  0.00    +0.036 C 
ATOM     14  C   LIG    1       -0.521  -0.276  -2.403  0.00  0.00    +0.011 C 
ATOM     15  C   LIG    1       -1.731  -0.109  -1.449  0.00  0.00    +0.027 C 
ATOM     16  C   LIG    1        1.103  -0.257   1.046  0.00  0.00    +0.025 C 
ATOM     17  C   LIG    1        2.187  -1.300   0.780  0.00  0.00    +0.007 C 
ATOM     18  C   LIG    1        3.075  -1.385   2.032  0.00  0.00    +0.004 C 
ATOM     19  C   LIG    1        2.229  -1.765   3.241  0.00  0.00    -0.002 C 
ENDROOT
BRANCH  15  20
ATOM     20  C   LIG    1       -2.316   1.276  -1.550  0.00  0.00    -0.022 C 
ATOM     21  C   LIG    1       -1.749   2.336  -2.121  0.00  0.00    +0.094 C 
ATOM     22  C   LIG    1       -2.643   3.491  -2.007  0.00  0.00    +0.332 C 
ATOM     23  O   LIG    1       -3.770   3.137  -1.361  0.00  0.00    -0.457 OA
ATOM     24  O   LIG    1       -2.403   4.603  -2.433  0.00  0.00    -0.246 OA
ATOM     25  C   LIG    1       -3.661   1.725  -1.028  0.00  0.00    +0.264 C 
ENDBRANCH  15  20
BRANCH   5  26
ATOM     26  O   LIG    1        3.014  -2.638   6.798  0.00  0.00    -0.392 OA
ATOM     27  H   LIG    1        2.523  -2.970   7.562  0.00  0.00    +0.210 HD
ENDBRANCH   5  26
BRANCH  12  28
ATOM     28  O   LIG    1        0.265   1.533  -0.276  0.00  0.00    -0.388 OA
ATOM     29  H   LIG    1        1.145   1.928  -0.345  0.00  0.00    +0.210 HD
ENDBRANCH  12  28
TORSDOF 3
