REMARK  Name = ZINC03959180
REMARK                            x       y       z     vdW  Elec       q    Type
REMARK                         _______ _______ _______ _____ _____    ______ ____
ROOT
ATOM      1  C   LIG    1        0.066   1.001  -5.235  0.00  0.00    +0.011 C 
ATOM      2  C   LIG    1       -0.618   1.258  -3.891  0.00  0.00    -0.034 C 
ATOM      3  C   LIG    1       -2.011   0.626  -3.898  0.00  0.00    +0.011 C 
ATOM      4  C   LIG    1       -0.743   2.766  -3.663  0.00  0.00    +0.006 C 
ATOM      5  C   LIG    1       -1.427   3.023  -2.318  0.00  0.00    +0.001 C 
ATOM      6  C   LIG    1       -0.592   2.405  -1.195  0.00  0.00    +0.005 C 
ATOM      7  C   LIG    1       -0.467   0.898  -1.423  0.00  0.00    -0.034 C 
ATOM      8  C   LIG    1        0.217   0.640  -2.767  0.00  0.00    +0.012 C 
ENDROOT
BRANCH   7   9
ATOM      9  C   LIG    1        0.368   0.280  -0.300  0.00  0.00    -0.079 C 
BRANCH   9  10
ATOM     10  N   LIG    1       -0.219   0.599   1.014  0.00  0.00    +0.378 N 
ATOM     11  H   LIG    1        0.379   0.213   1.754  0.00  0.00    -0.090 HD
ATOM     12  H   LIG    1       -1.149   0.190   1.090  0.00  0.00    -0.090 HD
ATOM     13  H   LIG    1       -0.283   1.609   1.131  0.00  0.00    -0.090 HD
ENDBRANCH   9  10
ENDBRANCH   7   9
BRANCH   7  14
ATOM     14  C   LIG    1       -1.860   0.265  -1.430  0.00  0.00    +0.125 C 
BRANCH  14  15
ATOM     15  C   LIG    1       -1.744  -1.202  -1.756  0.00  0.00    +0.305 C 
ATOM     16  O   LIG    1       -0.655  -1.717  -1.845  0.00  0.00    -0.251 OA
BRANCH  15  17
ATOM     17  O   LIG    1       -2.851  -1.936  -1.949  0.00  0.00    -0.481 OA
ATOM     18  H   LIG    1       -3.696  -1.537  -1.880  0.00  0.00    +0.295 HD
ENDBRANCH  15  17
ENDBRANCH  14  15
ENDBRANCH   7  14
TORSDOF 5
