REMARK  Name = ZINC03915682
REMARK                            x       y       z     vdW  Elec       q    Type
REMARK                         _______ _______ _______ _____ _____    ______ ____
ROOT
ATOM      1  C   LIG    1        0.997   3.658  -1.314  0.00  0.00    +0.010 C 
ATOM      2  C   LIG    1        1.826   3.027  -0.163  0.00  0.00    +0.023 C 
ATOM      3  C   LIG    1        3.288   3.193  -0.517  0.00  0.00    +0.055 C 
ATOM      4  C   LIG    1        4.178   2.260   0.253  0.00  0.00    +0.123 C 
ATOM      5  C   LIG    1        3.647   1.185   1.067  0.00  0.00    +0.052 C 
ATOM      6  C   LIG    1        2.177   1.099   1.283  0.00  0.00    +0.052 C 
ATOM      7  C   LIG    1        1.694  -0.327   1.610  0.00  0.00    -0.019 C 
ATOM      8  C   LIG    1        0.536  -0.524   2.090  0.00  0.00    -0.045 C 
ATOM      9  C   LIG    1       -0.524   0.403   2.355  0.00  0.00    +0.076 C 
ATOM     10  C   LIG    1       -0.680   1.484   1.339  0.00  0.00    +0.140 C 
ATOM     11  C   LIG    1       -2.117   1.742   0.919  0.00  0.00    +0.191 C 
ATOM     12  O   LIG    1       -3.135   1.803   1.558  0.00  0.00    -0.289 OA
ATOM     13  C   LIG    1       -2.109   1.905  -0.611  0.00  0.00    -0.009 C 
ATOM     14  C   LIG    1       -3.280   2.301  -1.476  0.00  0.00    +0.047 C 
ATOM     15  C   LIG    1       -0.931   1.581  -1.052  0.00  0.00    -0.011 C 
ATOM     16  C   LIG    1       -0.014   1.171   0.009  0.00  0.00    +0.084 C 
ATOM     17  C   LIG    1        4.399   2.346   1.715  0.00  0.00    +0.012 C 
ATOM     18  C   LIG    1        3.645   3.378   2.570  0.00  0.00    +0.015 C 
ATOM     19  C   LIG    1        5.808   2.048   2.198  0.00  0.00    +0.015 C 
ATOM     20  C   LIG    1        1.472   1.508  -0.004  0.00  0.00    +0.085 C 
ENDROOT
BRANCH  10  21
ATOM     21  O   LIG    1       -0.218   2.681   1.845  0.00  0.00    -0.380 OA
ATOM     22  H   LIG    1       -0.611   2.928   2.693  0.00  0.00    +0.211 HD
ENDBRANCH  10  21
BRANCH  20  23
ATOM     23  O   LIG    1        2.045   0.821  -1.155  0.00  0.00    -0.387 OA
ATOM     24  H   LIG    1        1.659   1.083  -2.002  0.00  0.00    +0.210 HD
ENDBRANCH  20  23
BRANCH   4  25
ATOM     25  O   LIG    1        5.393   1.905  -0.575  0.00  0.00    -0.457 OA
BRANCH  25  26
ATOM     26  C   LIG    1        5.880   2.859  -1.384  0.00  0.00    +0.304 C 
ATOM     27  C   LIG    1        7.088   2.578  -2.239  0.00  0.00    +0.136 C 
ATOM     28  O   LIG    1        5.348   3.943  -1.427  0.00  0.00    -0.251 OA
ENDBRANCH  25  26
ENDBRANCH   4  25
BRANCH   8  29
ATOM     29  C   LIG    1        0.247  -2.023   2.458  0.00  0.00    +0.186 C 
BRANCH  29  30
ATOM     30  O   LIG    1        1.394  -2.819   2.151  0.00  0.00    -0.391 OA
ATOM     31  H   LIG    1        1.287  -3.758   2.352  0.00  0.00    +0.210 HD
ENDBRANCH  29  30
ENDBRANCH   8  29
TORSDOF 6
