REMARK  Name = ZINC03984042
REMARK                            x       y       z     vdW  Elec       q    Type
REMARK                         _______ _______ _______ _____ _____    ______ ____
ROOT
ATOM      1  C   LIG    1        3.076  -4.561  -1.497  0.00  0.00    +0.184 C 
ATOM      2  C   LIG    1        1.963  -5.605  -1.449  0.00  0.00    +0.049 C 
ATOM      3  C   LIG    1        2.595  -6.994  -1.616  0.00  0.00    +0.031 C 
ATOM      4  C   LIG    1        3.256  -7.034  -2.970  0.00  0.00    -0.023 C 
ATOM      5  C   LIG    1        3.798  -5.949  -3.491  0.00  0.00    -0.045 C 
ATOM      6  C   LIG    1        4.387  -6.011  -4.849  0.00  0.00    -0.000 C 
ATOM      7  C   LIG    1        4.653  -4.892  -5.498  0.00  0.00    -0.023 C 
ATOM      8  C   LIG    1        4.420  -3.521  -4.942  0.00  0.00    +0.012 C 
ATOM      9  C   LIG    1        5.752  -2.951  -4.450  0.00  0.00    +0.012 C 
ATOM     10  C   LIG    1        3.427  -3.542  -3.778  0.00  0.00    +0.007 C 
ATOM     11  C   LIG    1        3.855  -4.627  -2.788  0.00  0.00    +0.063 C 
ENDROOT
BRANCH   1  12
ATOM     12  O   LIG    1        2.498  -3.260  -1.369  0.00  0.00    -0.461 OA
BRANCH  12  13
ATOM     13  C   LIG    1        2.009  -2.927  -0.164  0.00  0.00    +0.310 C 
ATOM     14  O   LIG    1        2.110  -3.696   0.763  0.00  0.00    -0.251 OA
BRANCH  13  15
ATOM     15  C   LIG    1        1.334  -1.594   0.033  0.00  0.00    +0.094 C 
ATOM     16  C   LIG    1        0.343  -1.351  -1.107  0.00  0.00    +0.019 C 
BRANCH  15  18
ATOM     17  C   LIG    1        0.088  -0.178   1.672  0.00  0.00    +0.004 C 
ATOM     18  C   LIG    1        0.587  -1.593   1.367  0.00  0.00    +0.011 C 
ENDBRANCH  15  18
ENDBRANCH  13  15
ENDBRANCH  12  13
ENDBRANCH   1  12
BRANCH  10  19
ATOM     19  C   LIG    1        3.421  -2.181  -3.079  0.00  0.00    +0.008 C 
BRANCH  19  20
ATOM     20  C   LIG    1        3.596  -1.072  -4.118  0.00  0.00    +0.045 C 
BRANCH  20  21
ATOM     21  C   LIG    1        3.761   0.272  -3.407  0.00  0.00    +0.179 C 
ATOM     22  C   LIG    1        4.122   1.351  -4.432  0.00  0.00    +0.076 C 
ATOM     23  C   LIG    1        4.246   2.704  -3.722  0.00  0.00    +0.129 C 
ATOM     24  C   LIG    1        2.908   3.036  -3.050  0.00  0.00    +0.152 C 
ATOM     25  C   LIG    1        2.497   1.853  -2.201  0.00  0.00    +0.310 C 
ATOM     26  O   LIG    1        2.146   2.002  -1.055  0.00  0.00    -0.251 OA
ATOM     27  O   LIG    1        2.533   0.625  -2.760  0.00  0.00    -0.461 OA
BRANCH  23  28
ATOM     28  O   LIG    1        4.569   3.717  -4.677  0.00  0.00    -0.391 OA
ATOM     29  H   LIG    1        4.663   4.601  -4.296  0.00  0.00    +0.210 HD
ENDBRANCH  23  28
ENDBRANCH  20  21
ENDBRANCH  19  20
ENDBRANCH  10  19
TORSDOF 8
