REMARK  Name = ZINC03961870
REMARK                            x       y       z     vdW  Elec       q    Type
REMARK                         _______ _______ _______ _____ _____    ______ ____
ROOT
ATOM      1  C   LIG    1       -0.071  -5.088  -3.204  0.00  0.00    +0.056 C 
ATOM      2  C   LIG    1        1.369  -5.325  -3.664  0.00  0.00    +0.020 C 
ATOM      3  C   LIG    1        1.368  -6.223  -4.902  0.00  0.00    +0.024 C 
ATOM      4  C   LIG    1        0.716  -7.564  -4.559  0.00  0.00    +0.073 C 
ATOM      5  C   LIG    1       -0.724  -7.328  -4.099  0.00  0.00    +0.024 C 
ATOM      6  C   LIG    1       -0.723  -6.429  -2.861  0.00  0.00    +0.020 C 
ENDROOT
BRANCH   4   7
ATOM      7  N   LIG    1        0.716  -8.425  -5.744  0.00  0.00    -0.308 N 
ATOM      8  H   LIG    1        0.743  -8.030  -6.630  0.00  0.00    +0.149 HD
ATOM      9  C   LIG    1        0.677  -9.765  -5.604  0.00  0.00    +0.244 C 
ATOM     10  O   LIG    1        0.643 -10.259  -4.494  0.00  0.00    -0.270 OA
BRANCH   9  11
ATOM     11  C   LIG    1        0.677 -10.633  -6.800  0.00  0.00    +0.040 A 
ATOM     12  C   LIG    1        0.721 -10.067  -8.076  0.00  0.00    +0.016 A 
ATOM     13  C   LIG    1        0.721 -10.881  -9.189  0.00  0.00    +0.042 A 
ATOM     14  C   LIG    1        0.676 -12.258  -9.044  0.00  0.00    +0.158 A 
ATOM     15  F   LIG    1        0.675 -13.051 -10.138  0.00  0.00    -0.202 F 
ATOM     16  C   LIG    1        0.630 -12.827  -7.778  0.00  0.00    +0.159 A 
ATOM     17  F   LIG    1        0.586 -14.171  -7.643  0.00  0.00    -0.202 F 
ATOM     18  C   LIG    1        0.637 -12.021  -6.657  0.00  0.00    +0.054 A 
ENDBRANCH   9  11
ENDBRANCH   4   7
BRANCH   1  19
ATOM     19  N   LIG    1       -0.071  -4.228  -2.019  0.00  0.00    -0.286 NA
ATOM     20  H   LIG    1       -0.098  -4.622  -1.133  0.00  0.00    +0.125 HD
BRANCH  19  30
ATOM     21  C   LIG    1        0.004  -0.775  -1.141  0.00  0.00    +0.130 C 
ATOM     22  C   LIG    1        0.043  -0.173  -2.423  0.00  0.00    +0.038 C 
ATOM     23  C   LIG    1        0.083   1.215  -2.591  0.00  0.00    +0.008 C 
ATOM     24  C   LIG    1        0.120   1.740  -3.849  0.00  0.00    +0.000 C 
ATOM     25  C   LIG    1        0.119   0.912  -4.969  0.00  0.00    +0.002 C 
ATOM     26  C   LIG    1        0.081  -0.444  -4.839  0.00  0.00    +0.019 C 
ATOM     27  C   LIG    1        0.043  -1.017  -3.561  0.00  0.00    +0.062 C 
ATOM     28  N   LIG    1        0.005  -2.345  -3.380  0.00  0.00    -0.286 NA
ATOM     29  H   LIG    1        0.004  -2.937  -4.149  0.00  0.00    +0.125 HD
ATOM     30  C   LIG    1       -0.032  -2.853  -2.163  0.00  0.00    +0.196 C 
ATOM     31  N   LIG    1       -0.027  -2.098  -1.067  0.00  0.00    -0.273 NA
ATOM     32  H   LIG    1       -0.871  -2.338  -0.548  0.00  0.00    +0.126 HD
BRANCH  21  34
ATOM     33  C   LIG    1       -1.267   0.443   0.582  0.00  0.00    +0.106 C 
ATOM     34  N   LIG    1        0.002  -0.004   0.002  0.00  0.00    -0.293 NA
ATOM     35  C   LIG    1        1.269   0.368   0.636  0.00  0.00    +0.106 C 
ENDBRANCH  21  34
ENDBRANCH  19  30
ENDBRANCH   1  19
TORSDOF 5
