REMARK  Name = ZINC03873287
REMARK                            x       y       z     vdW  Elec       q    Type
REMARK                         _______ _______ _______ _____ _____    ______ ____
ROOT
ATOM      1  C   LIG    1       -1.181  -2.103  -0.102  0.00  0.00    +0.225 A 
ATOM      2  N   LIG    1       -2.331  -2.750  -0.198  0.00  0.00    -0.195 NA
ATOM      3  C   LIG    1       -2.353  -4.074  -0.308  0.00  0.00    +0.167 A 
ATOM      4  C   LIG    1       -1.137  -4.780  -0.320  0.00  0.00    +0.169 A 
ATOM      5  N   LIG    1       -1.441  -6.096  -0.440  0.00  0.00    -0.229 NA
ATOM      6  C   LIG    1       -2.733  -6.239  -0.499  0.00  0.00    +0.199 A 
ATOM      7  C   LIG    1        0.057  -4.051  -0.216  0.00  0.00    +0.248 A 
ATOM      8  N   LIG    1       -3.340  -5.019  -0.422  0.00  0.00    -0.329 N 
ATOM      9  H   LIG    1       -4.295  -4.852  -0.444  0.00  0.00    +0.168 HD
ATOM     10  N   LIG    1       -0.011  -2.730  -0.115  0.00  0.00    -0.177 NA
ENDROOT
BRANCH   1  11
ATOM     11  N   LIG    1       -1.198  -0.721   0.010  0.00  0.00    -0.283 N 
ATOM     12  H   LIG    1       -2.042  -0.252   0.102  0.00  0.00    +0.155 HD
BRANCH  11  18
ATOM     13  C   LIG    1        1.064  -0.444  -0.788  0.00  0.00    +0.025 A 
ATOM     14  C   LIG    1        2.247   0.268  -0.805  0.00  0.00    +0.030 A 
ATOM     15  C   LIG    1        2.375   1.418  -0.049  0.00  0.00    +0.105 A 
ATOM     16  C   LIG    1        1.319   1.860   0.728  0.00  0.00    +0.030 A 
ATOM     17  C   LIG    1        0.133   1.153   0.750  0.00  0.00    +0.025 A 
ATOM     18  C   LIG    1        0.001  -0.003  -0.009  0.00  0.00    +0.034 A 
BRANCH  15  19
ATOM     19  S   LIG    1        3.887   2.323  -0.073  0.00  0.00    +0.056 S 
ATOM     20  O   LIG    1        4.904   1.405  -0.451  0.00  0.00    -0.153 OA
ATOM     21  O   LIG    1        3.939   3.060   1.141  0.00  0.00    -0.153 OA
BRANCH  19  22
ATOM     22  N   LIG    1        3.773   3.433  -1.296  0.00  0.00    -0.204 NA
ATOM     23  H   LIG    1        3.234   3.240  -2.079  0.00  0.00    +0.144 HD
ATOM     24  H   LIG    1        4.246   4.278  -1.230  0.00  0.00    +0.144 HD
ENDBRANCH  19  22
ENDBRANCH  15  19
ENDBRANCH  11  18
ENDBRANCH   1  11
BRANCH   7  25
ATOM     25  O   LIG    1        1.256  -4.683  -0.222  0.00  0.00    -0.475 OA
BRANCH  25  26
ATOM     26  C   LIG    1        2.421  -3.863  -0.112  0.00  0.00    +0.234 C 
BRANCH  26  27
ATOM     27  C   LIG    1        3.670  -4.747  -0.137  0.00  0.00    +0.027 C 
ATOM     28  C   LIG    1        3.686  -5.643   1.103  0.00  0.00    +0.007 C 
ATOM     29  C   LIG    1        4.935  -6.526   1.078  0.00  0.00    +0.000 C 
ATOM     30  C   LIG    1        6.184  -5.643   1.070  0.00  0.00    +0.000 C 
ATOM     31  C   LIG    1        6.168  -4.747  -0.170  0.00  0.00    +0.000 C 
ATOM     32  C   LIG    1        4.920  -3.864  -0.144  0.00  0.00    +0.007 C 
ENDBRANCH  26  27
ENDBRANCH  25  26
ENDBRANCH   7  25
TORSDOF 7
