REMARK  Name = ZINC04096261
REMARK                            x       y       z     vdW  Elec       q    Type
REMARK                         _______ _______ _______ _____ _____    ______ ____
ROOT
ATOM      1  C   LIG    1        1.797   3.718   1.433  0.00  0.00    +0.165 C 
ENDROOT
BRANCH   1   2
ATOM      2  C   LIG    1        2.500   5.051   1.471  0.00  0.00    +0.237 C 
ATOM      3  N   LIG    1        3.840   5.110   1.334  0.00  0.00    -0.288 N 
ATOM      4  C   LIG    1        4.725   3.968   1.041  0.00  0.00    +0.109 C 
ATOM      5  C   LIG    1        5.979   4.598   0.386  0.00  0.00    +0.021 C 
ATOM      6  C   LIG    1        6.125   5.915   1.193  0.00  0.00    +0.033 C 
ATOM      7  C   LIG    1        4.659   6.325   1.447  0.00  0.00    +0.162 C 
ATOM      8  O   LIG    1        1.860   6.070   1.625  0.00  0.00    -0.274 OA
BRANCH   7   9
ATOM      9  C   LIG    1        4.222   7.336   0.418  0.00  0.00    +0.231 C 
ATOM     10  N   LIG    1        4.841   8.531   0.341  0.00  0.00    -0.328 N 
ATOM     11  H   LIG    1        4.559   9.181  -0.321  0.00  0.00    +0.145 HD
ATOM     12  H   LIG    1        5.568   8.740   0.948  0.00  0.00    +0.145 HD
ATOM     13  O   LIG    1        3.312   7.074  -0.341  0.00  0.00    -0.274 OA
ENDBRANCH   7   9
ENDBRANCH   1   2
BRANCH   1  14
ATOM     14  N   LIG    1        0.566   3.793   2.223  0.00  0.00    -0.302 N 
ATOM     15  H   LIG    1        0.129   4.648   2.361  0.00  0.00    +0.150 HD
ATOM     16  C   LIG    1        0.039   2.673   2.757  0.00  0.00    +0.234 C 
ATOM     17  O   LIG    1        0.585   1.604   2.584  0.00  0.00    -0.274 OA
BRANCH  16  18
ATOM     18  C   LIG    1       -1.228   2.750   3.570  0.00  0.00    +0.159 C 
ATOM     19  C   LIG    1       -0.910   3.198   5.014  0.00  0.00    +0.041 C 
ATOM     20  C   LIG    1       -0.762   1.841   5.740  0.00  0.00    +0.098 C 
ATOM     21  C   LIG    1       -1.580   0.882   4.904  0.00  0.00    +0.214 C 
ATOM     22  O   LIG    1       -1.956  -0.212   5.270  0.00  0.00    -0.276 OA
ATOM     23  N   LIG    1       -1.832   1.418   3.695  0.00  0.00    -0.304 N 
ATOM     24  H   LIG    1       -2.346   0.983   2.998  0.00  0.00    +0.149 HD
ENDBRANCH  16  18
ENDBRANCH   1  14
BRANCH   1  25
ATOM     25  C   LIG    1        1.453   3.365  -0.016  0.00  0.00    +0.086 C 
BRANCH  25  27
ATOM     26  C   LIG    1       -0.431   1.663   0.133  0.00  0.00    +0.105 A 
ATOM     27  C   LIG    1        0.862   1.980  -0.068  0.00  0.00    +0.035 A 
ATOM     28  N   LIG    1        1.532   0.846  -0.322  0.00  0.00    -0.350 N 
ATOM     29  H   LIG    1        2.483   0.784  -0.504  0.00  0.00    +0.166 HD
ATOM     30  C   LIG    1        0.703  -0.161  -0.287  0.00  0.00    +0.171 A 
ATOM     31  N   LIG    1       -0.533   0.305  -0.006  0.00  0.00    -0.352 N 
ATOM     32  H   LIG    1       -1.342  -0.224   0.081  0.00  0.00    +0.166 HD
ENDBRANCH  25  27
ENDBRANCH   1  25
TORSDOF 6
