REMARK  Name = ZINC03976476
REMARK                            x       y       z     vdW  Elec       q    Type
REMARK                         _______ _______ _______ _____ _____    ______ ____
ROOT
ATOM      1  C   LIG    1        3.280   2.365   0.632  0.00  0.00    +0.223 C 
ATOM      2  N   LIG    1        3.159   2.684   1.936  0.00  0.00    -0.284 N 
ATOM      3  H   LIG    1        3.828   2.386   2.572  0.00  0.00    +0.155 HD
ATOM      4  O   LIG    1        2.414   2.688  -0.154  0.00  0.00    -0.275 OA
ENDROOT
BRANCH   1   5
ATOM      5  C   LIG    1        4.490   1.605   0.151  0.00  0.00    +0.048 C 
ATOM      6  C   LIG    1        4.296   1.214  -1.315  0.00  0.00    +0.016 C 
ATOM      7  C   LIG    1        3.054   0.330  -1.447  0.00  0.00    +0.001 C 
ATOM      8  C   LIG    1        3.233  -0.932  -0.602  0.00  0.00    +0.000 C 
ATOM      9  C   LIG    1        3.427  -0.540   0.865  0.00  0.00    +0.001 C 
ATOM     10  C   LIG    1        4.669   0.343   0.997  0.00  0.00    +0.016 C 
BRANCH   5  11
ATOM     11  C   LIG    1        5.732   2.489   0.283  0.00  0.00    +0.019 C 
BRANCH  11  12
ATOM     12  C   LIG    1        5.600   3.697  -0.646  0.00  0.00    -0.011 C 
BRANCH  12  14
ATOM     13  C   LIG    1        5.008   5.036   1.378  0.00  0.00    +0.004 C 
ATOM     14  C   LIG    1        4.597   4.689  -0.054  0.00  0.00    +0.000 C 
ENDBRANCH  12  14
BRANCH  12  15
ATOM     15  C   LIG    1        6.962   4.377  -0.796  0.00  0.00    +0.000 C 
ATOM     16  C   LIG    1        6.866   5.487  -1.844  0.00  0.00    +0.004 C 
ENDBRANCH  12  15
ENDBRANCH  11  12
ENDBRANCH   5  11
ENDBRANCH   1   5
BRANCH   2  17
ATOM     17  C   LIG    1        2.069   3.448   2.372  0.00  0.00    +0.047 A 
ATOM     18  C   LIG    1        0.911   3.504   1.611  0.00  0.00    +0.024 A 
ATOM     19  C   LIG    1       -0.164   4.258   2.043  0.00  0.00    +0.002 A 
ATOM     20  C   LIG    1       -0.089   4.958   3.234  0.00  0.00    +0.001 A 
ATOM     21  C   LIG    1        1.060   4.904   4.000  0.00  0.00    +0.017 A 
ATOM     22  C   LIG    1        2.145   4.154   3.572  0.00  0.00    +0.037 A 
BRANCH  22  23
ATOM     23  S   LIG    1        3.613   4.088   4.544  0.00  0.00    -0.050 S 
BRANCH  23  24
ATOM     24  C   LIG    1        3.469   2.511   5.193  0.00  0.00    +0.197 C 
ATOM     25  O   LIG    1        2.560   1.790   4.838  0.00  0.00    -0.285 OA
BRANCH  24  26
ATOM     26  C   LIG    1        4.471   2.017   6.204  0.00  0.00    +0.061 C 
ATOM     27  C   LIG    1        4.117   0.588   6.619  0.00  0.00    +0.016 C 
ATOM     28  C   LIG    1        4.444   2.927   7.435  0.00  0.00    +0.016 C 
ENDBRANCH  24  26
ENDBRANCH  23  24
ENDBRANCH  22  23
ENDBRANCH   2  17
TORSDOF 9
