REMARK  Name = ZINC03973408
REMARK                            x       y       z     vdW  Elec       q    Type
REMARK                         _______ _______ _______ _____ _____    ______ ____
ROOT
ATOM      1  C   LIG    1        0.666  -3.275  -0.021  0.00  0.00    +0.136 C 
ATOM      2  C   LIG    1        0.191  -3.589   1.412  0.00  0.00    +0.091 C 
ATOM      3  C   LIG    1        0.700  -4.990   1.663  0.00  0.00    +0.141 C 
ATOM      4  N   LIG    1        1.323  -5.410   0.639  0.00  0.00    -0.179 NA
ATOM      5  N   LIG    1        1.375  -4.503  -0.422  0.00  0.00    -0.216 N 
ENDROOT
BRANCH   1  11
ATOM      6  C   LIG    1       -0.017   1.362   0.009  0.00  0.00    +0.001 A 
ATOM      7  C   LIG    1        1.170   2.083   0.002  0.00  0.00    +0.002 A 
ATOM      8  C   LIG    1        2.386   1.436  -0.013  0.00  0.00    +0.026 A 
ATOM      9  C   LIG    1        2.428   0.046  -0.021  0.00  0.00    +0.047 A 
ATOM     10  C   LIG    1        1.223  -0.681  -0.013  0.00  0.00    +0.005 A 
ATOM     11  C   LIG    1        1.604  -2.095  -0.025  0.00  0.00    +0.000 A 
ATOM     12  C   LIG    1        2.945  -2.141  -0.038  0.00  0.00    +0.089 A 
ATOM     13  N   LIG    1        3.455  -0.871  -0.036  0.00  0.00    -0.360 N 
ATOM     14  H   LIG    1        4.399  -0.650  -0.044  0.00  0.00    +0.165 HD
ATOM     15  C   LIG    1        0.002  -0.004   0.002  0.00  0.00    +0.010 A 
ENDBRANCH   1  11
BRANCH   5  16
ATOM     16  C   LIG    1        1.994  -4.719  -1.654  0.00  0.00    +0.052 A 
ATOM     17  C   LIG    1        1.979  -3.725  -2.625  0.00  0.00    +0.027 A 
ATOM     18  C   LIG    1        2.593  -3.943  -3.843  0.00  0.00    +0.030 A 
ATOM     19  C   LIG    1        3.221  -5.149  -4.096  0.00  0.00    +0.105 A 
ATOM     20  C   LIG    1        3.239  -6.140  -3.132  0.00  0.00    +0.030 A 
ATOM     21  C   LIG    1        2.632  -5.927  -1.910  0.00  0.00    +0.027 A 
BRANCH  19  22
ATOM     22  S   LIG    1        4.002  -5.423  -5.652  0.00  0.00    +0.056 S 
ATOM     23  O   LIG    1        3.376  -4.548  -6.580  0.00  0.00    -0.153 OA
ATOM     24  O   LIG    1        4.047  -6.830  -5.842  0.00  0.00    -0.153 OA
BRANCH  22  25
ATOM     25  N   LIG    1        5.572  -4.914  -5.508  0.00  0.00    -0.204 NA
ATOM     26  H   LIG    1        6.175  -4.982  -6.265  0.00  0.00    +0.144 HD
ATOM     27  H   LIG    1        5.888  -4.549  -4.667  0.00  0.00    +0.144 HD
ENDBRANCH  22  25
ENDBRANCH  19  22
ENDBRANCH   5  16
BRANCH   3  28
ATOM     28  C   LIG    1        0.499  -5.771   2.936  0.00  0.00    +0.432 C 
ATOM     29  F   LIG    1       -0.870  -5.933   3.172  0.00  0.00    -0.165 F 
ATOM     30  F   LIG    1        1.078  -5.077   4.005  0.00  0.00    -0.165 F 
ATOM     31  F   LIG    1        1.103  -7.027   2.814  0.00  0.00    -0.165 F 
ENDBRANCH   3  28
TORSDOF 5
