REMARK  Name = ZINC03936307
REMARK                            x       y       z     vdW  Elec       q    Type
REMARK                         _______ _______ _______ _____ _____    ______ ____
ROOT
ATOM      1  N   LIG    1       -1.760  -2.010  -2.626  0.00  0.00    -0.292 N 
ATOM      2  H   LIG    1       -2.381  -2.056  -3.370  0.00  0.00    +0.151 HD
ATOM      3  C   LIG    1       -2.134  -2.449  -1.408  0.00  0.00    +0.312 C 
ATOM      4  N   LIG    1       -3.370  -2.951  -1.223  0.00  0.00    -0.187 N 
ATOM      5  C   LIG    1       -4.065  -3.488  -0.060  0.00  0.00    +0.288 C 
ATOM      6  C   LIG    1       -5.274  -3.721  -0.957  0.00  0.00    +0.101 C 
ATOM      7  C   LIG    1       -4.415  -3.136  -2.039  0.00  0.00    +0.237 C 
ATOM      8  O   LIG    1       -4.599  -2.914  -3.216  0.00  0.00    -0.274 OA
ATOM      9  O   LIG    1       -1.356  -2.391  -0.476  0.00  0.00    -0.252 OA
ENDROOT
BRANCH   6  10
ATOM     10  C   LIG    1       -6.488  -2.860  -0.601  0.00  0.00    +0.018 C 
ATOM     11  C   LIG    1       -7.620  -3.140  -1.591  0.00  0.00    +0.005 C 
ENDBRANCH   6  10
BRANCH   6  12
ATOM     12  C   LIG    1       -5.621  -5.197  -1.161  0.00  0.00    +0.018 C 
ATOM     13  C   LIG    1       -6.074  -5.803   0.168  0.00  0.00    +0.005 C 
ENDBRANCH   6  12
BRANCH   1  14
ATOM     14  C   LIG    1       -0.415  -1.464  -2.827  0.00  0.00    +0.105 C 
BRANCH  14  15
ATOM     15  C   LIG    1       -0.021  -1.619  -4.273  0.00  0.00    -0.023 A 
ATOM     16  C   LIG    1       -0.952  -1.390  -5.270  0.00  0.00    +0.009 A 
ATOM     17  C   LIG    1       -0.595  -1.530  -6.598  0.00  0.00    +0.050 A 
ATOM     18  C   LIG    1        0.698  -1.901  -6.934  0.00  0.00    +0.166 A 
ATOM     19  C   LIG    1        1.635  -2.131  -5.930  0.00  0.00    +0.167 A 
ATOM     20  O   LIG    1        2.820  -2.479  -6.511  0.00  0.00    -0.453 OA
ATOM     21  C   LIG    1        2.490  -2.857  -7.860  0.00  0.00    +0.466 C 
ATOM     22  O   LIG    1        1.295  -2.105  -8.144  0.00  0.00    -0.453 OA
ATOM     23  C   LIG    1        1.272  -1.983  -4.601  0.00  0.00    +0.055 A 
ENDBRANCH  14  15
BRANCH  14  24
ATOM     24  C   LIG    1       -0.406   0.020  -2.452  0.00  0.00    +0.027 C 
BRANCH  24  26
ATOM     25  C   LIG    1       -0.675   1.652  -0.580  0.00  0.00    +0.004 C 
ATOM     26  C   LIG    1       -0.684   0.169  -0.955  0.00  0.00    -0.001 C 
ENDBRANCH  24  26
ENDBRANCH  14  24
ENDBRANCH   1  14
BRANCH   5  27
ATOM     27  O   LIG    1       -4.293  -2.518   0.964  0.00  0.00    -0.469 OA
BRANCH  27  28
ATOM     28  C   LIG    1       -3.325  -2.374   1.904  0.00  0.00    +0.123 A 
ATOM     29  C   LIG    1       -2.174  -3.150   1.837  0.00  0.00    +0.046 A 
ATOM     30  C   LIG    1       -1.188  -3.008   2.789  0.00  0.00    +0.016 A 
ATOM     31  C   LIG    1       -1.347  -2.082   3.823  0.00  0.00    +0.037 A 
ATOM     32  C   LIG    1       -2.506  -1.303   3.886  0.00  0.00    +0.016 A 
ATOM     33  C   LIG    1       -3.484  -1.448   2.928  0.00  0.00    +0.046 A 
BRANCH  31  34
ATOM     34  C   LIG    1       -0.294  -1.926   4.845  0.00  0.00    +0.246 C 
ATOM     35  N   LIG    1       -0.631  -1.767   6.140  0.00  0.00    -0.301 N 
ATOM     36  C   LIG    1       -2.032  -1.867   6.575  0.00  0.00    +0.089 C 
ATOM     37  C   LIG    1       -2.105  -2.834   7.761  0.00  0.00    -0.060 C 
ATOM     38  N   LIG    1       -1.175  -2.393   8.809  0.00  0.00    +0.380 N 
ATOM     39  H   LIG    1       -1.385  -1.440   9.064  0.00  0.00    -0.082 HD
ATOM     40  C   LIG    1       -1.324  -3.256   9.989  0.00  0.00    -0.096 C 
ATOM     41  C   LIG    1        0.206  -2.473   8.318  0.00  0.00    -0.060 C 
ATOM     42  C   LIG    1        0.394  -1.494   7.160  0.00  0.00    +0.089 C 
ATOM     43  O   LIG    1        0.877  -1.942   4.519  0.00  0.00    -0.270 OA
ENDBRANCH  31  34
ENDBRANCH  27  28
ENDBRANCH   5  27
TORSDOF 9
