REMARK  Name = ZINC03952532
REMARK                            x       y       z     vdW  Elec       q    Type
REMARK                         _______ _______ _______ _____ _____    ______ ____
ROOT
ATOM      1  C   LIG    1        1.483   1.150   2.178  0.00  0.00    +0.166 C 
ENDROOT
BRANCH   1   3
ATOM      2  C   LIG    1        3.084   0.389   3.850  0.00  0.00    +0.240 C 
ATOM      3  N   LIG    1        2.451   1.414   3.246  0.00  0.00    -0.289 N 
ATOM      4  C   LIG    1        2.731   2.792   3.656  0.00  0.00    +0.133 C 
ATOM      5  O   LIG    1        2.851  -0.755   3.509  0.00  0.00    -0.271 OA
BRANCH   2   7
ATOM      6  C   LIG    1        4.681  -0.357   5.518  0.00  0.00    -0.023 C 
ATOM      7  C   LIG    1        4.056   0.654   4.922  0.00  0.00    +0.063 C 
BRANCH   6   8
ATOM      8  C   LIG    1        5.676  -0.086   6.616  0.00  0.00    +0.014 C 
BRANCH   8  10
ATOM      9  C   LIG    1        5.387  -2.369   7.588  0.00  0.00    -0.011 C 
ATOM     10  C   LIG    1        5.280  -0.869   7.869  0.00  0.00    -0.073 C 
ATOM     11  C   LIG    1        6.218  -0.498   9.020  0.00  0.00    -0.011 C 
BRANCH  10  12
ATOM     12  N   LIG    1        3.885  -0.544   8.216  0.00  0.00    +0.382 N 
ATOM     13  H   LIG    1        3.278  -0.769   7.419  0.00  0.00    -0.089 HD
ATOM     14  H   LIG    1        3.801   0.449   8.428  0.00  0.00    -0.089 HD
ATOM     15  H   LIG    1        3.590  -1.089   9.024  0.00  0.00    -0.089 HD
ENDBRANCH  10  12
ENDBRANCH   8  10
ENDBRANCH   6   8
ENDBRANCH   2   7
ENDBRANCH   1   3
BRANCH   1  16
ATOM     16  C   LIG    1        0.135   1.693   2.578  0.00  0.00    +0.237 C 
ATOM     17  N   LIG    1       -0.963   1.357   1.871  0.00  0.00    -0.291 N 
ATOM     18  C   LIG    1       -2.263   1.934   2.220  0.00  0.00    +0.133 C 
ATOM     19  O   LIG    1        0.037   2.431   3.535  0.00  0.00    -0.274 OA
BRANCH  17  20
ATOM     20  C   LIG    1       -0.855   0.415   0.754  0.00  0.00    +0.166 C 
BRANCH  20  21
ATOM     21  C   LIG    1       -1.598  -0.852   1.093  0.00  0.00    +0.234 C 
ATOM     22  N   LIG    1       -1.636  -1.868   0.208  0.00  0.00    -0.317 N 
ATOM     23  H   LIG    1       -1.185  -1.783  -0.647  0.00  0.00    +0.148 HD
ATOM     24  C   LIG    1       -2.359  -3.099   0.536  0.00  0.00    +0.128 C 
ATOM     25  O   LIG    1       -2.162  -0.957   2.161  0.00  0.00    -0.274 OA
ENDBRANCH  20  21
BRANCH  20  26
ATOM     26  C   LIG    1       -1.462   1.042  -0.502  0.00  0.00    +0.067 C 
BRANCH  26  27
ATOM     27  C   LIG    1       -0.608   2.200  -0.948  0.00  0.00    -0.045 A 
ATOM     28  C   LIG    1       -0.793   3.451  -0.390  0.00  0.00    +0.004 A 
ATOM     29  C   LIG    1       -0.006   4.513  -0.795  0.00  0.00    +0.000 A 
ATOM     30  C   LIG    1        0.959   4.326  -1.767  0.00  0.00    +0.000 A 
ATOM     31  C   LIG    1        1.141   3.076  -2.329  0.00  0.00    +0.000 A 
ATOM     32  C   LIG    1        0.357   2.014  -1.920  0.00  0.00    +0.004 A 
ENDBRANCH  26  27
ENDBRANCH  20  26
ENDBRANCH  17  20
ENDBRANCH   1  16
BRANCH   1  33
ATOM     33  C   LIG    1        1.946   1.833   0.890  0.00  0.00    +0.067 C 
BRANCH  33  34
ATOM     34  C   LIG    1        3.227   1.196   0.416  0.00  0.00    -0.045 A 
ATOM     35  C   LIG    1        3.172   0.107  -0.452  0.00  0.00    +0.004 A 
ATOM     36  C   LIG    1        4.309  -0.491  -0.899  0.00  0.00    +0.009 A 
ATOM     37  C   LIG    1        5.560  -0.006  -0.481  0.00  0.00    -0.018 A 
ATOM     38  C   LIG    1        6.757  -0.597  -0.921  0.00  0.00    +0.008 A 
ATOM     39  C   LIG    1        7.950  -0.100  -0.495  0.00  0.00    +0.001 A 
ATOM     40  C   LIG    1        8.005   0.989   0.373  0.00  0.00    +0.001 A 
ATOM     41  C   LIG    1        6.867   1.587   0.820  0.00  0.00    +0.008 A 
ATOM     42  C   LIG    1        5.616   1.101   0.402  0.00  0.00    -0.018 A 
ATOM     43  C   LIG    1        4.420   1.696   0.838  0.00  0.00    +0.012 A 
ENDBRANCH  33  34
ENDBRANCH   1  33
TORSDOF 12
