REMARK  Name = ZINC03885245
REMARK                            x       y       z     vdW  Elec       q    Type
REMARK                         _______ _______ _______ _____ _____    ______ ____
ROOT
ATOM      1  C   LIG    1       -2.898   0.520   2.058  0.00  0.00    +0.108 A 
ATOM      2  C   LIG    1       -2.215   1.396   2.881  0.00  0.00    +0.030 A 
ATOM      3  C   LIG    1       -2.846   2.528   3.361  0.00  0.00    +0.024 A 
ATOM      4  C   LIG    1       -4.161   2.785   3.017  0.00  0.00    +0.071 A 
ATOM      5 CL   LIG    1       -4.955   4.207   3.619  0.00  0.00    -0.081 Cl
ATOM      6  C   LIG    1       -4.844   1.909   2.192  0.00  0.00    +0.142 A 
ATOM      7  C   LIG    1       -4.210   0.779   1.709  0.00  0.00    +0.062 A 
ENDROOT
BRANCH   1   8
ATOM      8  S   LIG    1       -2.092  -0.923   1.446  0.00  0.00    +0.061 S 
ATOM      9  O   LIG    1       -1.043  -1.219   2.357  0.00  0.00    -0.153 OA
ATOM     10  O   LIG    1       -3.116  -1.857   1.133  0.00  0.00    -0.153 OA
BRANCH   8  11
ATOM     11  N   LIG    1       -1.372  -0.511   0.012  0.00  0.00    -0.177 NA
BRANCH  11  13
ATOM     12  C   LIG    1       -0.019   1.526   0.010  0.00  0.00    +0.022 C 
ATOM     13  C   LIG    1        0.002  -0.004   0.002  0.00  0.00    +0.106 C 
ENDBRANCH  11  13
BRANCH  11  14
ATOM     14  C   LIG    1       -2.110  -0.654  -1.245  0.00  0.00    +0.106 C 
ATOM     15  C   LIG    1       -1.773  -2.003  -1.884  0.00  0.00    +0.022 C 
ENDBRANCH  11  14
ENDBRANCH   8  11
ENDBRANCH   1   8
BRANCH   6  16
ATOM     16  N   LIG    1       -6.250   2.183   1.823  0.00  0.00    +0.007 N 
ATOM     17  O   LIG    1       -6.847   1.417   1.103  0.00  0.00    -0.130 OA
BRANCH  16  18
ATOM     18  O   LIG    1       -6.803   3.173   2.243  0.00  0.00    -0.396 OA
ATOM     19  H   LIG    1       -6.341   3.767   2.801  0.00  0.00    +0.329 HD
ENDBRANCH  16  18
ENDBRANCH   6  16
TORSDOF 6
