REMARK  Name = ZINC03981896
REMARK                            x       y       z     vdW  Elec       q    Type
REMARK                         _______ _______ _______ _____ _____    ______ ____
ROOT
ATOM      1  O   LIG    1       -0.410   5.298   2.416  0.00  0.00    -0.491 OA
ENDROOT
BRANCH   1  11
ATOM      2  C   LIG    1       -0.999   5.859   4.653  0.00  0.00    +0.046 A 
ATOM      3  C   LIG    1       -1.934   5.870   5.666  0.00  0.00    +0.007 A 
ATOM      4  C   LIG    1       -3.198   5.327   5.469  0.00  0.00    -0.038 A 
ATOM      5  C   LIG    1       -3.524   4.786   4.244  0.00  0.00    -0.009 A 
ATOM      6  C   LIG    1       -4.886   4.207   3.954  0.00  0.00    +0.223 C 
ATOM      7  N   LIG    1       -5.639   4.067   5.204  0.00  0.00    -0.223 N 
ATOM      8  C   LIG    1       -5.599   5.196   6.148  0.00  0.00    +0.192 C 
ATOM      9  C   LIG    1       -2.586   4.775   3.222  0.00  0.00    +0.052 A 
ATOM     10  C   LIG    1       -4.158   5.356   6.630  0.00  0.00    +0.070 C 
ATOM     11  C   LIG    1       -1.325   5.312   3.420  0.00  0.00    +0.121 A 
BRANCH   7  12
ATOM     12  C   LIG    1       -6.354   2.927   5.484  0.00  0.00    +0.327 C 
ATOM     13  N   LIG    1       -7.004   2.890   6.639  0.00  0.00    -0.295 N 
ATOM     14  H   LIG    1       -6.959   3.692   7.279  0.00  0.00    +0.254 HD
ATOM     15  H   LIG    1       -7.549   2.066   6.892  0.00  0.00    +0.254 HD
BRANCH  12  16
ATOM     16  N   LIG    1       -6.373   1.889   4.583  0.00  0.00    -0.254 N 
ATOM     17  H   LIG    1       -6.878   1.084   4.780  0.00  0.00    +0.241 HD
ATOM     18  H   LIG    1       -5.882   1.961   3.750  0.00  0.00    +0.241 HD
ENDBRANCH  12  16
ENDBRANCH   7  12
ENDBRANCH   1  11
BRANCH   1  19
ATOM     19  C   LIG    1        0.870   5.870   2.695  0.00  0.00    +0.247 C 
BRANCH  19  20
ATOM     20  C   LIG    1        1.758   5.762   1.454  0.00  0.00    +0.104 C 
ATOM     21  C   LIG    1        1.107   6.518   0.292  0.00  0.00    +0.037 C 
ATOM     22  C   LIG    1        2.031   6.457  -0.929  0.00  0.00    +0.086 C 
ATOM     23  N   LIG    1        3.328   7.059  -0.594  0.00  0.00    -0.299 NA
ATOM     24  C   LIG    1        3.992   6.321   0.489  0.00  0.00    +0.086 C 
ATOM     25  C   LIG    1        3.128   6.378   1.751  0.00  0.00    +0.037 C 
BRANCH  23  26
ATOM     26  C   LIG    1        4.146   7.139  -1.717  0.00  0.00    +0.059 C 
ATOM     27  C   LIG    1        5.418   6.567  -1.718  0.00  0.00    +0.034 C 
ATOM     28  C   LIG    1        6.194   6.664  -2.854  0.00  0.00    +0.082 C 
ATOM     29  N   LIG    1        5.800   7.301  -3.990  0.00  0.00    -0.316 NA
ATOM     30  H   LIG    1        6.403   7.360  -4.819  0.00  0.00    +0.122 HD
ATOM     31  C   LIG    1        4.557   7.855  -3.961  0.00  0.00    +0.082 C 
ATOM     32  C   LIG    1        3.716   7.798  -2.869  0.00  0.00    +0.034 C 
ENDBRANCH  23  26
BRANCH  20  33
ATOM     33  C   LIG    1        1.928   4.312   1.080  0.00  0.00    +0.314 C 
ATOM     34  O   LIG    1        3.031   3.820   1.055  0.00  0.00    -0.250 OA
BRANCH  33  35
ATOM     35  O   LIG    1        0.853   3.568   0.774  0.00  0.00    -0.480 OA
ATOM     36  H   LIG    1       -0.002   3.950   0.793  0.00  0.00    +0.295 HD
ENDBRANCH  33  35
ENDBRANCH  20  33
ENDBRANCH  19  20
ENDBRANCH   1  19
TORSDOF 8
