REMARK  Name = ZINC03999512
REMARK                            x       y       z     vdW  Elec       q    Type
REMARK                         _______ _______ _______ _____ _____    ______ ____
ROOT
ATOM      1  C   LIG    1       -1.777   0.707   1.661  0.00  0.00    +0.105 C 
ATOM      2  C   LIG    1       -0.534   1.540   1.405  0.00  0.00    +0.029 C 
ATOM      3  C   LIG    1        0.723   1.186   2.211  0.00  0.00    +0.033 C 
ATOM      4  C   LIG    1        1.835   1.607   1.248  0.00  0.00    -0.030 C 
ATOM      5  C   LIG    1        1.393   1.563  -0.003  0.00  0.00    -0.023 C 
ATOM      6  C   LIG    1       -0.013   1.086   0.008  0.00  0.00    +0.049 C 
ATOM      7  C   LIG    1       -1.003   1.535  -0.994  0.00  0.00    -0.019 A 
ATOM      8  C   LIG    1       -0.643   1.936  -2.257  0.00  0.00    +0.021 A 
ATOM      9  C   LIG    1       -1.622   2.336  -3.171  0.00  0.00    +0.059 A 
ATOM     10  C   LIG    1       -2.969   2.325  -2.792  0.00  0.00    +0.017 A 
ATOM     11  C   LIG    1       -3.315   1.882  -1.576  0.00  0.00    +0.024 A 
ATOM     12  C   LIG    1       -2.352   1.506  -0.642  0.00  0.00    +0.031 A 
ATOM     13  N   LIG    1       -2.757   1.128   0.636  0.00  0.00    -0.336 N 
ATOM     14  H   LIG    1       -3.701   1.141   0.859  0.00  0.00    +0.147 HD
ENDROOT
BRANCH   1  17
ATOM     15  C   LIG    1       -3.570   2.374   4.536  0.00  0.00    +0.001 A 
ATOM     16  C   LIG    1       -3.072   2.120   3.271  0.00  0.00    +0.005 A 
ATOM     17  C   LIG    1       -2.315   0.987   3.041  0.00  0.00    -0.026 A 
ATOM     18  C   LIG    1       -2.046   0.112   4.077  0.00  0.00    +0.020 A 
ATOM     19  C   LIG    1       -2.539   0.369   5.344  0.00  0.00    +0.018 A 
ATOM     20 BR   LIG    1       -2.170  -0.826   6.762  0.00  0.00    -0.050 Br
ATOM     21  C   LIG    1       -3.301   1.500   5.573  0.00  0.00    +0.015 A 
ENDBRANCH   1  17
BRANCH   9  22
ATOM     22  C   LIG    1       -1.238   2.767  -4.527  0.00  0.00    +0.337 C 
ATOM     23  O   LIG    1       -0.068   2.775  -4.854  0.00  0.00    -0.245 OA
BRANCH  22  24
ATOM     24  O   LIG    1       -2.185   3.152  -5.405  0.00  0.00    -0.477 OA
ATOM     25  H   LIG    1       -3.088   3.145  -5.154  0.00  0.00    +0.295 HD
ENDBRANCH  22  24
ENDBRANCH   9  22
TORSDOF 3
