REMARK  Name = ZINC03902902
REMARK                            x       y       z     vdW  Elec       q    Type
REMARK                         _______ _______ _______ _____ _____    ______ ____
ROOT
ATOM      1  C   LIG    1        0.230   1.022   2.224  0.00  0.00    +0.001 A 
ATOM      2  C   LIG    1        1.415   1.737   2.215  0.00  0.00    +0.001 A 
ATOM      3  C   LIG    1        2.584   1.148   1.771  0.00  0.00    +0.012 A 
ATOM      4  C   LIG    1        2.572  -0.172   1.329  0.00  0.00    +0.033 A 
ATOM      5  C   LIG    1        1.369  -0.899   1.338  0.00  0.00    +0.033 A 
ATOM      6  C   LIG    1        1.347  -2.301   0.871  0.00  0.00    +0.196 C 
ATOM      7  C   LIG    1        2.587  -2.934   0.397  0.00  0.00    +0.055 A 
ATOM      8  C   LIG    1        2.579  -4.260  -0.048  0.00  0.00    +0.036 A 
ATOM      9  C   LIG    1        3.764  -4.850  -0.497  0.00  0.00    +0.025 A 
ATOM     10  C   LIG    1        4.932  -4.145  -0.506  0.00  0.00    +0.025 A 
ATOM     11  C   LIG    1        4.967  -2.819  -0.066  0.00  0.00    +0.036 A 
ATOM     12  C   LIG    1        3.795  -2.205   0.388  0.00  0.00    +0.055 A 
ATOM     13  O   LIG    1        0.306  -2.929   0.879  0.00  0.00    -0.287 OA
ATOM     14  C   LIG    1        3.817  -0.809   0.851  0.00  0.00    +0.196 C 
ATOM     15  O   LIG    1        4.859  -0.181   0.842  0.00  0.00    -0.287 OA
ATOM     16  C   LIG    1        0.200  -0.290   1.789  0.00  0.00    +0.012 A 
ENDROOT
BRANCH   8  17
ATOM     17  N   LIG    1        1.399  -4.988  -0.044  0.00  0.00    -0.357 N 
ATOM     18  H   LIG    1        0.682  -4.745   0.563  0.00  0.00    +0.142 HD
ATOM     19  H   LIG    1        1.290  -5.739  -0.648  0.00  0.00    +0.142 HD
ENDBRANCH   8  17
BRANCH  11  20
ATOM     20  N   LIG    1        6.161  -2.114  -0.080  0.00  0.00    -0.357 N 
ATOM     21  H   LIG    1        6.287  -1.363   0.521  0.00  0.00    +0.142 HD
ATOM     22  H   LIG    1        6.869  -2.371  -0.690  0.00  0.00    +0.142 HD
ENDBRANCH  11  20
TORSDOF 2
