REMARK  Name = ZINC03919807
REMARK                            x       y       z     vdW  Elec       q    Type
REMARK                         _______ _______ _______ _____ _____    ______ ____
ROOT
ATOM      1  C   LIG    1        7.471   5.181  -1.701  0.00  0.00    +0.086 C 
ENDROOT
BRANCH   1   4
ATOM      2  N   LIG    1        9.168   6.602  -2.805  0.00  0.00    -0.309 N 
ATOM      3  H   LIG    1        9.549   5.797  -3.188  0.00  0.00    +0.149 HD
ATOM      4  C   LIG    1        8.112   6.518  -1.972  0.00  0.00    +0.217 C 
ATOM      5  O   LIG    1        7.678   7.518  -1.441  0.00  0.00    -0.275 OA
BRANCH   2   6
ATOM      6  C   LIG    1        9.740   7.910  -3.133  0.00  0.00    +0.097 C 
BRANCH   6   8
ATOM      7  C   LIG    1        9.928   8.664  -5.466  0.00  0.00    +0.089 C 
ATOM      8  C   LIG    1       10.366   7.857  -4.503  0.00  0.00    +0.002 C 
BRANCH   7   9
ATOM      9  C   LIG    1       10.539   8.611  -6.802  0.00  0.00    +0.332 C 
ATOM     10  O   LIG    1       11.443   7.831  -7.027  0.00  0.00    -0.246 OA
BRANCH   9  11
ATOM     11  O   LIG    1       10.095   9.429  -7.778  0.00  0.00    -0.462 OA
BRANCH  11  13
ATOM     12  C   LIG    1       10.112  10.320 -10.044  0.00  0.00    +0.048 C 
ATOM     13  C   LIG    1       10.744   9.322  -9.072  0.00  0.00    +0.229 C 
ENDBRANCH  11  13
ENDBRANCH   9  11
ENDBRANCH   7   9
ENDBRANCH   6   8
BRANCH   6  14
ATOM     14  C   LIG    1       10.808   8.274  -2.099  0.00  0.00    +0.039 C 
BRANCH  14  15
ATOM     15  C   LIG    1       11.314   9.693  -2.365  0.00  0.00    +0.078 C 
ATOM     16  C   LIG    1       12.503  10.026  -1.434  0.00  0.00    +0.031 C 
ATOM     17  C   LIG    1       12.253  11.519  -1.127  0.00  0.00    +0.105 C 
ATOM     18  N   LIG    1       10.809  11.718  -1.298  0.00  0.00    -0.315 N 
ATOM     19  H   LIG    1       10.317  12.479  -0.953  0.00  0.00    +0.149 HD
ATOM     20  C   LIG    1       10.257  10.710  -1.995  0.00  0.00    +0.216 C 
ATOM     21  O   LIG    1        9.082  10.628  -2.285  0.00  0.00    -0.276 OA
ENDBRANCH  14  15
ENDBRANCH   6  14
ENDBRANCH   2   6
ENDBRANCH   1   4
BRANCH   1  22
ATOM     22  C   LIG    1        6.476   5.318  -0.547  0.00  0.00    +0.089 C 
BRANCH  22  23
ATOM     23  C   LIG    1        5.926   3.959  -0.195  0.00  0.00    +0.154 C 
ATOM     24  O   LIG    1        6.292   2.983  -0.804  0.00  0.00    -0.295 OA
BRANCH  23  25
ATOM     25  C   LIG    1        4.918   3.820   0.917  0.00  0.00    +0.142 C 
BRANCH  25  26
ATOM     26  N   LIG    1        4.279   2.504   0.834  0.00  0.00    -0.300 N 
ATOM     27  H   LIG    1        4.741   1.766   0.407  0.00  0.00    +0.150 HD
ATOM     28  C   LIG    1        3.049   2.319   1.353  0.00  0.00    +0.266 C 
ATOM     29  O   LIG    1        2.470   3.243   1.888  0.00  0.00    -0.268 OA
BRANCH  28  30
ATOM     30  C   LIG    1        2.402   0.987   1.269  0.00  0.00    +0.168 A 
ATOM     31  C   LIG    1        1.116   0.628   1.763  0.00  0.00    +0.080 A 
ATOM     32  C   LIG    1        0.998  -0.681   1.440  0.00  0.00    +0.135 A 
ATOM     33  C   LIG    1       -0.180  -1.575   1.730  0.00  0.00    +0.089 C 
ATOM     34  O   LIG    1        2.131  -1.027   0.814  0.00  0.00    -0.359 OA
ATOM     35  N   LIG    1        2.898  -0.097   0.726  0.00  0.00    -0.073 NA
ENDBRANCH  28  30
ENDBRANCH  25  26
BRANCH  25  36
ATOM     36  C   LIG    1        5.626   3.959   2.266  0.00  0.00    +0.010 C 
ATOM     37  C   LIG    1        6.688   2.867   2.401  0.00  0.00    +0.009 C 
ATOM     38  C   LIG    1        4.603   3.817   3.396  0.00  0.00    +0.009 C 
ENDBRANCH  25  36
ENDBRANCH  23  25
ENDBRANCH  22  23
ENDBRANCH   1  22
BRANCH   1  39
ATOM     39  C   LIG    1        6.736   4.704  -2.955  0.00  0.00    +0.048 C 
BRANCH  39  40
ATOM     40  C   LIG    1        7.737   4.410  -4.043  0.00  0.00    -0.046 A 
ATOM     41  C   LIG    1        8.029   5.372  -4.991  0.00  0.00    +0.006 A 
ATOM     42  C   LIG    1        8.951   5.105  -5.986  0.00  0.00    +0.038 A 
ATOM     43  C   LIG    1        9.573   3.870  -6.039  0.00  0.00    +0.123 A 
ATOM     44  F   LIG    1       10.471   3.606  -7.014  0.00  0.00    -0.205 F 
ATOM     45  C   LIG    1        9.276   2.905  -5.091  0.00  0.00    +0.038 A 
ATOM     46  C   LIG    1        8.358   3.176  -4.094  0.00  0.00    +0.006 A 
ENDBRANCH  39  40
ENDBRANCH   1  39
TORSDOF 16
