REMARK  Name = ZINC04078304
REMARK                            x       y       z     vdW  Elec       q    Type
REMARK                         _______ _______ _______ _____ _____    ______ ____
ROOT
ATOM      1  C   LIG    1        2.875  -6.833  -0.065  0.00  0.00    +0.160 A 
ATOM      2  N   LIG    1        1.654  -6.318  -0.051  0.00  0.00    -0.133 NA
ATOM      3  N   LIG    1        1.456  -5.073  -0.041  0.00  0.00    -0.125 NA
ATOM      4  C   LIG    1        2.454  -4.204  -0.045  0.00  0.00    +0.189 A 
ATOM      5  S   LIG    1        3.846  -5.329  -0.072  0.00  0.00    -0.024 S 
ENDROOT
BRANCH   4   6
ATOM      6  N   LIG    1        2.429  -2.812  -0.037  0.00  0.00    -0.259 N 
ATOM      7  H   LIG    1        3.260  -2.312  -0.042  0.00  0.00    +0.157 HD
ATOM      8  C   LIG    1        1.249  -2.160  -0.022  0.00  0.00    +0.250 C 
ATOM      9  O   LIG    1        0.208  -2.787  -0.016  0.00  0.00    -0.270 OA
BRANCH   8  10
ATOM     10  C   LIG    1        1.222  -0.683  -0.013  0.00  0.00    +0.037 A 
ATOM     11  C   LIG    1        0.002  -0.004   0.002  0.00  0.00    +0.014 A 
ATOM     12  C   LIG    1       -0.017   1.375   0.010  0.00  0.00    +0.021 A 
ATOM     13  C   LIG    1        1.172   2.086   0.002  0.00  0.00    +0.041 A 
ATOM     14 CL   LIG    1        1.140   3.822   0.012  0.00  0.00    -0.084 Cl
ATOM     15  C   LIG    1        2.385   1.419  -0.013  0.00  0.00    +0.021 A 
ATOM     16  C   LIG    1        2.417   0.040  -0.021  0.00  0.00    +0.014 A 
ENDBRANCH   8  10
ENDBRANCH   4   6
BRANCH   1  17
ATOM     17  S   LIG    1        3.394  -8.517  -0.080  0.00  0.00    -0.092 S 
BRANCH  17  18
ATOM     18  C   LIG    1        1.841  -9.455  -0.071  0.00  0.00    +0.111 C 
BRANCH  18  21
ATOM     19  C   LIG    1        2.575 -12.969   1.100  0.00  0.00    +0.003 A 
ATOM     20  C   LIG    1        2.296 -11.614   1.109  0.00  0.00    +0.004 A 
ATOM     21  C   LIG    1        2.145 -10.931  -0.083  0.00  0.00    -0.034 A 
ATOM     22  C   LIG    1        2.268 -11.601  -1.285  0.00  0.00    +0.042 A 
ATOM     23  C   LIG    1        2.553 -12.956  -1.296  0.00  0.00    +0.124 A 
ATOM     24  F   LIG    1        2.678 -13.612  -2.470  0.00  0.00    -0.205 F 
ATOM     25  C   LIG    1        2.703 -13.640  -0.101  0.00  0.00    +0.038 A 
ENDBRANCH  18  21
ENDBRANCH  17  18
ENDBRANCH   1  17
TORSDOF 5
