REMARK  Name = ZINC03936607
REMARK                            x       y       z     vdW  Elec       q    Type
REMARK                         _______ _______ _______ _____ _____    ______ ____
ROOT
ATOM      1  C   LIG    1        3.596  -6.598  -1.316  0.00  0.00    +0.164 C 
ATOM      2  C   LIG    1        4.441  -7.738  -0.702  0.00  0.00    +0.049 C 
ATOM      3  C   LIG    1        5.264  -6.981   0.364  0.00  0.00    +0.110 C 
ATOM      4  N   LIG    1        5.338  -5.594  -0.110  0.00  0.00    -0.296 N 
ATOM      5  C   LIG    1        4.405  -5.348  -1.050  0.00  0.00    +0.235 C 
ATOM      6  O   LIG    1        4.239  -4.282  -1.604  0.00  0.00    -0.274 OA
ENDROOT
BRANCH   1   7
ATOM      7  N   LIG    1        3.428  -6.803  -2.757  0.00  0.00    -0.178 NA
ATOM      8  H   LIG    1        4.136  -7.220  -3.273  0.00  0.00    +0.149 HD
BRANCH   7   9
ATOM      9  S   LIG    1        2.030  -6.323  -3.504  0.00  0.00    +0.059 S 
ATOM     10  O   LIG    1        2.182  -6.629  -4.884  0.00  0.00    -0.153 OA
ATOM     11  O   LIG    1        0.958  -6.832  -2.724  0.00  0.00    -0.153 OA
BRANCH   9  18
ATOM     12  C   LIG    1        0.606  -0.607  -1.056  0.00  0.00    +0.121 A 
ATOM     13  C   LIG    1        1.174   0.177  -2.065  0.00  0.00    +0.046 A 
ATOM     14  C   LIG    1        1.785  -0.397  -3.135  0.00  0.00    +0.012 A 
ATOM     15  C   LIG    1        1.849  -1.798  -3.233  0.00  0.00    -0.018 A 
ATOM     16  C   LIG    1        2.473  -2.425  -4.325  0.00  0.00    +0.010 A 
ATOM     17  C   LIG    1        2.517  -3.784  -4.388  0.00  0.00    +0.029 A 
ATOM     18  C   LIG    1        1.952  -4.567  -3.383  0.00  0.00    +0.106 A 
ATOM     19  C   LIG    1        1.339  -3.996  -2.311  0.00  0.00    +0.037 A 
ATOM     20  C   LIG    1        1.274  -2.595  -2.211  0.00  0.00    -0.013 A 
ATOM     21  C   LIG    1        0.654  -1.970  -1.116  0.00  0.00    +0.054 A 
BRANCH  12  23
ATOM     22  C   LIG    1       -0.017   1.425   0.010  0.00  0.00    +0.277 C 
ATOM     23  O   LIG    1        0.002  -0.004   0.002  0.00  0.00    -0.495 OA
ENDBRANCH  12  23
ENDBRANCH   9  18
ENDBRANCH   7   9
ENDBRANCH   1   7
BRANCH   4  24
ATOM     24  C   LIG    1        6.300  -4.603   0.379  0.00  0.00    +0.143 C 
BRANCH  24  25
ATOM     25  C   LIG    1        7.548  -4.657  -0.464  0.00  0.00    -0.029 A 
ATOM     26  C   LIG    1        8.583  -5.505  -0.111  0.00  0.00    +0.005 A 
ATOM     27  C   LIG    1        9.732  -5.560  -0.879  0.00  0.00    +0.001 A 
ATOM     28  C   LIG    1        9.853  -4.769  -2.003  0.00  0.00    +0.016 A 
ATOM     29  C   LIG    1        8.813  -3.912  -2.365  0.00  0.00    +0.061 A 
ATOM     30  C   LIG    1        7.654  -3.866  -1.589  0.00  0.00    +0.021 A 
BRANCH  29  31
ATOM     31  C   LIG    1        8.936  -3.061  -3.569  0.00  0.00    +0.266 C 
ATOM     32  N   LIG    1       10.134  -2.635  -3.963  0.00  0.00    -0.288 N 
ATOM     33  H   LIG    1       10.214  -2.076  -4.752  0.00  0.00    +0.301 HD
ATOM     34  H   LIG    1       10.926  -2.882  -3.461  0.00  0.00    +0.301 HD
BRANCH  31  35
ATOM     35  N   LIG    1        7.848  -2.722  -4.258  0.00  0.00    -0.250 N 
ATOM     36  H   LIG    1        7.929  -2.164  -5.047  0.00  0.00    +0.288 HD
ATOM     37  H   LIG    1        6.975  -3.032  -3.971  0.00  0.00    +0.288 HD
ENDBRANCH  31  35
ENDBRANCH  29  31
ENDBRANCH  24  25
ENDBRANCH   4  24
TORSDOF 8
