REMARK  Name = ZINC03873121
REMARK                            x       y       z     vdW  Elec       q    Type
REMARK                         _______ _______ _______ _____ _____    ______ ____
ROOT
ATOM      1  C   LIG    1        3.898   6.194   0.455  0.00  0.00    +0.044 C 
ATOM      2  C   LIG    1        3.738   7.533  -0.218  0.00  0.00    -0.046 A 
ATOM      3  C   LIG    1        4.850   8.235  -0.635  0.00  0.00    +0.008 A 
ATOM      4  C   LIG    1        4.713   9.472  -1.251  0.00  0.00    -0.038 A 
ATOM      5  C   LIG    1        3.456   9.996  -1.458  0.00  0.00    -0.038 A 
ATOM      6  C   LIG    1        3.232  11.322  -2.135  0.00  0.00    -0.010 C 
ATOM      7  C   LIG    1        2.137  12.090  -1.392  0.00  0.00    +0.016 C 
ATOM      8  C   LIG    1        2.788  11.082  -3.579  0.00  0.00    +0.016 C 
ATOM      9  C   LIG    1        4.516  12.150  -2.134  0.00  0.00    +0.012 C 
ATOM     10  C   LIG    1        5.652  11.281  -2.688  0.00  0.00    +0.012 C 
ATOM     11  C   LIG    1        2.338   9.286  -1.039  0.00  0.00    +0.009 A 
ATOM     12  C   LIG    1        5.970  10.193  -1.664  0.00  0.00    -0.010 C 
ATOM     13  C   LIG    1        6.947   9.191  -2.280  0.00  0.00    +0.016 C 
ATOM     14  C   LIG    1        6.613  10.832  -0.431  0.00  0.00    +0.016 C 
ATOM     15  C   LIG    1        2.477   8.059  -0.424  0.00  0.00    -0.032 A 
ENDROOT
BRANCH  15  16
ATOM     16  C   LIG    1        1.257   7.297   0.026  0.00  0.00    +0.038 C 
ATOM     17  C   LIG    1       -0.024   7.466  -0.793  0.00  0.00    +0.019 C 
ATOM     18  C   LIG    1        0.766   6.157  -0.868  0.00  0.00    +0.019 C 
BRANCH  16  19
ATOM     19  C   LIG    1        1.112   7.125   1.516  0.00  0.00    +0.052 A 
ATOM     20  C   LIG    1        1.931   7.845   2.368  0.00  0.00    +0.025 A 
ATOM     21  C   LIG    1        1.795   7.685   3.735  0.00  0.00    +0.018 A 
ATOM     22  C   LIG    1        0.824   6.792   4.205  0.00  0.00    +0.077 A 
ATOM     23  C   LIG    1        0.041   6.099   3.280  0.00  0.00    +0.126 A 
ATOM     24  N   LIG    1        0.206   6.290   1.988  0.00  0.00    -0.258 NA
BRANCH  22  25
ATOM     25  C   LIG    1        0.636   6.582   5.655  0.00  0.00    +0.338 C 
ATOM     26  O   LIG    1        1.327   7.186   6.451  0.00  0.00    -0.245 OA
BRANCH  25  27
ATOM     27  O   LIG    1       -0.301   5.720   6.095  0.00  0.00    -0.477 OA
ATOM     28  H   LIG    1       -0.834   5.253   5.481  0.00  0.00    +0.295 HD
ENDBRANCH  25  27
ENDBRANCH  22  25
ENDBRANCH  16  19
ENDBRANCH  15  16
TORSDOF 4
