REMARK  Name = ZINC03952166
REMARK                            x       y       z     vdW  Elec       q    Type
REMARK                         _______ _______ _______ _____ _____    ______ ____
ROOT
ATOM      1  C   LIG    1        1.250  -2.167   0.097  0.00  0.00    +0.140 A 
ATOM      2  N   LIG    1        0.154  -2.983   0.086  0.00  0.00    -0.337 N 
ATOM      3  C   LIG    1        0.607  -4.269  -0.090  0.00  0.00    +0.074 A 
ATOM      4  C   LIG    1        1.987  -4.189  -0.182  0.00  0.00    +0.097 A 
ATOM      5  H   LIG    1       -0.770  -2.706   0.184  0.00  0.00    +0.167 HD
ATOM      6  N   LIG    1        2.330  -2.896  -0.068  0.00  0.00    -0.227 NA
ENDROOT
BRANCH   1  12
ATOM      7  C   LIG    1       -0.010   1.337   0.582  0.00  0.00    +0.001 A 
ATOM      8  C   LIG    1        1.174   2.054   0.569  0.00  0.00    +0.001 A 
ATOM      9  C   LIG    1        2.382   1.402   0.403  0.00  0.00    +0.016 A 
ATOM     10  C   LIG    1        2.415   0.030   0.249  0.00  0.00    +0.028 A 
ATOM     11 BR   LIG    1        4.068  -0.860   0.022  0.00  0.00    -0.050 Br
ATOM     12  C   LIG    1        1.224  -0.699   0.261  0.00  0.00    +0.031 A 
ATOM     13  C   LIG    1        0.008  -0.034   0.429  0.00  0.00    +0.012 A 
ENDBRANCH   1  12
BRANCH   3  14
ATOM     14  C   LIG    1       -0.215  -5.493  -0.166  0.00  0.00    +0.001 A 
ATOM     15  C   LIG    1        0.133  -6.619   0.584  0.00  0.00    +0.013 A 
ATOM     16  C   LIG    1       -0.639  -7.759   0.509  0.00  0.00    +0.039 A 
ATOM     17  C   LIG    1       -1.758  -7.789  -0.307  0.00  0.00    +0.123 A 
ATOM     18  F   LIG    1       -2.511  -8.909  -0.377  0.00  0.00    -0.205 F 
ATOM     19  C   LIG    1       -2.109  -6.675  -1.054  0.00  0.00    +0.039 A 
ATOM     20  C   LIG    1       -1.348  -5.527  -0.983  0.00  0.00    +0.013 A 
ENDBRANCH   3  14
BRANCH   4  21
ATOM     21  C   LIG    1        2.916  -5.325  -0.375  0.00  0.00    +0.005 A 
ATOM     22  C   LIG    1        2.619  -6.351  -1.280  0.00  0.00    +0.030 A 
ATOM     23  C   LIG    1        3.513  -7.390  -1.429  0.00  0.00    +0.111 A 
ATOM     24  N   LIG    1        4.634  -7.426  -0.733  0.00  0.00    -0.263 NA
ATOM     25  C   LIG    1        4.952  -6.479   0.131  0.00  0.00    +0.111 A 
ATOM     26  C   LIG    1        4.118  -5.401   0.338  0.00  0.00    +0.030 A 
ENDBRANCH   4  21
TORSDOF 3
