REMARK  Name = ZINC03960707
REMARK                            x       y       z     vdW  Elec       q    Type
REMARK                         _______ _______ _______ _____ _____    ______ ____
ROOT
ATOM      1  C   LIG    1       -1.266  -0.763   0.011  0.00  0.00    +0.022 A 
ATOM      2  C   LIG    1       -1.449  -2.112   0.011  0.00  0.00    +0.031 A 
ATOM      3  C   LIG    1       -2.773  -2.558   0.021  0.00  0.00    +0.066 A 
ATOM      4  C   LIG    1       -3.775  -1.594   0.029  0.00  0.00    +0.086 A 
ATOM      5  S   LIG    1       -2.935  -0.140   0.031  0.00  0.00    -0.073 S 
ENDROOT
BRANCH   1  12
ATOM      6  C   LIG    1       -0.017   1.392   0.010  0.00  0.00    +0.012 A 
ATOM      7  C   LIG    1        1.170   2.095   0.002  0.00  0.00    +0.039 A 
ATOM      8  C   LIG    1        2.379   1.419  -0.013  0.00  0.00    +0.123 A 
ATOM      9  F   LIG    1        3.538   2.112  -0.022  0.00  0.00    -0.205 F 
ATOM     10  C   LIG    1        2.404   0.033  -0.021  0.00  0.00    +0.039 A 
ATOM     11  C   LIG    1        1.223  -0.680  -0.014  0.00  0.00    +0.012 A 
ATOM     12  C   LIG    1        0.002  -0.004   0.002  0.00  0.00    -0.011 A 
ENDBRANCH   1  12
BRANCH   4  13
ATOM     13  N   LIG    1       -5.147  -1.788   0.040  0.00  0.00    -0.263 N 
ATOM     14  H   LIG    1       -5.509  -2.688   0.041  0.00  0.00    +0.157 HD
ATOM     15  C   LIG    1       -5.977  -0.726   0.047  0.00  0.00    +0.302 C 
ATOM     16  N   LIG    1       -7.312  -0.915   0.057  0.00  0.00    -0.313 N 
ATOM     17  H   LIG    1       -7.909  -0.151   0.063  0.00  0.00    +0.146 HD
ATOM     18  H   LIG    1       -7.674  -1.815   0.059  0.00  0.00    +0.146 HD
ATOM     19  O   LIG    1       -5.523   0.401   0.045  0.00  0.00    -0.253 OA
ENDBRANCH   4  13
BRANCH   3  20
ATOM     20  C   LIG    1       -3.094  -3.989   0.021  0.00  0.00    +0.244 C 
ATOM     21  N   LIG    1       -2.103  -4.902   0.013  0.00  0.00    -0.325 N 
ATOM     22  H   LIG    1       -2.315  -5.848   0.013  0.00  0.00    +0.145 HD
ATOM     23  H   LIG    1       -1.177  -4.612   0.006  0.00  0.00    +0.145 HD
ATOM     24  O   LIG    1       -4.256  -4.352   0.030  0.00  0.00    -0.270 OA
ENDBRANCH   3  20
TORSDOF 3
