REMARK  Name = ZINC03915645
REMARK                            x       y       z     vdW  Elec       q    Type
REMARK                         _______ _______ _______ _____ _____    ______ ____
ROOT
ATOM      1  C   LIG    1       -3.646   2.999   0.036  0.00  0.00    -0.002 A 
ATOM      2  C   LIG    1       -3.625   1.601   0.028  0.00  0.00    +0.011 A 
ATOM      3  C   LIG    1       -2.421   0.932   0.019  0.00  0.00    +0.025 A 
ATOM      4  C   LIG    1       -1.227   1.646   0.017  0.00  0.00    +0.048 A 
ATOM      5  C   LIG    1       -1.244   3.037   0.030  0.00  0.00    +0.025 A 
ATOM      6  C   LIG    1       -2.444   3.713   0.035  0.00  0.00    +0.011 A 
ENDROOT
BRANCH   1  15
ATOM      7  C   LIG    1       -5.019   5.719   1.506  0.00  0.00    +0.014 C 
ATOM      8  C   LIG    1       -4.937   5.224   0.060  0.00  0.00    +0.046 C 
ATOM      9  C   LIG    1       -6.146   5.740  -0.729  0.00  0.00    +0.107 C 
ATOM     10  C   LIG    1       -7.377   4.986  -0.293  0.00  0.00    +0.233 C 
ATOM     11  N   LIG    1       -7.280   3.682   0.029  0.00  0.00    -0.207 N 
ATOM     12  H   LIG    1       -8.080   3.180   0.250  0.00  0.00    +0.177 HD
ATOM     13  N   LIG    1       -6.036   3.046   0.046  0.00  0.00    -0.184 NA
ATOM     14  O   LIG    1       -8.449   5.551  -0.232  0.00  0.00    -0.274 OA
ATOM     15  C   LIG    1       -4.932   3.718   0.046  0.00  0.00    +0.070 C 
ENDBRANCH   1  15
BRANCH   4  16
ATOM     16  N   LIG    1       -0.011   0.966   0.007  0.00  0.00    -0.236 N 
ATOM     17  H   LIG    1        0.002  -0.004   0.002  0.00  0.00    +0.174 HD
BRANCH  16  18
ATOM     18  N   LIG    1        1.097   1.626   0.000  0.00  0.00    -0.160 NA
ATOM     19  C   LIG    1        2.246   0.983  -0.014  0.00  0.00    +0.234 C 
BRANCH  19  20
ATOM     20  C   LIG    1        3.476   1.716  -0.022  0.00  0.00    +0.132 C 
ATOM     21  N   LIG    1        4.452   2.298  -0.028  0.00  0.00    -0.188 NA
ENDBRANCH  19  20
BRANCH  19  22
ATOM     22  C   LIG    1        2.265  -0.448  -0.022  0.00  0.00    +0.132 C 
ATOM     23  N   LIG    1        2.281  -1.584  -0.028  0.00  0.00    -0.188 NA
ENDBRANCH  19  22
ENDBRANCH  16  18
ENDBRANCH   4  16
TORSDOF 5
