REMARK  Name = ZINC03966243
REMARK                            x       y       z     vdW  Elec       q    Type
REMARK                         _______ _______ _______ _____ _____    ______ ____
ROOT
ATOM      1  C   LIG    1        1.823  -7.912  -1.651  0.00  0.00    +0.132 A 
ATOM      2  C   LIG    1        0.620  -8.655  -1.587  0.00  0.00    +0.044 A 
ATOM      3  C   LIG    1       -0.427  -8.297  -0.727  0.00  0.00    +0.062 A 
ATOM      4  C   LIG    1       -1.571  -9.043  -0.707  0.00  0.00    +0.162 A 
ATOM      5  C   LIG    1       -1.712 -10.161  -1.542  0.00  0.00    +0.164 A 
ATOM      6  C   LIG    1       -0.700 -10.530  -2.399  0.00  0.00    +0.078 A 
ATOM      7  C   LIG    1        0.482  -9.779  -2.437  0.00  0.00    +0.080 A 
ATOM      8  N   LIG    1        1.497 -10.098  -3.255  0.00  0.00    -0.235 NA
ATOM      9  C   LIG    1        2.592  -9.375  -3.268  0.00  0.00    +0.223 A 
ATOM     10  N   LIG    1        2.763  -8.314  -2.496  0.00  0.00    -0.220 NA
ENDROOT
BRANCH   1  17
ATOM     11  N   LIG    1        2.776  -1.987  -0.436  0.00  0.00    -0.269 N 
ATOM     12  H   LIG    1        1.850  -2.075  -0.710  0.00  0.00    +0.156 HD
ATOM     13  C   LIG    1        3.484  -3.081  -0.090  0.00  0.00    +0.307 C 
ATOM     14  N   LIG    1        2.879  -4.284  -0.035  0.00  0.00    -0.282 N 
ATOM     15  C   LIG    1        1.478  -4.445  -0.453  0.00  0.00    +0.128 C 
ATOM     16  C   LIG    1        1.405  -5.610  -1.453  0.00  0.00    +0.125 C 
ATOM     17  N   LIG    1        2.015  -6.804  -0.852  0.00  0.00    -0.312 N 
ATOM     18  C   LIG    1        3.442  -6.593  -0.579  0.00  0.00    +0.125 C 
ATOM     19  C   LIG    1        3.601  -5.470   0.452  0.00  0.00    +0.128 C 
ATOM     20  O   LIG    1        4.667  -2.982   0.172  0.00  0.00    -0.252 OA
BRANCH  11  24
ATOM     21  C   LIG    1        4.572   1.776  -0.334  0.00  0.00    +0.121 A 
ATOM     22  C   LIG    1        5.308   0.666  -0.723  0.00  0.00    +0.047 A 
ATOM     23  C   LIG    1        4.714  -0.580  -0.757  0.00  0.00    +0.027 A 
ATOM     24  C   LIG    1        3.380  -0.722  -0.402  0.00  0.00    +0.035 A 
ATOM     25  C   LIG    1        2.643   0.388  -0.012  0.00  0.00    +0.027 A 
ATOM     26  C   LIG    1        3.238   1.634   0.021  0.00  0.00    +0.047 A 
BRANCH  21  27
ATOM     27  O   LIG    1        5.157   3.002  -0.300  0.00  0.00    -0.489 OA
BRANCH  27  29
ATOM     28  C   LIG    1        6.770   4.526  -1.258  0.00  0.00    +0.051 C 
ATOM     29  C   LIG    1        6.497   3.096  -0.789  0.00  0.00    +0.167 C 
ATOM     30  C   LIG    1        7.474   2.730   0.330  0.00  0.00    +0.051 C 
ENDBRANCH  27  29
ENDBRANCH  21  27
ENDBRANCH  11  24
ENDBRANCH   1  17
BRANCH   4  31
ATOM     31  O   LIG    1       -2.584  -8.697   0.131  0.00  0.00    -0.491 OA
ATOM     32  C   LIG    1       -2.380  -7.548   0.956  0.00  0.00    +0.277 C 
ENDBRANCH   4  31
BRANCH   5  33
ATOM     33  O   LIG    1       -2.859 -10.887  -1.504  0.00  0.00    -0.488 OA
BRANCH  33  34
ATOM     34  C   LIG    1       -2.943 -12.014  -2.378  0.00  0.00    +0.227 C 
BRANCH  34  35
ATOM     35  C   LIG    1       -4.297 -12.702  -2.195  0.00  0.00    +0.022 C 
BRANCH  35  36
ATOM     36  C   LIG    1       -4.386 -13.909  -3.131  0.00  0.00    -0.076 C 
BRANCH  36  37
ATOM     37  N   LIG    1       -5.707 -14.548  -2.959  0.00  0.00    +0.380 N 
ATOM     38  H   LIG    1       -6.439 -13.834  -3.056  0.00  0.00    -0.082 HD
ATOM     39  C   LIG    1       -5.907 -15.583  -3.996  0.00  0.00    -0.079 C 
ATOM     40  C   LIG    1       -7.325 -16.145  -3.869  0.00  0.00    -0.019 C 
ATOM     41  C   LIG    1       -7.501 -16.766  -2.481  0.00  0.00    -0.004 C 
ATOM     42  C   LIG    1       -7.219 -15.702  -1.416  0.00  0.00    -0.019 C 
ATOM     43  C   LIG    1       -5.804 -15.152  -1.613  0.00  0.00    -0.079 C 
ENDBRANCH  36  37
ENDBRANCH  35  36
ENDBRANCH  34  35
ENDBRANCH  33  34
ENDBRANCH   5  33
TORSDOF 10
