REMARK  Name = ZINC04091154
REMARK                            x       y       z     vdW  Elec       q    Type
REMARK                         _______ _______ _______ _____ _____    ______ ____
ROOT
ATOM      1  C   LIG    1        1.870  -3.290   0.878  0.00  0.00    +0.028 C 
ATOM      2  C   LIG    1        1.763  -2.578  -0.472  0.00  0.00    +0.081 C 
ATOM      3  C   LIG    1        3.018  -1.728  -0.712  0.00  0.00    +0.050 C 
ATOM      4  C   LIG    1        2.921  -1.082  -2.093  0.00  0.00    +0.115 C 
ATOM      5  C   LIG    1        1.601  -0.374  -2.252  0.00  0.00    -0.005 A 
ATOM      6  C   LIG    1        1.481   0.611  -3.219  0.00  0.00    +0.007 A 
ATOM      7  C   LIG    1        0.282   1.273  -3.394  0.00  0.00    +0.000 A 
ATOM      8  C   LIG    1       -0.809   0.956  -2.605  0.00  0.00    +0.002 A 
ATOM      9  C   LIG    1       -0.698  -0.024  -1.639  0.00  0.00    +0.024 A 
ATOM     10  C   LIG    1        0.509  -0.690  -1.459  0.00  0.00    +0.042 A 
ATOM     11  N   LIG    1        0.604  -1.675  -0.468  0.00  0.00    -0.264 N 
ATOM     12  C   LIG    1       -0.352  -1.792   0.475  0.00  0.00    +0.251 C 
ATOM     13  O   LIG    1       -0.341  -2.739   1.238  0.00  0.00    -0.270 OA
ENDROOT
BRANCH  12  14
ATOM     14  C   LIG    1       -1.415  -0.770   0.581  0.00  0.00    +0.041 A 
ATOM     15  C   LIG    1       -1.095   0.586   0.485  0.00  0.00    +0.013 A 
ATOM     16  C   LIG    1       -2.089   1.537   0.585  0.00  0.00    +0.004 A 
ATOM     17  C   LIG    1       -3.403   1.153   0.779  0.00  0.00    +0.045 A 
ATOM     18  C   LIG    1       -3.731  -0.193   0.875  0.00  0.00    +0.121 A 
ATOM     19  C   LIG    1       -2.742  -1.157   0.771  0.00  0.00    +0.058 A 
BRANCH  18  20
ATOM     20  O   LIG    1       -5.024  -0.565   1.066  0.00  0.00    -0.495 OA
ATOM     21  C   LIG    1       -5.993   0.481   1.158  0.00  0.00    +0.277 C 
ENDBRANCH  18  20
ENDBRANCH  12  14
BRANCH   4  22
ATOM     22  N   LIG    1        4.010  -0.115  -2.252  0.00  0.00    -0.264 N 
ATOM     23  C   LIG    1        4.046   0.992  -1.483  0.00  0.00    +0.217 C 
ATOM     24  C   LIG    1        5.103   2.039  -1.720  0.00  0.00    +0.109 C 
ATOM     25  O   LIG    1        3.228   1.144  -0.601  0.00  0.00    -0.276 OA
BRANCH  22  26
ATOM     26  C   LIG    1        5.013  -0.341  -3.201  0.00  0.00    +0.037 A 
ATOM     27  C   LIG    1        5.194   0.553  -4.248  0.00  0.00    +0.023 A 
ATOM     28  C   LIG    1        6.189   0.330  -5.180  0.00  0.00    +0.002 A 
ATOM     29  C   LIG    1        6.997  -0.787  -5.077  0.00  0.00    +0.000 A 
ATOM     30  C   LIG    1        6.815  -1.683  -4.039  0.00  0.00    +0.002 A 
ATOM     31  C   LIG    1        5.826  -1.462  -3.101  0.00  0.00    +0.023 A 
ENDBRANCH  22  26
ENDBRANCH   4  22
TORSDOF 4
