REMARK  Name = ZINC03957079
REMARK                            x       y       z     vdW  Elec       q    Type
REMARK                         _______ _______ _______ _____ _____    ______ ____
ROOT
ATOM      1  C   LIG    1       -0.019   1.522   0.010  0.00  0.00    +0.052 C 
ATOM      2  C   LIG    1        0.002  -0.004   0.002  0.00  0.00    +0.174 C 
ATOM      3  C   LIG    1        0.668  -0.564  -1.246  0.00  0.00    +0.045 C 
ATOM      4  C   LIG    1        1.467   0.489  -2.008  0.00  0.00    +0.011 C 
ATOM      5  C   LIG    1        2.302  -0.206  -3.094  0.00  0.00    +0.074 C 
ATOM      6  C   LIG    1        3.729   0.267  -3.015  0.00  0.00    +0.133 C 
ATOM      7  C   LIG    1        4.727  -0.474  -2.162  0.00  0.00    +0.074 C 
ATOM      8  C   LIG    1        5.500   0.528  -1.303  0.00  0.00    +0.007 C 
ATOM      9  C   LIG    1        6.099  -0.189  -0.093  0.00  0.00    +0.001 C 
ATOM     10  C   LIG    1        5.377   0.257   1.180  0.00  0.00    +0.005 C 
ATOM     11  C   LIG    1        4.755  -0.961   1.865  0.00  0.00    +0.036 C 
ATOM     12  C   LIG    1        3.841  -0.509   2.974  0.00  0.00    -0.026 A 
ATOM     13  C   LIG    1        4.350  -0.389   4.248  0.00  0.00    +0.050 A 
ATOM     14  C   LIG    1        3.534   0.019   5.297  0.00  0.00    +0.121 A 
ATOM     15  C   LIG    1        2.197   0.309   5.064  0.00  0.00    +0.091 A 
ATOM     16  C   LIG    1        1.675   0.194   3.787  0.00  0.00    +0.135 A 
ATOM     17  C   LIG    1        2.497  -0.222   2.726  0.00  0.00    +0.104 A 
ATOM     18  C   LIG    1        1.943  -0.342   1.367  0.00  0.00    +0.343 C 
ATOM     19  O   LIG    1        2.691  -0.338   0.410  0.00  0.00    -0.245 OA
ATOM     20  O   LIG    1        4.080   1.239  -3.642  0.00  0.00    -0.297 OA
ATOM     21  O   LIG    1        0.622  -0.499   1.184  0.00  0.00    -0.458 OA
ENDROOT
BRANCH  14  22
ATOM     22  O   LIG    1        4.044   0.131   6.549  0.00  0.00    -0.507 OA
ATOM     23  H   LIG    1        4.405   1.006   6.750  0.00  0.00    +0.292 HD
ENDBRANCH  14  22
BRANCH  16  24
ATOM     24  O   LIG    1        0.367   0.488   3.572  0.00  0.00    -0.506 OA
ATOM     25  H   LIG    1        0.204   1.414   3.345  0.00  0.00    +0.292 HD
ENDBRANCH  16  24
TORSDOF 2
