REMARK  Name = ZINC03873638
REMARK                            x       y       z     vdW  Elec       q    Type
REMARK                         _______ _______ _______ _____ _____    ______ ____
ROOT
ATOM      1  C   LIG    1       -0.017   1.386   0.010  0.00  0.00    +0.001 A 
ATOM      2  C   LIG    1        1.136   2.117   0.003  0.00  0.00    +0.008 A 
ATOM      3  C   LIG    1        2.382   1.466  -0.013  0.00  0.00    -0.016 A 
ATOM      4  C   LIG    1        3.597   2.174  -0.021  0.00  0.00    +0.008 A 
ATOM      5  C   LIG    1        4.782   1.497  -0.037  0.00  0.00    +0.001 A 
ATOM      6  C   LIG    1        4.828   0.107  -0.045  0.00  0.00    +0.014 A 
ATOM      7  C   LIG    1        3.652  -0.628  -0.037  0.00  0.00    +0.048 A 
ATOM      8  C   LIG    1        3.645  -2.098  -0.046  0.00  0.00    +0.262 A 
ATOM      9  O   LIG    1        4.697  -2.708  -0.060  0.00  0.00    -0.267 OA
ATOM     10  N   LIG    1        2.480  -2.774  -0.037  0.00  0.00    -0.275 N 
ATOM     11  C   LIG    1        1.285  -2.153  -0.022  0.00  0.00    +0.262 A 
ATOM     12  O   LIG    1        0.262  -2.810  -0.016  0.00  0.00    -0.267 OA
ATOM     13  C   LIG    1        1.211  -0.684  -0.013  0.00  0.00    +0.048 A 
ATOM     14  C   LIG    1        2.415   0.056  -0.021  0.00  0.00    +0.007 A 
ATOM     15  C   LIG    1        0.002  -0.004   0.002  0.00  0.00    +0.014 A 
ENDROOT
BRANCH  10  16
ATOM     16  C   LIG    1        2.514  -4.238  -0.046  0.00  0.00    +0.128 C 
BRANCH  16  17
ATOM     17  C   LIG    1        2.511  -4.740  -1.491  0.00  0.00    +0.022 C 
BRANCH  17  18
ATOM     18  C   LIG    1        2.547  -6.270  -1.500  0.00  0.00    +0.002 C 
BRANCH  18  19
ATOM     19  C   LIG    1        2.544  -6.771  -2.946  0.00  0.00    +0.009 C 
BRANCH  19  20
ATOM     20  C   LIG    1        2.579  -8.301  -2.954  0.00  0.00    +0.098 C 
BRANCH  20  21
ATOM     21  C   LIG    1        2.577  -8.795  -4.378  0.00  0.00    +0.235 C 
ATOM     22  N   LIG    1        2.605 -10.118  -4.632  0.00  0.00    -0.197 N 
ATOM     23  H   LIG    1        2.627 -10.753  -3.899  0.00  0.00    +0.182 HD
ATOM     24  O   LIG    1        2.550  -8.002  -5.295  0.00  0.00    -0.274 OA
BRANCH  22  25
ATOM     25  O   LIG    1        2.603 -10.583  -5.970  0.00  0.00    -0.295 OA
ATOM     26  H   LIG    1        2.625 -11.546  -6.052  0.00  0.00    +0.241 HD
ENDBRANCH  22  25
ENDBRANCH  20  21
ENDBRANCH  19  20
ENDBRANCH  18  19
ENDBRANCH  17  18
ENDBRANCH  16  17
ENDBRANCH  10  16
TORSDOF 7
