REMARK  Name = ZINC04025280
REMARK                            x       y       z     vdW  Elec       q    Type
REMARK                         _______ _______ _______ _____ _____    ______ ____
ROOT
ATOM      1  C   LIG    1        5.039   6.680   0.113  0.00  0.00    +0.129 A 
ATOM      2  C   LIG    1        3.705   6.988   0.325  0.00  0.00    +0.093 A 
ATOM      3  C   LIG    1        2.816   6.002   0.732  0.00  0.00    +0.147 A 
ATOM      4  C   LIG    1        3.284   4.694   0.924  0.00  0.00    +0.067 A 
ATOM      5  C   LIG    1        4.632   4.390   0.708  0.00  0.00    +0.136 A 
ATOM      6  C   LIG    1        2.337   3.650   1.357  0.00  0.00    +0.003 A 
ATOM      7  C   LIG    1        2.736   2.334   1.566  0.00  0.00    +0.009 A 
ATOM      8  C   LIG    1        1.807   1.398   1.971  0.00  0.00    +0.001 A 
ATOM      9  C   LIG    1        0.481   1.756   2.166  0.00  0.00    +0.001 A 
ATOM     10  C   LIG    1        0.067   3.056   1.968  0.00  0.00    +0.015 A 
ATOM     11  C   LIG    1        0.990   4.017   1.560  0.00  0.00    +0.067 A 
ATOM     12  C   LIG    1        0.602   5.416   1.330  0.00  0.00    +0.345 A 
ATOM     13  O   LIG    1       -0.552   5.759   1.498  0.00  0.00    -0.245 OA
ATOM     14  O   LIG    1        1.517   6.316   0.937  0.00  0.00    -0.421 OA
ATOM     15  C   LIG    1        5.504   5.385   0.303  0.00  0.00    +0.092 A 
ENDROOT
BRANCH   1  16
ATOM     16  O   LIG    1        5.900   7.653  -0.285  0.00  0.00    -0.478 OA
BRANCH  16  18
ATOM     17  C   LIG    1        8.069   7.210   0.682  0.00  0.00    +0.064 C 
ATOM     18  C   LIG    1        7.234   7.250  -0.599  0.00  0.00    +0.278 C 
BRANCH  18  19
ATOM     19  C   LIG    1        7.843   8.235  -1.564  0.00  0.00    +0.346 C 
ATOM     20  O   LIG    1        7.234   9.232  -1.874  0.00  0.00    -0.247 OA
BRANCH  19  21
ATOM     21  O   LIG    1        9.061   8.005  -2.079  0.00  0.00    -0.478 OA
ATOM     22  H   LIG    1        9.533   7.232  -1.839  0.00  0.00    +0.295 HD
ENDBRANCH  19  21
ENDBRANCH  18  19
ENDBRANCH  16  18
ENDBRANCH   1  16
BRANCH   5  23
ATOM     23  O   LIG    1        5.083   3.123   0.894  0.00  0.00    -0.477 OA
BRANCH  23  24
ATOM     24  C   LIG    1        6.491   2.911   0.771  0.00  0.00    +0.278 C 
ATOM     25  C   LIG    1        6.850   2.704  -0.702  0.00  0.00    +0.064 C 
BRANCH  24  26
ATOM     26  C   LIG    1        6.886   1.690   1.561  0.00  0.00    +0.346 C 
ATOM     27  O   LIG    1        6.038   1.013   2.091  0.00  0.00    -0.247 OA
BRANCH  26  28
ATOM     28  O   LIG    1        8.181   1.354   1.674  0.00  0.00    -0.478 OA
ATOM     29  H   LIG    1        8.839   1.878   1.262  0.00  0.00    +0.295 HD
ENDBRANCH  26  28
ENDBRANCH  24  26
ENDBRANCH  23  24
ENDBRANCH   5  23
TORSDOF 8
