REMARK  Name = ZINC03928304
REMARK                            x       y       z     vdW  Elec       q    Type
REMARK                         _______ _______ _______ _____ _____    ______ ____
ROOT
ATOM      1  C   LIG    1       -1.151  -0.177  -2.992  0.00  0.00    -0.037 A 
ATOM      2  C   LIG    1        0.113  -0.139  -3.555  0.00  0.00    +0.006 A 
ATOM      3  C   LIG    1        1.250  -0.473  -2.840  0.00  0.00    +0.027 A 
ATOM      4  C   LIG    1        1.077  -0.856  -1.511  0.00  0.00    +0.052 A 
ATOM      5  C   LIG    1       -0.216  -0.885  -0.933  0.00  0.00    +0.009 A 
ATOM      6  C   LIG    1       -0.049  -1.302   0.455  0.00  0.00    +0.022 A 
ATOM      7  C   LIG    1       -0.919  -1.527   1.548  0.00  0.00    +0.052 A 
ATOM      8  C   LIG    1       -0.394  -1.867   2.793  0.00  0.00    -0.008 A 
ATOM      9  C   LIG    1       -1.571  -2.016   3.726  0.00  0.00    +0.141 C 
ATOM     10  N   LIG    1       -2.768  -1.752   2.920  0.00  0.00    -0.307 N 
ATOM     11  H   LIG    1       -3.683  -1.774   3.241  0.00  0.00    +0.149 HD
ATOM     12  C   LIG    1        0.979  -1.992   2.978  0.00  0.00    +0.015 A 
ATOM     13  C   LIG    1        1.855  -2.263   4.118  0.00  0.00    +0.008 A 
ATOM     14  C   LIG    1        1.582  -2.490   5.467  0.00  0.00    +0.015 A 
ATOM     15  C   LIG    1        2.669  -2.679   6.303  0.00  0.00    -0.037 A 
ATOM     16  C   LIG    1        3.968  -2.645   5.829  0.00  0.00    +0.006 A 
ATOM     17  C   LIG    1        4.260  -2.428   4.493  0.00  0.00    +0.027 A 
ATOM     18  C   LIG    1        3.183  -2.242   3.628  0.00  0.00    +0.053 A 
ATOM     19  N   LIG    1        3.150  -2.025   2.271  0.00  0.00    -0.306 N 
ATOM     20  C   LIG    1        4.285  -2.063   1.344  0.00  0.00    +0.186 C 
ATOM     21  C   LIG    1        5.410  -2.929   1.913  0.00  0.00    +0.070 C 
ATOM     22  O   LIG    1        3.871  -2.558   0.070  0.00  0.00    -0.327 OA
ATOM     23  C   LIG    1        3.423  -1.491  -0.766  0.00  0.00    +0.226 C 
ATOM     24  C   LIG    1        4.203  -0.245  -0.298  0.00  0.00    +0.106 C 
ATOM     25  C   LIG    1        4.769  -0.621   1.087  0.00  0.00    +0.214 C 
ATOM     26  C   LIG    1        1.837  -1.825   1.884  0.00  0.00    +0.077 A 
ATOM     27  C   LIG    1       -2.385  -1.472   1.663  0.00  0.00    +0.245 C 
ATOM     28  O   LIG    1       -3.143  -1.211   0.748  0.00  0.00    -0.270 OA
ATOM     29  C   LIG    1        1.321  -1.488   0.627  0.00  0.00    +0.077 A 
ATOM     30  N   LIG    1        1.989  -1.257  -0.568  0.00  0.00    -0.311 N 
ATOM     31  C   LIG    1       -1.351  -0.546  -1.673  0.00  0.00    +0.015 A 
ENDROOT
BRANCH  25  32
ATOM     32  O   LIG    1        4.256   0.260   2.088  0.00  0.00    -0.374 OA
ATOM     33  H   LIG    1        4.528   1.182   1.978  0.00  0.00    +0.211 HD
ENDBRANCH  25  32
BRANCH  25  34
ATOM     34  C   LIG    1        6.276  -0.571   1.068  0.00  0.00    +0.344 C 
ATOM     35  O   LIG    1        6.869  -0.659   0.019  0.00  0.00    -0.247 OA
BRANCH  34  36
ATOM     36  O   LIG    1        6.957  -0.428   2.215  0.00  0.00    -0.466 OA
ATOM     37  C   LIG    1        8.406  -0.388   2.120  0.00  0.00    +0.280 C 
ENDBRANCH  34  36
ENDBRANCH  25  34
BRANCH   1  38
ATOM     38  C   LIG    1       -2.342   0.196  -3.837  0.00  0.00    +0.104 C 
BRANCH  38  39
ATOM     39  S   LIG    1       -2.986  -1.286  -4.661  0.00  0.00    -0.156 S 
BRANCH  39  41
ATOM     40  C   LIG    1       -5.041  -1.838  -6.380  0.00  0.00    +0.015 C 
ATOM     41  C   LIG    1       -4.396  -0.674  -5.625  0.00  0.00    +0.066 C 
ENDBRANCH  39  41
ENDBRANCH  38  39
ENDBRANCH   1  38
BRANCH  15  42
ATOM     42  C   LIG    1        2.431  -2.930   7.770  0.00  0.00    +0.104 C 
BRANCH  42  43
ATOM     43  S   LIG    1        2.272  -4.714   8.061  0.00  0.00    -0.156 S 
BRANCH  43  44
ATOM     44  C   LIG    1        1.993  -4.844   9.848  0.00  0.00    +0.066 C 
ATOM     45  C   LIG    1        1.839  -6.316  10.235  0.00  0.00    +0.015 C 
ENDBRANCH  43  44
ENDBRANCH  42  43
ENDBRANCH  15  42
TORSDOF 9
