REMARK  Name = ZINC03936851
REMARK                            x       y       z     vdW  Elec       q    Type
REMARK                         _______ _______ _______ _____ _____    ______ ____
ROOT
ATOM      1  N   LIG    1       -0.060   5.257   0.119  0.00  0.00    -0.269 N 
ATOM      2  H   LIG    1        0.771   5.757   0.139  0.00  0.00    +0.156 HD
ATOM      3  C   LIG    1       -1.236   5.908   0.025  0.00  0.00    +0.308 C 
ATOM      4  N   LIG    1       -1.254   7.245  -0.151  0.00  0.00    -0.266 N 
ATOM      5  H   LIG    1       -0.424   7.727  -0.288  0.00  0.00    +0.156 HD
ATOM      6  O   LIG    1       -2.281   5.290   0.098  0.00  0.00    -0.252 OA
ENDROOT
BRANCH   1  10
ATOM      7  C   LIG    1        0.006   1.097   0.327  0.00  0.00    +0.000 A 
ATOM      8  C   LIG    1        0.953   1.837   1.012  0.00  0.00    +0.002 A 
ATOM      9  C   LIG    1        0.937   3.216   0.940  0.00  0.00    +0.023 A 
ATOM     10  C   LIG    1       -0.037   3.860   0.189  0.00  0.00    +0.035 A 
ATOM     11  C   LIG    1       -0.990   3.114  -0.493  0.00  0.00    +0.023 A 
ATOM     12  C   LIG    1       -0.966   1.735  -0.422  0.00  0.00    +0.002 A 
ENDBRANCH   1  10
BRANCH   4  13
ATOM     13  C   LIG    1       -2.473   7.937  -0.136  0.00  0.00    +0.077 A 
ATOM     14  C   LIG    1       -3.585   7.373   0.472  0.00  0.00    +0.029 A 
ATOM     15  C   LIG    1       -4.786   8.058   0.486  0.00  0.00    +0.034 A 
ATOM     16  C   LIG    1       -4.881   9.305  -0.104  0.00  0.00    +0.125 A 
ATOM     17  C   LIG    1       -3.777   9.873  -0.712  0.00  0.00    +0.079 A 
ATOM     18  C   LIG    1       -2.569   9.195  -0.726  0.00  0.00    +0.140 A 
BRANCH  16  19
ATOM     19  N   LIG    1       -6.170  10.033  -0.086  0.00  0.00    +0.006 N 
ATOM     20  O   LIG    1       -7.144   9.534   0.449  0.00  0.00    -0.130 OA
BRANCH  19  21
ATOM     21  O   LIG    1       -6.256  11.132  -0.605  0.00  0.00    -0.396 OA
ATOM     22  H   LIG    1       -5.507  11.515  -1.017  0.00  0.00    +0.329 HD
ENDBRANCH  19  21
ENDBRANCH  16  19
BRANCH  18  23
ATOM     23  O   LIG    1       -1.480   9.754  -1.319  0.00  0.00    -0.505 OA
ATOM     24  H   LIG    1       -1.389   9.539  -2.257  0.00  0.00    +0.292 HD
ENDBRANCH  18  23
ENDBRANCH   4  13
TORSDOF 5
