REMARK  Name = ZINC03875959
REMARK                            x       y       z     vdW  Elec       q    Type
REMARK                         _______ _______ _______ _____ _____    ______ ____
ROOT
ATOM      1  C   LIG    1       -0.141   1.464   0.030  0.00  0.00    +0.012 C 
ATOM      2  C   LIG    1       -0.060  -0.064   0.023  0.00  0.00    -0.026 C 
ATOM      3  C   LIG    1       -1.474  -0.649   0.034  0.00  0.00    +0.010 C 
ATOM      4  C   LIG    1       -1.393  -2.177   0.028  0.00  0.00    +0.032 C 
ATOM      5  C   LIG    1       -0.634  -2.652   1.269  0.00  0.00    +0.115 C 
ATOM      6  C   LIG    1        0.780  -2.067   1.257  0.00  0.00    +0.035 C 
ATOM      7  C   LIG    1        0.675  -0.530  -1.236  0.00  0.00    +0.001 C 
ATOM      8  C   LIG    1       -0.071  -0.022  -2.474  0.00  0.00    +0.005 C 
ATOM      9  C   LIG    1        0.635  -0.552  -3.719  0.00  0.00    +0.010 C 
ATOM     10  C   LIG    1        2.067  -0.017  -3.799  0.00  0.00    +0.004 C 
ATOM     11  C   LIG    1        2.093   1.470  -4.158  0.00  0.00    +0.014 C 
ATOM     12  C   LIG    1        2.825  -0.344  -2.502  0.00  0.00    +0.075 C 
ATOM     13  C   LIG    1        3.078  -1.861  -2.585  0.00  0.00    +0.036 C 
ATOM     14  C   LIG    1        3.404  -2.091  -4.078  0.00  0.00    +0.011 C 
ATOM     15  C   LIG    1        2.807  -0.878  -4.857  0.00  0.00    +0.027 C 
ATOM     16  C   LIG    1        2.088   0.054  -1.248  0.00  0.00    +0.025 C 
ATOM     17  C   LIG    1        2.848  -0.419  -0.006  0.00  0.00    +0.007 C 
ATOM     18  C   LIG    1        2.112   0.046   1.252  0.00  0.00    +0.004 C 
ATOM     19  C   LIG    1        0.699  -0.539   1.263  0.00  0.00    -0.002 C 
ENDROOT
BRANCH  15  20
ATOM     20  C   LIG    1        3.873  -0.059  -5.537  0.00  0.00    -0.022 C 
ATOM     21  C   LIG    1        3.895   0.310  -6.816  0.00  0.00    +0.094 C 
ATOM     22  C   LIG    1        5.107   1.096  -7.066  0.00  0.00    +0.332 C 
ATOM     23  O   LIG    1        5.823   1.202  -5.931  0.00  0.00    -0.457 OA
ATOM     24  O   LIG    1        5.419   1.579  -8.136  0.00  0.00    -0.246 OA
ATOM     25  C   LIG    1        5.120   0.505  -4.898  0.00  0.00    +0.264 C 
ENDBRANCH  15  20
BRANCH   5  26
ATOM     26  O   LIG    1       -1.320  -2.216   2.443  0.00  0.00    -0.392 OA
ATOM     27  H   LIG    1       -2.225  -2.549   2.517  0.00  0.00    +0.210 HD
ENDBRANCH   5  26
BRANCH  12  28
ATOM     28  O   LIG    1        4.087   0.327  -2.538  0.00  0.00    -0.388 OA
ATOM     29  H   LIG    1        4.658   0.131  -1.783  0.00  0.00    +0.210 HD
ENDBRANCH  12  28
TORSDOF 3
