REMARK  Name = ZINC03895072
REMARK                            x       y       z     vdW  Elec       q    Type
REMARK                         _______ _______ _______ _____ _____    ______ ____
ROOT
ATOM      1  N   LIG    1        2.839  -0.440  -2.473  0.00  0.00    -0.297 N 
ATOM      2  H   LIG    1        2.872   0.121  -3.264  0.00  0.00    +0.151 HD
ATOM      3  C   LIG    1        3.424  -1.655  -2.483  0.00  0.00    +0.300 C 
ATOM      4  N   LIG    1        4.055  -2.089  -3.592  0.00  0.00    -0.294 N 
ATOM      5  H   LIG    1        4.088  -1.528  -4.383  0.00  0.00    +0.151 HD
ATOM      6  O   LIG    1        3.383  -2.358  -1.492  0.00  0.00    -0.253 OA
ENDROOT
BRANCH   4   7
ATOM      7  C   LIG    1        4.691  -3.409  -3.603  0.00  0.00    +0.037 C 
ATOM      8  C   LIG    1        3.638  -4.485  -3.332  0.00  0.00    +0.029 C 
ATOM      9  C   LIG    1        4.302  -5.863  -3.343  0.00  0.00    -0.008 C 
ATOM     10  C   LIG    1        4.942  -6.109  -4.711  0.00  0.00    +0.007 C 
ATOM     11  C   LIG    1        5.995  -5.034  -4.983  0.00  0.00    -0.008 C 
ATOM     12  C   LIG    1        7.073  -5.089  -3.899  0.00  0.00    +0.007 C 
ATOM     13  C   LIG    1        6.433  -4.843  -2.531  0.00  0.00    -0.008 C 
ATOM     14  C   LIG    1        5.380  -5.919  -2.259  0.00  0.00    +0.007 C 
ATOM     15  C   LIG    1        5.769  -3.465  -2.519  0.00  0.00    +0.029 C 
ATOM     16  C   LIG    1        5.331  -3.655  -4.971  0.00  0.00    +0.029 C 
ENDBRANCH   4   7
BRANCH   1  20
ATOM     17  C   LIG    1       -0.019   1.526   0.010  0.00  0.00    +0.000 C 
ATOM     18  C   LIG    1        1.417   2.055  -0.000  0.00  0.00    +0.002 C 
ATOM     19  C   LIG    1        2.133   1.562  -1.259  0.00  0.00    +0.022 C 
ATOM     20  C   LIG    1        2.154   0.032  -1.268  0.00  0.00    +0.074 C 
ATOM     21  C   LIG    1        0.718  -0.497  -1.257  0.00  0.00    +0.022 C 
ATOM     22  C   LIG    1        0.002  -0.004   0.002  0.00  0.00    +0.002 C 
ENDBRANCH   1  20
TORSDOF 2
