REMARK  Name = ZINC03873144
REMARK                            x       y       z     vdW  Elec       q    Type
REMARK                         _______ _______ _______ _____ _____    ______ ____
ROOT
ATOM      1  C   UNK A  1        6.611  -3.710   0.668  0.00  0.00    +0.017 C 
ENDROOT
BRANCH   1   2
ATOM      2  C   UNK A  1        7.376  -2.963  -0.394  0.00  0.00    +0.202 C 
ATOM      3  N   PRO A  2        8.695  -3.187  -0.558  0.00  0.00    -0.289 N 
ATOM      4  CD  PRO A  2        9.487  -4.210   0.149  0.00  0.00    +0.108 C 
ATOM      5  CG  PRO A  2       10.695  -4.489  -0.780  0.00  0.00    +0.021 C 
ATOM      6  CB  PRO A  2       10.989  -3.072  -1.341  0.00  0.00    +0.035 C 
ATOM      7  CA  PRO A  2        9.581  -2.457  -1.476  0.00  0.00    +0.184 C 
ATOM      8  O   UNK A  1        6.805  -2.160  -1.101  0.00  0.00    -0.277 OA
BRANCH   7   9
ATOM      9  C   PRO A  2        9.623  -0.999  -1.097  0.00  0.00    +0.325 C 
ATOM     10  O   PRO A  2        9.473  -0.668   0.067  0.00  0.00    -0.249 OA
BRANCH   9  11
ATOM     11  OXT PRO A  2        9.807  -0.151  -1.953  0.00  0.00    -0.479 OA
ATOM     12  HXT PRO A  2        9.922  -0.406  -2.848  0.00  0.00    +0.295 HD
ENDBRANCH   9  11
ENDBRANCH   7   9
ENDBRANCH   1   2
BRANCH   1  13
ATOM     13  N   UNK A  1        5.473  -2.896   1.115  0.00  0.00    +0.395 N 
ATOM     14  H   UNK A  1        4.909  -2.640   0.318  0.00  0.00    -0.084 HD
ATOM     15  H   UNK A  1        4.914  -3.428   1.766  0.00  0.00    -0.084 HD
BRANCH  13  16
ATOM     16  C   UNK A  1        5.968  -1.681   1.775  0.00  0.00    +0.040 C 
BRANCH  16  17
ATOM     17  C   UNK A  1        6.707  -2.058   3.033  0.00  0.00    +0.291 C 
ATOM     18  O   UNK A  1        6.387  -3.060   3.651  0.00  0.00    -0.253 OA
BRANCH  17  19
ATOM     19  O   UNK A  1        7.624  -1.362   3.434  0.00  0.00    -0.482 OA
ATOM     20  H   UNK A  1        7.870  -0.592   2.959  0.00  0.00    +0.295 HD
ENDBRANCH  17  19
ENDBRANCH  16  17
BRANCH  16  21
ATOM     21  C   UNK A  1        4.787  -0.775   2.129  0.00  0.00    -0.000 C 
BRANCH  21  22
ATOM     22  C   UNK A  1        4.112  -0.292   0.844  0.00  0.00    +0.034 C 
BRANCH  22  26
ATOM     23  C   UNK A  1        0.814   2.238   1.830  0.00  0.00    +0.000 A 
ATOM     24  C   UNK A  1        2.072   2.781   1.650  0.00  0.00    +0.000 A 
ATOM     25  C   UNK A  1        3.139   1.963   1.331  0.00  0.00    +0.003 A 
ATOM     26  C   UNK A  1        2.949   0.601   1.192  0.00  0.00    -0.047 A 
ATOM     27  C   UNK A  1        1.691   0.057   1.374  0.00  0.00    +0.003 A 
ATOM     28  C   UNK A  1        0.623   0.876   1.691  0.00  0.00    +0.000 A 
ENDBRANCH  22  26
ENDBRANCH  21  22
ENDBRANCH  16  21
ENDBRANCH  13  16
ENDBRANCH   1  13
BRANCH   1  29
ATOM     29  C   UNK A  1        6.099  -5.032   0.094  0.00  0.00    -0.007 C 
BRANCH  29  30
ATOM     30  C   UNK A  1        5.439  -5.850   1.205  0.00  0.00    -0.003 C 
BRANCH  30  31
ATOM     31  C   UNK A  1        4.927  -7.172   0.631  0.00  0.00    -0.020 C 
BRANCH  31  32
ATOM     32  C   UNK A  1        4.266  -7.990   1.742  0.00  0.00    -0.086 C 
BRANCH  32  33
ATOM     33  N   UNK A  1        3.775  -9.259   1.191  0.00  0.00    +0.378 N 
ATOM     34  H   UNK A  1        3.339  -9.799   1.924  0.00  0.00    -0.090 HD
ATOM     35  H   UNK A  1        4.548  -9.780   0.804  0.00  0.00    -0.090 HD
ATOM     36  H   UNK A  1        3.099  -9.071   0.465  0.00  0.00    -0.090 HD
ENDBRANCH  32  33
ENDBRANCH  31  32
ENDBRANCH  30  31
ENDBRANCH  29  30
ENDBRANCH   1  29
TORSDOF 15
