REMARK  Name = ZINC03990465
REMARK                            x       y       z     vdW  Elec       q    Type
REMARK                         _______ _______ _______ _____ _____    ______ ____
ROOT
ATOM      1  C   LIG    1       -1.230   1.758   0.017  0.00  0.00    -0.017 A 
ATOM      2  C   LIG    1       -0.013   1.076   0.008  0.00  0.00    +0.012 A 
ATOM      3  C   LIG    1        1.171   1.782   0.000  0.00  0.00    +0.046 A 
ATOM      4  C   LIG    1        1.153   3.171   0.007  0.00  0.00    +0.121 A 
ATOM      5  C   LIG    1       -0.056   3.853   0.022  0.00  0.00    +0.001 A 
ATOM      6  C   LIG    1       -1.244   3.152   0.029  0.00  0.00    +0.016 A 
ENDROOT
BRANCH   5   7
ATOM      7  C   LIG    1       -0.071   5.359   0.029  0.00  0.00    -0.000 C 
ATOM      8  C   LIG    1       -1.518   5.855   0.045  0.00  0.00    +0.015 C 
ATOM      9  C   LIG    1       -1.533   7.385   0.052  0.00  0.00    -0.010 C 
ATOM     10  C   LIG    1       -0.805   7.896   1.297  0.00  0.00    +0.007 C 
ATOM     11  C   LIG    1        0.642   7.401   1.281  0.00  0.00    -0.010 C 
ATOM     12  C   LIG    1        1.347   7.923   0.028  0.00  0.00    +0.007 C 
ATOM     13  C   LIG    1        0.618   7.412  -1.217  0.00  0.00    -0.010 C 
ATOM     14  C   LIG    1       -0.829   7.908  -1.201  0.00  0.00    +0.007 C 
ATOM     15  C   LIG    1        0.633   5.882  -1.224  0.00  0.00    +0.015 C 
ATOM     16  C   LIG    1        0.657   5.871   1.274  0.00  0.00    +0.015 C 
ENDBRANCH   5   7
BRANCH   1  19
ATOM     17  C   LIG    1       -3.660  -1.093   0.015  0.00  0.00    +0.008 A 
ATOM     18  C   LIG    1       -2.487  -0.394   0.013  0.00  0.00    +0.009 A 
ATOM     19  C   LIG    1       -2.504   1.002   0.020  0.00  0.00    -0.018 A 
ATOM     20  C   LIG    1       -3.721   1.687   0.035  0.00  0.00    +0.009 A 
ATOM     21  C   LIG    1       -4.897   0.992   0.033  0.00  0.00    +0.008 A 
ATOM     22  C   LIG    1       -4.882  -0.408   0.025  0.00  0.00    -0.025 A 
BRANCH  22  23
ATOM     23  C   LIG    1       -6.146  -1.158   0.028  0.00  0.00    +0.015 C 
ATOM     24  C   LIG    1       -7.323  -0.496   0.037  0.00  0.00    +0.092 C 
BRANCH  24  25
ATOM     25  C   LIG    1       -8.580  -1.241   0.040  0.00  0.00    +0.330 C 
ATOM     26  O   LIG    1       -8.566  -2.458   0.033  0.00  0.00    -0.246 OA
BRANCH  25  27
ATOM     27  O   LIG    1       -9.756  -0.580   0.049  0.00  0.00    -0.478 OA
ATOM     28  H   LIG    1       -9.767   0.357   0.054  0.00  0.00    +0.295 HD
ENDBRANCH  25  27
ENDBRANCH  24  25
ENDBRANCH  22  23
ENDBRANCH   1  19
BRANCH   4  29
ATOM     29  O   LIG    1        2.322   3.864  -0.000  0.00  0.00    -0.506 OA
ATOM     30  H   LIG    1        2.652   4.068  -0.886  0.00  0.00    +0.292 HD
ENDBRANCH   4  29
TORSDOF 6
