REMARK  Name = ZINC03936307
REMARK                            x       y       z     vdW  Elec       q    Type
REMARK                         _______ _______ _______ _____ _____    ______ ____
ROOT
ATOM      1  N   LIG    1       -1.855  -1.836  -3.002  0.00  0.00    -0.292 N 
ATOM      2  H   LIG    1       -2.502  -2.004  -3.705  0.00  0.00    +0.151 HD
ATOM      3  C   LIG    1       -2.133  -2.187  -1.731  0.00  0.00    +0.312 C 
ATOM      4  N   LIG    1       -3.311  -2.773  -1.437  0.00  0.00    -0.187 N 
ATOM      5  C   LIG    1       -3.902  -3.253  -0.194  0.00  0.00    +0.288 C 
ATOM      6  C   LIG    1       -5.125  -3.671  -1.002  0.00  0.00    +0.101 C 
ATOM      7  C   LIG    1       -4.371  -3.121  -2.176  0.00  0.00    +0.237 C 
ATOM      8  O   LIG    1       -4.627  -3.027  -3.357  0.00  0.00    -0.274 OA
ATOM      9  O   LIG    1       -1.322  -1.976  -0.851  0.00  0.00    -0.252 OA
ENDROOT
BRANCH   6  10
ATOM     10  C   LIG    1       -6.393  -2.885  -0.661  0.00  0.00    +0.018 C 
ATOM     11  C   LIG    1       -7.516  -3.290  -1.617  0.00  0.00    +0.005 C 
ENDBRANCH   6  10
BRANCH   6  12
ATOM     12  C   LIG    1       -5.349  -5.184  -1.053  0.00  0.00    +0.018 C 
ATOM     13  C   LIG    1       -5.658  -5.702   0.353  0.00  0.00    +0.005 C 
ENDBRANCH   6  12
BRANCH   1  14
ATOM     14  C   LIG    1       -0.575  -1.200  -3.323  0.00  0.00    +0.105 C 
BRANCH  14  15
ATOM     15  C   LIG    1       -0.234  -1.457  -4.768  0.00  0.00    -0.023 A 
ATOM     16  C   LIG    1       -1.225  -1.403  -5.731  0.00  0.00    +0.009 A 
ATOM     17  C   LIG    1       -0.917  -1.637  -7.058  0.00  0.00    +0.050 A 
ATOM     18  C   LIG    1        0.386  -1.928  -7.426  0.00  0.00    +0.166 A 
ATOM     19  C   LIG    1        1.385  -1.982  -6.457  0.00  0.00    +0.167 A 
ATOM     20  O   LIG    1        2.568  -2.283  -7.066  0.00  0.00    -0.453 OA
ATOM     21  C   LIG    1        2.213  -2.813  -8.357  0.00  0.00    +0.466 C 
ATOM     22  O   LIG    1        0.945  -2.194  -8.643  0.00  0.00    -0.453 OA
ATOM     23  C   LIG    1        1.070  -1.740  -5.129  0.00  0.00    +0.055 A 
ENDBRANCH  14  15
BRANCH  14  24
ATOM     24  C   LIG    1       -0.681   0.308  -3.084  0.00  0.00    +0.027 C 
BRANCH  24  26
ATOM     25  C   LIG    1       -1.009   2.081  -1.355  0.00  0.00    +0.004 C 
ATOM     26  C   LIG    1       -0.903   0.574  -1.594  0.00  0.00    -0.001 C 
ENDBRANCH  24  26
ENDBRANCH  14  24
ENDBRANCH   1  14
BRANCH   5  27
ATOM     27  O   LIG    1       -4.169  -2.214   0.749  0.00  0.00    -0.469 OA
BRANCH  27  28
ATOM     28  C   LIG    1       -3.176  -1.901   1.619  0.00  0.00    +0.123 A 
ATOM     29  C   LIG    1       -1.965  -2.580   1.561  0.00  0.00    +0.046 A 
ATOM     30  C   LIG    1       -0.954  -2.266   2.442  0.00  0.00    +0.016 A 
ATOM     31  C   LIG    1       -1.148  -1.263   3.396  0.00  0.00    +0.037 A 
ATOM     32  C   LIG    1       -2.367  -0.582   3.450  0.00  0.00    +0.016 A 
ATOM     33  C   LIG    1       -3.371  -0.899   2.562  0.00  0.00    +0.046 A 
BRANCH  31  34
ATOM     34  C   LIG    1       -0.068  -0.923   4.343  0.00  0.00    +0.247 C 
ATOM     35  N   LIG    1       -0.361  -0.649   5.629  0.00  0.00    -0.295 N 
ATOM     36  C   LIG    1       -1.731  -0.806   6.141  0.00  0.00    +0.123 C 
ATOM     37  C   LIG    1       -1.681  -1.657   7.415  0.00  0.00    +0.103 C 
ATOM     38  N   LIG    1       -0.728  -1.060   8.361  0.00  0.00    -0.302 NA
ATOM     39  C   LIG    1       -0.777  -1.746   9.659  0.00  0.00    +0.105 C 
ATOM     40  C   LIG    1        0.636  -1.061   7.815  0.00  0.00    +0.103 C 
ATOM     41  C   LIG    1        0.681  -0.191   6.560  0.00  0.00    +0.123 C 
ATOM     42  O   LIG    1        1.086  -0.891   3.962  0.00  0.00    -0.270 OA
ENDBRANCH  31  34
ENDBRANCH  27  28
ENDBRANCH   5  27
TORSDOF 9
