REMARK  Name = ZINC04016142
REMARK                            x       y       z     vdW  Elec       q    Type
REMARK                         _______ _______ _______ _____ _____    ______ ____
ROOT
ATOM      1  C   LIG    1        3.964   0.189   5.264  0.00  0.00    +0.046 C 
ATOM      2  C   LIG    1        3.331   0.547   3.944  0.00  0.00    -0.025 A 
ATOM      3  C   LIG    1        2.660   1.746   3.802  0.00  0.00    +0.036 A 
ATOM      4  C   LIG    1        2.084   2.077   2.589  0.00  0.00    +0.144 A 
ATOM      5  C   LIG    1        2.168   1.205   1.519  0.00  0.00    +0.146 A 
ATOM      6  C   LIG    1        2.838   0.005   1.655  0.00  0.00    +0.057 A 
ATOM      7  C   LIG    1        3.423  -0.328   2.870  0.00  0.00    +0.065 A 
ENDROOT
BRANCH   7   8
ATOM      8  N   LIG    1        4.103  -1.544   3.011  0.00  0.00    -0.160 N 
ATOM      9  C   LIG    1        3.565  -2.752   2.746  0.00  0.00    +0.245 C 
ATOM     10  C   LIG    1        4.664  -3.755   3.038  0.00  0.00    +0.162 C 
ATOM     11  C   LIG    1        5.824  -2.893   3.494  0.00  0.00    +0.152 C 
ATOM     12  O   LIG    1        2.442  -2.986   2.356  0.00  0.00    -0.273 OA
ATOM     13  N   LIG    1        5.419  -1.661   3.448  0.00  0.00    -0.170 NA
BRANCH  11  14
ATOM     14  C   LIG    1        7.149  -3.362   3.908  0.00  0.00    +0.353 C 
ATOM     15  O   LIG    1        7.401  -4.552   3.906  0.00  0.00    -0.244 OA
BRANCH  14  16
ATOM     16  O   LIG    1        8.089  -2.474   4.292  0.00  0.00    -0.476 OA
ATOM     17  H   LIG    1        7.894  -1.558   4.293  0.00  0.00    +0.295 HD
ENDBRANCH  14  16
ENDBRANCH  11  14
ENDBRANCH   7   8
BRANCH   4  18
ATOM     18  S   LIG    1        1.234   3.610   2.409  0.00  0.00    +0.112 S 
ATOM     19  O   LIG    1       -0.018   3.312   1.808  0.00  0.00    -0.142 OA
ATOM     20  O   LIG    1        2.159   4.522   1.832  0.00  0.00    -0.142 OA
BRANCH  18  21
ATOM     21  O   LIG    1        0.933   4.125   3.810  0.00  0.00    -0.250 OA
ATOM     22  H   LIG    1        1.764   4.342   4.260  0.00  0.00    +0.245 HD
ENDBRANCH  18  21
ENDBRANCH   4  18
BRANCH   5  23
ATOM     23  S   LIG    1        1.426   1.629  -0.022  0.00  0.00    +0.112 S 
ATOM     24  O   LIG    1        1.480   3.046  -0.122  0.00  0.00    -0.142 OA
ATOM     25  O   LIG    1        2.003   0.774  -1.000  0.00  0.00    -0.142 OA
BRANCH  23  26
ATOM     26  O   LIG    1       -0.046   1.255   0.069  0.00  0.00    -0.250 OA
ATOM     27  H   LIG    1       -0.131   0.291   0.140  0.00  0.00    +0.245 HD
ENDBRANCH  23  26
ENDBRANCH   5  23
TORSDOF 7
