REMARK  Name = ZINC04096465
REMARK                            x       y       z     vdW  Elec       q    Type
REMARK                         _______ _______ _______ _____ _____    ______ ____
ROOT
ATOM      1  C   LIG    1        3.750   5.898  -0.392  0.00  0.00    +0.148 C 
ATOM      2  C   LIG    1        3.584   7.419  -0.309  0.00  0.00    +0.165 C 
ATOM      3  C   LIG    1        2.373   7.835  -1.099  0.00  0.00    +0.059 C 
ATOM      4  C   LIG    1        1.430   6.975  -1.455  0.00  0.00    +0.203 C 
ATOM      5  O   LIG    1        1.479   5.656  -1.147  0.00  0.00    -0.478 OA
ATOM      6  C   LIG    1        2.386   5.250  -0.118  0.00  0.00    +0.228 C 
ENDROOT
BRANCH   1   9
ATOM      7  C   LIG    1        7.034   4.994   1.355  0.00  0.00    +0.109 C 
ATOM      8  C   LIG    1        6.036   5.454   0.323  0.00  0.00    +0.210 C 
ATOM      9  N   LIG    1        4.720   5.450   0.611  0.00  0.00    -0.306 N 
ATOM     10  H   LIG    1        4.414   5.152   1.481  0.00  0.00    +0.149 HD
ATOM     11  O   LIG    1        6.418   5.828  -0.766  0.00  0.00    -0.276 OA
ENDBRANCH   1   9
BRANCH   2  12
ATOM     12  O   LIG    1        4.745   8.055  -0.847  0.00  0.00    -0.386 OA
ATOM     13  H   LIG    1        4.710   9.021  -0.827  0.00  0.00    +0.210 HD
ENDBRANCH   2  12
BRANCH   4  14
ATOM     14  C   LIG    1        0.275   7.476  -2.221  0.00  0.00    +0.372 C 
ATOM     15  O   LIG    1        0.203   8.653  -2.512  0.00  0.00    -0.242 OA
BRANCH  14  16
ATOM     16  O   LIG    1       -0.701   6.627  -2.599  0.00  0.00    -0.475 OA
ATOM     17  H   LIG    1       -0.646   5.719  -2.375  0.00  0.00    +0.296 HD
ENDBRANCH  14  16
ENDBRANCH   4  14
BRANCH   6  18
ATOM     18  C   LIG    1        2.527   3.727  -0.128  0.00  0.00    +0.187 C 
BRANCH  18  19
ATOM     19  O   LIG    1        3.127   3.312  -1.357  0.00  0.00    -0.385 OA
ATOM     20  H   LIG    1        4.007   3.681  -1.510  0.00  0.00    +0.210 HD
ENDBRANCH  18  19
BRANCH  18  21
ATOM     21  C   LIG    1        1.145   3.085   0.008  0.00  0.00    +0.172 C 
BRANCH  21  22
ATOM     22  O   LIG    1        0.546   3.500   1.237  0.00  0.00    -0.387 OA
ATOM     23  H   LIG    1        1.052   3.256   2.023  0.00  0.00    +0.210 HD
ENDBRANCH  21  22
BRANCH  21  24
ATOM     24  C   LIG    1        1.286   1.562  -0.002  0.00  0.00    +0.189 C 
BRANCH  24  25
ATOM     25  O   LIG    1       -0.011   0.963   0.007  0.00  0.00    -0.392 OA
ATOM     26  H   LIG    1        0.002  -0.004   0.002  0.00  0.00    +0.210 HD
ENDBRANCH  24  25
ENDBRANCH  21  24
ENDBRANCH  18  21
ENDBRANCH   6  18
TORSDOF 10
