REMARK  Name = ZINC04040206
REMARK                            x       y       z     vdW  Elec       q    Type
REMARK                         _______ _______ _______ _____ _____    ______ ____
ROOT
ATOM      1  C   LIG    1       -0.018   1.465   0.010  0.00  0.00    -0.096 C 
ATOM      2  N   LIG    1        0.002  -0.004   0.002  0.00  0.00    +0.381 N 
ATOM      3  H   LIG    1        0.478  -0.328  -0.827  0.00  0.00    -0.082 HD
ATOM      4  C   LIG    1       -1.375  -0.510   0.000  0.00  0.00    -0.073 C 
ATOM      5  C   LIG    1       -1.358  -2.037  -0.096  0.00  0.00    -0.002 C 
ATOM      6  C   LIG    1       -0.608  -2.607   1.111  0.00  0.00    +0.010 C 
ATOM      7  C   LIG    1        0.804  -2.014   1.154  0.00  0.00    +0.007 C 
ATOM      8  C   LIG    1        1.524  -2.523   2.366  0.00  0.00    -0.036 A 
ATOM      9  C   LIG    1        1.375  -3.720   2.992  0.00  0.00    +0.004 A 
ATOM     10  C   LIG    1        2.142  -4.029   4.114  0.00  0.00    +0.002 A 
ATOM     11  C   LIG    1        3.112  -3.232   4.638  0.00  0.00    +0.026 A 
ATOM     12  C   LIG    1        3.284  -1.986   4.037  0.00  0.00    +0.047 A 
ATOM     13  N   LIG    1        4.060  -0.883   4.228  0.00  0.00    -0.360 N 
ATOM     14  H   LIG    1        4.724  -0.788   4.929  0.00  0.00    +0.165 HD
ATOM     15  C   LIG    1        3.766   0.084   3.279  0.00  0.00    +0.087 A 
ATOM     16  C   LIG    1        2.817  -0.347   2.463  0.00  0.00    -0.024 A 
ATOM     17  C   LIG    1        2.079   0.209   1.272  0.00  0.00    +0.022 C 
ATOM     18  C   LIG    1        2.484  -1.694   2.926  0.00  0.00    +0.006 A 
ATOM     19  C   LIG    1        0.713  -0.488   1.192  0.00  0.00    -0.057 C 
ENDROOT
BRANCH   5  20
ATOM     20  C   LIG    1       -2.794  -2.565  -0.103  0.00  0.00    +0.157 C 
BRANCH  20  21
ATOM     21  O   LIG    1       -3.459  -2.120  -1.288  0.00  0.00    -0.395 OA
ATOM     22  H   LIG    1       -4.376  -2.419  -1.359  0.00  0.00    +0.209 HD
ENDBRANCH  20  21
ENDBRANCH   5  20
TORSDOF 2
