REMARK  Name = ZINC03981933
REMARK                            x       y       z     vdW  Elec       q    Type
REMARK                         _______ _______ _______ _____ _____    ______ ____
ROOT
ATOM      1  C   LIG    1       -0.016   1.359   0.009  0.00  0.00    +0.000 C 
ATOM      2  C   LIG    1        1.172   2.081   0.002  0.00  0.00    +0.002 C 
ATOM      3  C   LIG    1        2.380   1.453  -0.000  0.00  0.00    +0.019 C 
ATOM      4  C   LIG    1        2.438   0.049   0.010  0.00  0.00    +0.061 C 
ATOM      5  C   LIG    1        1.226  -0.683  -0.021  0.00  0.00    +0.023 C 
ATOM      6  C   LIG    1        1.279  -2.098  -0.099  0.00  0.00    +0.059 C 
ATOM      7  C   LIG    1        2.532  -2.687  -0.120  0.00  0.00    +0.034 C 
ATOM      8  C   LIG    1        3.674  -1.905  -0.031  0.00  0.00    +0.086 C 
ATOM      9  N   LIG    1        0.118  -2.860  -0.131  0.00  0.00    -0.313 NA
ATOM     10  H   LIG    1       -0.731  -2.459   0.126  0.00  0.00    +0.122 HD
ATOM     11  C   LIG    1        0.158  -4.266  -0.544  0.00  0.00    +0.081 C 
ATOM     12  C   LIG    1        0.881  -5.134   0.481  0.00  0.00    +0.015 C 
ATOM     13  C   LIG    1        1.990  -5.919  -0.221  0.00  0.00    +0.002 C 
ATOM     14  C   LIG    1        1.990  -7.374   0.244  0.00  0.00    +0.015 C 
ATOM     15  C   LIG    1        3.356  -7.703   0.854  0.00  0.00    +0.081 C 
ATOM     16  N   LIG    1        4.399  -7.561  -0.161  0.00  0.00    -0.313 NA
ATOM     17  H   LIG    1        4.431  -8.199  -0.897  0.00  0.00    +0.122 HD
ATOM     18  C   LIG    1        5.331  -6.539  -0.106  0.00  0.00    +0.059 C 
ATOM     19  C   LIG    1        6.430  -6.510  -1.003  0.00  0.00    +0.023 C 
ATOM     20  C   LIG    1        7.379  -5.465  -0.897  0.00  0.00    +0.061 C 
ATOM     21  C   LIG    1        8.485  -5.462  -1.764  0.00  0.00    +0.019 C 
ATOM     22  C   LIG    1        8.613  -6.438  -2.704  0.00  0.00    +0.002 C 
ATOM     23  C   LIG    1        7.668  -7.453  -2.819  0.00  0.00    +0.000 C 
ATOM     24  N   LIG    1        7.226  -4.501   0.026  0.00  0.00    -0.299 NA
ATOM     25  C   LIG    1        6.208  -4.516   0.851  0.00  0.00    +0.086 C 
ATOM     26  C   LIG    1        8.233  -3.443   0.088  0.00  0.00    +0.084 C 
ATOM     27  C   LIG    1        7.770  -2.248   0.911  0.00  0.00    +0.015 C 
ATOM     28  C   LIG    1        6.846  -1.359   0.075  0.00  0.00    +0.002 C 
ATOM     29  C   LIG    1        5.873  -0.627   1.002  0.00  0.00    +0.015 C 
ATOM     30  C   LIG    1        4.858   0.164   0.175  0.00  0.00    +0.084 C 
ATOM     31  C   LIG    1        6.592  -7.498  -1.984  0.00  0.00    +0.006 C 
ATOM     32  C   LIG    1        5.243  -5.516   0.822  0.00  0.00    +0.034 C 
ATOM     33  N   LIG    1        3.613  -0.595   0.046  0.00  0.00    -0.299 NA
ATOM     34  C   LIG    1        0.002  -0.004   0.002  0.00  0.00    +0.006 C 
ENDROOT
TORSDOF 0
