REMARK  Name = ZINC03876174
REMARK                            x       y       z     vdW  Elec       q    Type
REMARK                         _______ _______ _______ _____ _____    ______ ____
ROOT
ATOM      1  C   LIG    1        2.075  -0.176  -1.828  0.00  0.00    +0.086 A 
ATOM      2  C   LIG    1        3.117   0.127  -0.996  0.00  0.00    +0.138 A 
ATOM      3  C   LIG    1        4.421   0.433  -1.604  0.00  0.00    +0.059 A 
ATOM      4  C   LIG    1        5.528   0.750  -0.813  0.00  0.00    +0.015 A 
ATOM      5  C   LIG    1        6.734   1.032  -1.414  0.00  0.00    +0.001 A 
ATOM      6  C   LIG    1        6.853   1.002  -2.796  0.00  0.00    +0.004 A 
ATOM      7  C   LIG    1        5.768   0.692  -3.588  0.00  0.00    +0.047 A 
ATOM      8  C   LIG    1        4.541   0.404  -3.002  0.00  0.00    +0.143 A 
ATOM      9  O   LIG    1        3.469   0.096  -3.763  0.00  0.00    -0.422 OA
ATOM     10  C   LIG    1        2.276  -0.190  -3.217  0.00  0.00    +0.345 A 
ATOM     11  O   LIG    1        1.341  -0.466  -3.948  0.00  0.00    -0.245 OA
ENDROOT
BRANCH   2  12
ATOM     12  O   LIG    1        2.953   0.143   0.347  0.00  0.00    -0.506 OA
ATOM     13  H   LIG    1        2.117  -0.054   0.719  0.00  0.00    +0.292 HD
ENDBRANCH   2  12
BRANCH   1  14
ATOM     14  C   LIG    1        0.718  -0.497  -1.257  0.00  0.00    +0.059 C 
BRANCH  14  15
ATOM     15  C   LIG    1        0.785  -1.804  -0.508  0.00  0.00    -0.040 A 
ATOM     16  C   LIG    1        1.110  -1.814   0.836  0.00  0.00    +0.004 A 
ATOM     17  C   LIG    1        1.172  -3.012   1.522  0.00  0.00    +0.000 A 
ATOM     18  C   LIG    1        0.909  -4.200   0.866  0.00  0.00    +0.000 A 
ATOM     19  C   LIG    1        0.583  -4.189  -0.478  0.00  0.00    +0.000 A 
ATOM     20  C   LIG    1        0.517  -2.991  -1.164  0.00  0.00    +0.004 A 
ENDBRANCH  14  15
BRANCH  14  22
ATOM     21  C   LIG    1       -0.002   1.890  -1.098  0.00  0.00    +0.005 C 
ATOM     22  C   LIG    1        0.290   0.617  -0.300  0.00  0.00    +0.010 C 
ENDBRANCH  14  22
ENDBRANCH   1  14
TORSDOF 4
