REMARK  Name = ZINC04096294
REMARK                            x       y       z     vdW  Elec       q    Type
REMARK                         _______ _______ _______ _____ _____    ______ ____
ROOT
ATOM      1  C   LIG    1        1.621   5.348  -1.540  0.00  0.00    +0.024 C 
ATOM      2  C   LIG    1        0.388   5.367  -0.603  0.00  0.00    +0.007 C 
ATOM      3  C   LIG    1        0.278   3.944   0.010  0.00  0.00    +0.005 C 
ATOM      4  C   LIG    1        1.644   3.318  -0.309  0.00  0.00    -0.001 C 
ATOM      5  C   LIG    1        1.745   1.825  -0.210  0.00  0.00    -0.003 C 
ATOM      6  C   LIG    1        0.405   1.110  -0.187  0.00  0.00    +0.008 C 
ATOM      7  C   LIG    1        0.609  -0.394  -0.388  0.00  0.00    +0.032 C 
ATOM      8  C   LIG    1        2.041  -0.754  -0.067  0.00  0.00    -0.060 C 
ATOM      9  C   LIG    1        2.309  -1.616   0.908  0.00  0.00    +0.046 C 
ATOM     10  C   LIG    1        3.683  -1.976   1.248  0.00  0.00    +0.156 C 
ATOM     11  C   LIG    1        4.834  -1.353   0.500  0.00  0.00    +0.080 C 
ATOM     12  C   LIG    1        4.409   0.017  -0.036  0.00  0.00    +0.019 C 
ATOM     13  O   LIG    1        3.898  -2.779   2.133  0.00  0.00    -0.293 OA
ATOM     14  C   LIG    1        3.144  -0.117  -0.878  0.00  0.00    -0.007 C 
ATOM     15  C   LIG    1        3.420  -0.964  -2.122  0.00  0.00    +0.016 C 
ATOM     16  C   LIG    1        2.648   1.269  -1.312  0.00  0.00    +0.002 C 
ATOM     17  C   LIG    1        3.815   2.218  -1.560  0.00  0.00    +0.005 C 
ATOM     18  C   LIG    1        3.334   3.546  -2.158  0.00  0.00    +0.007 C 
ATOM     19  C   LIG    1        1.917   3.844  -1.732  0.00  0.00    -0.024 C 
ATOM     20  C   LIG    1        0.915   3.312  -2.757  0.00  0.00    +0.012 C 
ENDROOT
BRANCH   1  22
ATOM     21  C   LIG    1        1.111   7.495  -2.707  0.00  0.00    +0.038 C 
ATOM     22  C   LIG    1        1.282   5.985  -2.886  0.00  0.00    +0.115 C 
BRANCH  22  23
ATOM     23  O   LIG    1        0.066   5.424  -3.385  0.00  0.00    -0.392 OA
ATOM     24  H   LIG    1       -0.211   5.783  -4.239  0.00  0.00    +0.210 HD
ENDBRANCH  22  23
ENDBRANCH   1  22
TORSDOF 2
