REMARK  Name = ZINC03976838
REMARK                            x       y       z     vdW  Elec       q    Type
REMARK                         _______ _______ _______ _____ _____    ______ ____
ROOT
ATOM      1  C   LIG    1       -4.035  -1.485  -5.185  0.00  0.00    +0.077 A 
ATOM      2  C   LIG    1       -4.117  -0.188  -5.644  0.00  0.00    +0.040 A 
ATOM      3  C   LIG    1       -4.800   0.080  -6.836  0.00  0.00    +0.042 A 
ATOM      4  C   LIG    1       -5.400  -0.979  -7.562  0.00  0.00    +0.080 A 
ATOM      5  N   LIG    1       -6.047  -0.692  -8.702  0.00  0.00    -0.235 NA
ATOM      6  C   LIG    1       -6.121   0.544  -9.133  0.00  0.00    +0.223 A 
ATOM      7  N   LIG    1       -5.576   1.565  -8.490  0.00  0.00    -0.220 NA
ATOM      8  C   LIG    1       -5.304  -2.289  -7.077  0.00  0.00    +0.076 A 
ATOM      9  C   LIG    1       -4.914   1.393  -7.353  0.00  0.00    +0.134 A 
ATOM     10  C   LIG    1       -4.625  -2.535  -5.905  0.00  0.00    +0.144 A 
ENDROOT
BRANCH   1  12
ATOM     11  C   LIG    1       -2.387  -0.922  -3.564  0.00  0.00    +0.241 C 
ATOM     12  N   LIG    1       -3.353  -1.757  -3.993  0.00  0.00    -0.279 N 
ATOM     13  H   LIG    1       -3.576  -2.548  -3.477  0.00  0.00    +0.155 HD
ATOM     14  O   LIG    1       -2.033   0.009  -4.262  0.00  0.00    -0.271 OA
BRANCH  11  16
ATOM     15  C   LIG    1       -0.807  -0.311  -1.826  0.00  0.00    -0.007 C 
ATOM     16  C   LIG    1       -1.760  -1.136  -2.250  0.00  0.00    +0.064 C 
BRANCH  15  17
ATOM     17  C   LIG    1       -0.165  -0.530  -0.481  0.00  0.00    +0.111 C 
BRANCH  17  19
ATOM     18  C   LIG    1        1.857   0.651  -1.096  0.00  0.00    +0.104 C 
ATOM     19  N   LIG    1        1.292  -0.627  -0.643  0.00  0.00    -0.305 NA
ATOM     20  C   LIG    1        1.932  -1.074   0.601  0.00  0.00    +0.104 C 
ENDBRANCH  17  19
ENDBRANCH  15  17
ENDBRANCH  11  16
ENDBRANCH   1  12
BRANCH   9  21
ATOM     21  N   LIG    1       -4.351   2.466  -6.692  0.00  0.00    -0.299 N 
ATOM     22  H   LIG    1       -3.804   2.318  -5.905  0.00  0.00    +0.154 HD
BRANCH  21  23
ATOM     23  C   LIG    1       -4.569   3.767  -7.159  0.00  0.00    +0.034 A 
ATOM     24  C   LIG    1       -3.564   4.721  -7.054  0.00  0.00    +0.026 A 
ATOM     25  C   LIG    1       -3.780   6.004  -7.515  0.00  0.00    +0.041 A 
ATOM     26  C   LIG    1       -4.998   6.342  -8.081  0.00  0.00    +0.142 A 
ATOM     27  F   LIG    1       -5.207   7.598  -8.531  0.00  0.00    -0.204 F 
ATOM     28  C   LIG    1       -6.002   5.393  -8.186  0.00  0.00    +0.078 A 
ATOM     29 CL   LIG    1       -7.528   5.819  -8.895  0.00  0.00    -0.081 Cl
ATOM     30  C   LIG    1       -5.787   4.105  -7.731  0.00  0.00    +0.046 A 
ENDBRANCH  21  23
ENDBRANCH   9  21
BRANCH  10  31
ATOM     31  O   LIG    1       -4.528  -3.807  -5.439  0.00  0.00    -0.485 OA
BRANCH  31  32
ATOM     32  C   LIG    1       -5.044  -4.845  -6.274  0.00  0.00    +0.201 C 
ATOM     33  C   LIG    1       -4.240  -6.160  -6.082  0.00  0.00    +0.075 C 
ATOM     34  C   LIG    1       -5.316  -7.217  -6.437  0.00  0.00    +0.163 C 
ATOM     35  O   LIG    1       -6.548  -6.686  -5.922  0.00  0.00    -0.376 OA
ATOM     36  C   LIG    1       -6.464  -5.255  -5.827  0.00  0.00    +0.204 C 
ENDBRANCH  31  32
ENDBRANCH  10  31
TORSDOF 8
