REMARK  Name = ZINC03876173
REMARK                            x       y       z     vdW  Elec       q    Type
REMARK                         _______ _______ _______ _____ _____    ______ ____
ROOT
ATOM      1  C   LIG    1       -1.494  -2.039   0.043  0.00  0.00    +0.086 A 
ATOM      2  C   LIG    1       -0.348  -2.775  -0.082  0.00  0.00    +0.138 A 
ATOM      3  C   LIG    1       -0.461  -4.241  -0.046  0.00  0.00    +0.059 A 
ATOM      4  C   LIG    1        0.668  -5.054  -0.167  0.00  0.00    +0.015 A 
ATOM      5  C   LIG    1        0.528  -6.424  -0.129  0.00  0.00    +0.001 A 
ATOM      6  C   LIG    1       -0.726  -6.995   0.028  0.00  0.00    +0.004 A 
ATOM      7  C   LIG    1       -1.849  -6.204   0.148  0.00  0.00    +0.047 A 
ATOM      8  C   LIG    1       -1.730  -4.821   0.113  0.00  0.00    +0.143 A 
ATOM      9  O   LIG    1       -2.819  -4.031   0.231  0.00  0.00    -0.422 OA
ATOM     10  C   LIG    1       -2.725  -2.692   0.205  0.00  0.00    +0.345 A 
ATOM     11  O   LIG    1       -3.739  -2.025   0.320  0.00  0.00    -0.245 OA
ENDROOT
BRANCH   2  12
ATOM     12  O   LIG    1        0.854  -2.173  -0.234  0.00  0.00    -0.506 OA
ATOM     13  H   LIG    1        1.595  -2.788  -0.312  0.00  0.00    +0.292 HD
ENDBRANCH   2  12
BRANCH   1  14
ATOM     14  C   LIG    1       -1.433  -0.534   0.013  0.00  0.00    +0.059 C 
BRANCH  14  15
ATOM     15  C   LIG    1       -1.878  -0.040  -1.340  0.00  0.00    -0.040 A 
ATOM     16  C   LIG    1       -1.212  -0.452  -2.479  0.00  0.00    +0.004 A 
ATOM     17  C   LIG    1       -1.619   0.000  -3.720  0.00  0.00    +0.000 A 
ATOM     18  C   LIG    1       -2.693   0.865  -3.822  0.00  0.00    +0.000 A 
ATOM     19  C   LIG    1       -3.359   1.277  -2.683  0.00  0.00    +0.000 A 
ATOM     20  C   LIG    1       -2.954   0.821  -1.442  0.00  0.00    +0.004 A 
ENDBRANCH  14  15
BRANCH  14  22
ATOM     21  C   LIG    1        0.031   1.446   0.436  0.00  0.00    +0.005 C 
ATOM     22  C   LIG    1        0.002  -0.075   0.277  0.00  0.00    +0.010 C 
ENDBRANCH  14  22
ENDBRANCH   1  14
TORSDOF 4
