REMARK  Name = ZINC03975314
REMARK                            x       y       z     vdW  Elec       q    Type
REMARK                         _______ _______ _______ _____ _____    ______ ____
ROOT
ATOM      1  N   LIG    1       -1.238   3.504   0.030  0.00  0.00    -0.277 N 
ATOM      2  C   LIG    1       -1.271   2.158   0.020  0.00  0.00    +0.262 A 
ATOM      3  C   LIG    1       -0.017   1.382   0.010  0.00  0.00    +0.048 A 
ATOM      4  C   LIG    1        0.002  -0.004   0.002  0.00  0.00    +0.014 A 
ATOM      5  C   LIG    1        1.208  -0.702  -0.013  0.00  0.00    +0.014 A 
ATOM      6  C   LIG    1        2.418  -0.027  -0.021  0.00  0.00    +0.048 A 
ATOM      7  C   LIG    1        2.421   1.387  -0.013  0.00  0.00    +0.008 A 
ATOM      8  C   LIG    1        3.646   2.095  -0.021  0.00  0.00    +0.048 A 
ATOM      9  C   LIG    1        4.900   1.319  -0.036  0.00  0.00    +0.262 A 
ATOM     10  N   LIG    1        4.867  -0.027  -0.042  0.00  0.00    -0.277 N 
ATOM     11  O   LIG    1        5.969   1.898  -0.044  0.00  0.00    -0.267 OA
ATOM     12  C   LIG    1        3.627   3.481  -0.015  0.00  0.00    +0.014 A 
ATOM     13  C   LIG    1        2.421   4.178  -0.001  0.00  0.00    +0.014 A 
ATOM     14  C   LIG    1        1.211   3.503   0.007  0.00  0.00    +0.048 A 
ATOM     15  C   LIG    1        3.716  -0.728  -0.036  0.00  0.00    +0.262 A 
ATOM     16  O   LIG    1        3.748  -1.942  -0.043  0.00  0.00    -0.267 OA
ATOM     17  C   LIG    1        1.208   2.089   0.002  0.00  0.00    +0.008 A 
ATOM     18  O   LIG    1       -2.340   1.579   0.022  0.00  0.00    -0.267 OA
ATOM     19  C   LIG    1       -0.087   4.204   0.022  0.00  0.00    +0.262 A 
ATOM     20  O   LIG    1       -0.119   5.419   0.028  0.00  0.00    -0.267 OA
ENDROOT
BRANCH   1  21
ATOM     21  C   LIG    1       -2.506   4.237   0.046  0.00  0.00    +0.110 C 
BRANCH  21  22
ATOM     22  C   LIG    1       -2.961   4.499  -1.391  0.00  0.00    -0.058 C 
BRANCH  22  24
ATOM     23  C   LIG    1       -4.055   6.580  -0.814  0.00  0.00    -0.097 C 
ATOM     24  N   LIG    1       -4.251   5.220  -1.358  0.00  0.00    +0.377 N 
ATOM     25  H   LIG    1       -4.904   4.709  -0.752  0.00  0.00    -0.083 HD
ATOM     26  C   LIG    1       -4.821   5.298  -2.720  0.00  0.00    -0.097 C 
ENDBRANCH  22  24
ENDBRANCH  21  22
ENDBRANCH   1  21
BRANCH  10  27
ATOM     27  C   LIG    1        6.135  -0.761  -0.057  0.00  0.00    +0.110 C 
BRANCH  27  28
ATOM     28  C   LIG    1        6.589  -1.023   1.380  0.00  0.00    -0.058 C 
BRANCH  28  29
ATOM     29  N   LIG    1        7.857  -1.781   1.349  0.00  0.00    +0.377 N 
ATOM     30  H   LIG    1        7.739  -2.603   0.744  0.00  0.00    -0.083 HD
ATOM     31  C   LIG    1        8.209  -2.234   2.711  0.00  0.00    -0.097 C 
ATOM     32  C   LIG    1        8.939  -0.934   0.803  0.00  0.00    -0.097 C 
ENDBRANCH  28  29
ENDBRANCH  27  28
ENDBRANCH  10  27
TORSDOF 6
