REMARK  Name = ZINC03875393
REMARK                            x       y       z     vdW  Elec       q    Type
REMARK                         _______ _______ _______ _____ _____    ______ ____
ROOT
ATOM      1  C   LIG    1       -1.416  -2.058  -0.121  0.00  0.00    +0.070 C 
ATOM      2  C   LIG    1       -2.843  -2.604  -0.001  0.00  0.00    +0.096 C 
ATOM      3  N   LIG    1       -2.838  -4.046  -0.284  0.00  0.00    -0.294 NA
ATOM      4  C   LIG    1       -4.144  -4.643   0.034  0.00  0.00    +0.089 C 
ATOM      5  C   LIG    1       -3.990  -6.163   0.082  0.00  0.00    +0.051 C 
ATOM      6  C   LIG    1       -3.313  -6.647  -1.175  0.00  0.00    -0.038 A 
ATOM      7  C   LIG    1       -3.416  -7.990  -1.506  0.00  0.00    +0.053 A 
ATOM      8  C   LIG    1       -2.809  -8.478  -2.649  0.00  0.00    +0.162 A 
ATOM      9  C   LIG    1       -2.091  -7.613  -3.469  0.00  0.00    +0.162 A 
ATOM     10  C   LIG    1       -1.992  -6.274  -3.135  0.00  0.00    +0.054 A 
ATOM     11  C   LIG    1       -2.603  -5.789  -1.987  0.00  0.00    -0.023 A 
ATOM     12  C   LIG    1       -2.467  -4.322  -1.674  0.00  0.00    +0.094 C 
ATOM     13  C   LIG    1       -1.015  -3.890  -1.911  0.00  0.00    +0.098 C 
ATOM     14  C   LIG    1       -0.873  -2.445  -1.481  0.00  0.00    +0.139 C 
ATOM     15  O   LIG    1       -0.346  -1.629  -2.198  0.00  0.00    -0.297 OA
ENDROOT
BRANCH   8  16
ATOM     16  O   LIG    1       -2.913  -9.796  -2.969  0.00  0.00    -0.491 OA
ATOM     17  C   LIG    1       -3.665 -10.622  -2.079  0.00  0.00    +0.277 C 
ENDBRANCH   8  16
BRANCH   9  18
ATOM     18  O   LIG    1       -1.488  -8.082  -4.595  0.00  0.00    -0.491 OA
ATOM     19  C   LIG    1       -0.769  -7.136  -5.388  0.00  0.00    +0.277 C 
ENDBRANCH   9  18
BRANCH   1  20
ATOM     20  C   LIG    1       -1.433  -0.534   0.013  0.00  0.00    +0.015 C 
BRANCH  20  22
ATOM     21  C   LIG    1       -0.019   1.526   0.010  0.00  0.00    +0.007 C 
ATOM     22  C   LIG    1        0.002  -0.004   0.002  0.00  0.00    -0.016 C 
ATOM     23  C   LIG    1        0.742  -0.511   1.242  0.00  0.00    +0.007 C 
ENDBRANCH  20  22
ENDBRANCH   1  20
TORSDOF 4
