REMARK  Name = ZINC03995401
REMARK                            x       y       z     vdW  Elec       q    Type
REMARK                         _______ _______ _______ _____ _____    ______ ____
ROOT
ATOM      1  C   LIG    1        1.532  -2.285  -2.665  0.00  0.00    +0.237 C 
ATOM      2  C   LIG    1        0.709  -1.940  -3.932  0.00  0.00    +0.185 C 
ATOM      3  C   LIG    1        1.202  -3.007  -4.939  0.00  0.00    +0.196 C 
ATOM      4  C   LIG    1        1.790  -4.121  -4.052  0.00  0.00    +0.254 C 
ATOM      5  O   LIG    1        1.595  -3.727  -2.682  0.00  0.00    -0.339 OA
ENDROOT
BRANCH   4   6
ATOM      6  N   LIG    1        1.098  -5.386  -4.314  0.00  0.00    -0.285 N 
ATOM      7  C   LIG    1        0.039  -5.885  -3.617  0.00  0.00    +0.203 A 
ATOM      8  N   LIG    1       -0.326  -7.028  -4.121  0.00  0.00    -0.231 NA
ATOM      9  C   LIG    1        0.473  -7.334  -5.171  0.00  0.00    +0.147 A 
ATOM     10  C   LIG    1        0.552  -8.407  -6.074  0.00  0.00    +0.147 A 
ATOM     11  N   LIG    1        1.483  -8.371  -7.022  0.00  0.00    -0.219 NA
ATOM     12  C   LIG    1        2.328  -7.361  -7.112  0.00  0.00    +0.225 A 
ATOM     13  N   LIG    1        2.295  -6.336  -6.286  0.00  0.00    -0.216 NA
ATOM     14  C   LIG    1        1.393  -6.281  -5.311  0.00  0.00    +0.167 A 
BRANCH  10  15
ATOM     15  N   LIG    1       -0.330  -9.470  -5.988  0.00  0.00    -0.341 N 
ATOM     16  H   LIG    1       -0.266 -10.206  -6.617  0.00  0.00    +0.144 HD
ATOM     17  H   LIG    1       -1.013  -9.480  -5.299  0.00  0.00    +0.144 HD
ENDBRANCH  10  15
ENDBRANCH   4   6
BRANCH   1  20
ATOM     18  N   LIG    1        0.688  -0.476  -1.203  0.00  0.00    -0.313 N 
ATOM     19  H   LIG    1        1.042   0.162  -1.842  0.00  0.00    +0.149 HD
ATOM     20  C   LIG    1        0.827  -1.799  -1.425  0.00  0.00    +0.245 C 
ATOM     21  O   LIG    1        0.384  -2.597  -0.627  0.00  0.00    -0.273 OA
BRANCH  18  23
ATOM     22  C   LIG    1       -0.019   1.526   0.010  0.00  0.00    +0.024 C 
ATOM     23  C   LIG    1        0.002  -0.004   0.002  0.00  0.00    +0.101 C 
ENDBRANCH  18  23
ENDBRANCH   1  20
BRANCH   2  24
ATOM     24  O   LIG    1        1.012  -0.623  -4.395  0.00  0.00    -0.386 OA
ATOM     25  H   LIG    1        0.803   0.075  -3.759  0.00  0.00    +0.210 HD
ENDBRANCH   2  24
BRANCH   3  26
ATOM     26  O   LIG    1        2.208  -2.461  -5.794  0.00  0.00    -0.385 OA
ATOM     27  H   LIG    1        1.905  -1.718  -6.333  0.00  0.00    +0.210 HD
ENDBRANCH   3  26
TORSDOF 6
