REMARK  Name = ZINC03914617
REMARK                            x       y       z     vdW  Elec       q    Type
REMARK                         _______ _______ _______ _____ _____    ______ ____
ROOT
ATOM      1  C   LIG    1        0.003   1.321   0.412  0.00  0.00    +0.090 C 
ATOM      2  C   LIG    1       -0.629   2.007   1.627  0.00  0.00    +0.167 C 
ATOM      3  C   LIG    1       -2.103   1.609   1.727  0.00  0.00    +0.207 C 
ATOM      4  C   LIG    1       -2.859   2.106   0.494  0.00  0.00    +0.050 C 
ATOM      5  C   LIG    1       -2.300   1.423  -0.758  0.00  0.00    +0.041 C 
ATOM      6  C   LIG    1       -0.793   1.693  -0.841  0.00  0.00    +0.101 C 
ATOM      7  C   LIG    1       -0.107   1.539  -2.197  0.00  0.00    +0.196 C 
ATOM      8  O   LIG    1       -0.354   2.816  -1.603  0.00  0.00    -0.368 OA
ENDROOT
BRANCH   1  10
ATOM      9  C   LIG    1        1.707   3.291   0.132  0.00  0.00    +0.155 C 
ATOM     10  C   LIG    1        1.452   1.788   0.256  0.00  0.00    +0.101 C 
ATOM     11  C   LIG    1        2.503   0.944   0.980  0.00  0.00    +0.045 C 
ATOM     12  O   LIG    1        1.825   2.401  -0.980  0.00  0.00    -0.364 OA
BRANCH   9  13
ATOM     13  C   LIG    1        2.995   3.849   0.740  0.00  0.00    +0.061 C 
BRANCH  13  17
ATOM     14  C   LIG    1        3.099   5.450   3.058  0.00  0.00    +0.038 C 
ATOM     15  C   LIG    1        3.103   6.093   1.695  0.00  0.00    -0.080 C 
ATOM     16  C   LIG    1        3.227   7.590   1.568  0.00  0.00    +0.038 C 
ATOM     17  C   LIG    1        2.998   5.351   0.621  0.00  0.00    -0.026 C 
ENDBRANCH  13  17
ENDBRANCH   9  13
ENDBRANCH   1  10
BRANCH   2  18
ATOM     18  O   LIG    1        0.056   1.601   2.813  0.00  0.00    -0.376 OA
ATOM     19  C   LIG    1        0.061   2.588   3.848  0.00  0.00    +0.194 C 
ENDBRANCH   2  18
BRANCH   3  20
ATOM     20  O   LIG    1       -2.207   0.163   1.806  0.00  0.00    -0.444 OA
BRANCH  20  21
ATOM     21  C   LIG    1       -3.253  -0.338   2.490  0.00  0.00    +0.407 C 
ATOM     22  N   LIG    1       -3.409  -1.671   2.602  0.00  0.00    -0.221 N 
ATOM     23  H   LIG    1       -2.767  -2.271   2.190  0.00  0.00    +0.161 HD
ATOM     24  C   LIG    1       -4.456  -2.172   3.286  0.00  0.00    +0.236 C 
ATOM     25  O   LIG    1       -5.258  -1.423   3.801  0.00  0.00    -0.274 OA
ATOM     26  O   LIG    1       -4.057   0.413   3.006  0.00  0.00    -0.226 OA
BRANCH  24  27
ATOM     27  C   LIG    1       -4.631  -3.664   3.411  0.00  0.00    +0.204 C 
ATOM     28 CL   LIG    1       -6.112  -4.017   4.377  0.00  0.00    -0.116 Cl
ENDBRANCH  24  27
ENDBRANCH  20  21
ENDBRANCH   3  20
TORSDOF 7
