REMARK  Name = ZINC03875028
REMARK                            x       y       z     vdW  Elec       q    Type
REMARK                         _______ _______ _______ _____ _____    ______ ____
ROOT
ATOM      1  C   LIG    1       -1.943  -1.883  -0.914  0.00  0.00    +0.106 A 
ATOM      2  C   LIG    1       -3.179  -2.215  -0.385  0.00  0.00    +0.030 A 
ATOM      3  C   LIG    1       -3.912  -3.260  -0.911  0.00  0.00    +0.026 A 
ATOM      4  C   LIG    1       -3.412  -3.993  -1.982  0.00  0.00    +0.042 A 
ATOM      5  C   LIG    1       -2.161  -3.654  -2.514  0.00  0.00    +0.010 A 
ATOM      6  C   LIG    1       -1.910  -4.601  -3.624  0.00  0.00    +0.048 C 
ATOM      7  C   LIG    1       -3.094  -5.468  -3.661  0.00  0.00    +0.249 C 
ATOM      8  O   LIG    1       -3.285  -6.387  -4.438  0.00  0.00    -0.270 OA
ATOM      9  C   LIG    1       -0.802  -4.656  -4.447  0.00  0.00    +0.039 C 
ATOM     10  N   LIG    1       -3.932  -5.071  -2.688  0.00  0.00    -0.281 N 
ATOM     11  H   LIG    1       -4.789  -5.485  -2.501  0.00  0.00    +0.155 HD
ATOM     12  C   LIG    1       -1.433  -2.595  -1.981  0.00  0.00    +0.039 A 
ENDROOT
BRANCH   9  13
ATOM     13  C   LIG    1       -0.726  -5.632  -5.463  0.00  0.00    +0.040 A 
ATOM     14  C   LIG    1       -0.101  -6.868  -5.369  0.00  0.00    +0.031 A 
ATOM     15  C   LIG    1       -0.268  -7.501  -6.595  0.00  0.00    -0.026 A 
ATOM     16  C   LIG    1       -0.975  -6.668  -7.409  0.00  0.00    +0.020 A 
ATOM     17  C   LIG    1       -1.354  -7.005  -8.832  0.00  0.00    +0.053 C 
ATOM     18  C   LIG    1       -0.484  -8.177  -9.300  0.00  0.00    +0.006 C 
ATOM     19  C   LIG    1       -0.536  -9.301  -8.261  0.00  0.00    +0.005 C 
ATOM     20  C   LIG    1        0.224  -8.867  -7.002  0.00  0.00    +0.037 C 
ATOM     21  N   LIG    1       -1.263  -5.534  -6.730  0.00  0.00    -0.358 N 
ATOM     22  H   LIG    1       -1.763  -4.779  -7.076  0.00  0.00    +0.166 HD
ENDBRANCH   9  13
BRANCH   1  23
ATOM     23  S   LIG    1       -1.023  -0.546  -0.229  0.00  0.00    +0.060 S 
ATOM     24  O   LIG    1       -1.471  -0.389   1.110  0.00  0.00    -0.153 OA
ATOM     25  O   LIG    1        0.340  -0.782  -0.554  0.00  0.00    -0.153 OA
BRANCH  23  27
ATOM     26  C   LIG    1       -2.594   1.632  -0.555  0.00  0.00    +0.131 C 
ATOM     27  N   LIG    1       -1.473   0.825  -1.043  0.00  0.00    -0.183 NA
ATOM     28  C   LIG    1       -0.749   1.231  -2.250  0.00  0.00    +0.131 C 
ENDBRANCH  23  27
ENDBRANCH   1  23
TORSDOF 3
