REMARK  Name = ZINC03991231
REMARK                            x       y       z     vdW  Elec       q    Type
REMARK                         _______ _______ _______ _____ _____    ______ ____
ROOT
ATOM      1  N   LIG    1       -7.290   3.960   0.119  0.00  0.00    +0.380 N 
ATOM      2  H   LIG    1       -7.354   4.384   1.052  0.00  0.00    -0.082 HD
ATOM      3  C   LIG    1       -8.521   3.182  -0.139  0.00  0.00    -0.078 C 
ATOM      4  C   LIG    1       -9.733   4.101   0.028  0.00  0.00    -0.009 C 
ATOM      5  C   LIG    1       -9.634   5.256  -0.972  0.00  0.00    +0.038 C 
ATOM      6  C   LIG    1       -8.320   6.007  -0.743  0.00  0.00    -0.009 C 
ATOM      7  C   LIG    1       -7.149   5.033  -0.888  0.00  0.00    -0.078 C 
ENDROOT
BRANCH   5   8
ATOM      8  C   LIG    1      -10.795   6.196  -0.773  0.00  0.00    +0.094 A 
ATOM      9  C   LIG    1      -11.811   6.542  -1.771  0.00  0.00    +0.045 A 
ATOM     10  C   LIG    1      -12.030   6.163  -3.098  0.00  0.00    +0.016 A 
ATOM     11  C   LIG    1      -13.095   6.673  -3.783  0.00  0.00    +0.039 A 
ATOM     12  C   LIG    1      -13.966   7.567  -3.170  0.00  0.00    +0.127 A 
ATOM     13  F   LIG    1      -15.015   8.062  -3.862  0.00  0.00    -0.205 F 
ATOM     14  C   LIG    1      -13.767   7.953  -1.859  0.00  0.00    +0.088 A 
ATOM     15  C   LIG    1      -12.688   7.445  -1.147  0.00  0.00    +0.170 A 
ATOM     16  O   LIG    1      -12.240   7.627   0.112  0.00  0.00    -0.354 OA
ATOM     17  N   LIG    1      -11.081   6.843   0.314  0.00  0.00    -0.082 NA
ENDBRANCH   5   8
BRANCH   1  18
ATOM     18  C   LIG    1       -6.112   3.069   0.076  0.00  0.00    -0.076 C 
BRANCH  18  19
ATOM     19  C   LIG    1       -4.841   3.919   0.068  0.00  0.00    +0.022 C 
BRANCH  19  20
ATOM     20  C   LIG    1       -3.615   3.004   0.052  0.00  0.00    +0.227 C 
BRANCH  20  21
ATOM     21  O   LIG    1       -2.427   3.799   0.044  0.00  0.00    -0.488 OA
BRANCH  21  25
ATOM     22  C   LIG    1        1.176   1.782   0.000  0.00  0.00    -0.016 A 
ATOM     23  C   LIG    1       -0.013   1.076   0.008  0.00  0.00    +0.010 A 
ATOM     24  C   LIG    1       -1.220   1.749   0.017  0.00  0.00    +0.050 A 
ATOM     25  C   LIG    1       -1.240   3.135   0.030  0.00  0.00    +0.162 A 
ATOM     26  C   LIG    1       -0.044   3.845   0.022  0.00  0.00    +0.162 A 
ATOM     27  C   LIG    1        1.163   3.164   0.007  0.00  0.00    +0.055 A 
BRANCH  22  29
ATOM     28  C   LIG    1        2.824   0.567   1.399  0.00  0.00    +0.043 C 
ATOM     29  C   LIG    1        2.489   1.043  -0.016  0.00  0.00    +0.142 C 
BRANCH  29  30
ATOM     30  O   LIG    1        2.390  -0.086  -0.886  0.00  0.00    -0.387 OA
ATOM     31  H   LIG    1        1.708  -0.722  -0.630  0.00  0.00    +0.210 HD
ENDBRANCH  29  30
ENDBRANCH  22  29
BRANCH  26  32
ATOM     32  O   LIG    1       -0.059   5.205   0.029  0.00  0.00    -0.491 OA
ATOM     33  C   LIG    1        1.207   5.868   0.020  0.00  0.00    +0.277 C 
ENDBRANCH  26  32
ENDBRANCH  21  25
ENDBRANCH  20  21
ENDBRANCH  19  20
ENDBRANCH  18  19
ENDBRANCH   1  18
TORSDOF 9
