REMARK  Name = ZINC03995477
REMARK                            x       y       z     vdW  Elec       q    Type
REMARK                         _______ _______ _______ _____ _____    ______ ____
ROOT
ATOM      1  C   LIG    1        0.939  -4.186  -0.025  0.00  0.00    +0.096 C 
ATOM      2  C   LIG    1       -0.268  -4.747  -0.724  0.00  0.00    +0.007 A 
ATOM      3  C   LIG    1       -1.477  -4.829  -0.058  0.00  0.00    +0.008 A 
ATOM      4  C   LIG    1       -2.587  -5.346  -0.699  0.00  0.00    +0.001 A 
ATOM      5  C   LIG    1       -2.492  -5.781  -2.008  0.00  0.00    +0.004 A 
ATOM      6  C   LIG    1       -1.288  -5.701  -2.678  0.00  0.00    +0.046 A 
ATOM      7  C   LIG    1       -0.170  -5.183  -2.037  0.00  0.00    +0.132 A 
ATOM      8  O   LIG    1        1.010  -5.106  -2.694  0.00  0.00    -0.460 OA
ATOM      9  C   LIG    1        2.167  -5.038  -2.009  0.00  0.00    +0.114 C 
ATOM     10  C   LIG    1        3.434  -5.453  -2.719  0.00  0.00    +0.081 C 
ATOM     11  C   LIG    1        4.414  -6.043  -1.718  0.00  0.00    -0.021 C 
ATOM     12  C   LIG    1        3.801  -7.279  -1.057  0.00  0.00    +0.012 C 
ATOM     13  C   LIG    1        5.711  -6.427  -2.433  0.00  0.00    +0.012 C 
ATOM     14  C   LIG    1        4.709  -4.982  -0.651  0.00  0.00    +0.086 C 
ATOM     15  C   LIG    1        3.412  -4.551  -0.023  0.00  0.00    +0.164 C 
ATOM     16  O   LIG    1        3.410  -4.143   1.121  0.00  0.00    -0.292 OA
ATOM     17  C   LIG    1        2.199  -4.612  -0.736  0.00  0.00    +0.045 C 
ENDROOT
BRANCH   1  24
ATOM     18  C   LIG    1       -0.019   1.526   0.010  0.00  0.00    +0.012 C 
ATOM     19  C   LIG    1        0.002  -0.004   0.002  0.00  0.00    -0.021 C 
ATOM     20  C   LIG    1       -1.432  -0.536   0.007  0.00  0.00    +0.012 C 
ATOM     21  C   LIG    1        0.732  -0.500  -1.250  0.00  0.00    +0.086 C 
ATOM     22  C   LIG    1        0.814  -2.004  -1.214  0.00  0.00    +0.164 C 
ATOM     23  O   LIG    1        0.843  -2.631  -2.264  0.00  0.00    -0.292 OA
ATOM     24  C   LIG    1        0.855  -2.681  -0.016  0.00  0.00    +0.044 C 
ATOM     25  C   LIG    1        0.823  -2.017   1.190  0.00  0.00    +0.102 C 
ATOM     26  C   LIG    1        0.742  -0.514   1.242  0.00  0.00    +0.080 C 
BRANCH  25  27
ATOM     27  O   LIG    1        0.860  -2.656   2.232  0.00  0.00    -0.511 OA
ATOM     28  H   LIG    1        0.910  -3.591   2.206  0.00  0.00    +0.292 HD
ENDBRANCH  25  27
ENDBRANCH   1  24
TORSDOF 2
