REMARK  Name = ZINC03885257
REMARK                            x       y       z     vdW  Elec       q    Type
REMARK                         _______ _______ _______ _____ _____    ______ ____
ROOT
ATOM      1  C   LIG    1       -0.017   1.378   0.010  0.00  0.00    +0.030 A 
ATOM      2  C   LIG    1        1.171   2.086   0.002  0.00  0.00    +0.024 A 
ATOM      3  C   LIG    1        2.378   1.410  -0.013  0.00  0.00    +0.071 A 
ATOM      4 CL   LIG    1        3.870   2.298  -0.023  0.00  0.00    -0.081 Cl
ATOM      5  C   LIG    1        2.396   0.027  -0.021  0.00  0.00    +0.142 A 
ATOM      6  C   LIG    1        1.208  -0.680  -0.013  0.00  0.00    +0.062 A 
ATOM      7  C   LIG    1        0.002  -0.004   0.002  0.00  0.00    +0.108 A 
ENDROOT
BRANCH   7   8
ATOM      8  S   LIG    1       -1.512  -0.905   0.012  0.00  0.00    +0.061 S 
ATOM      9  O   LIG    1       -2.492  -0.046   0.578  0.00  0.00    -0.153 OA
ATOM     10  O   LIG    1       -1.218  -2.186   0.553  0.00  0.00    -0.153 OA
BRANCH   8  11
ATOM     11  N   LIG    1       -1.948  -1.147  -1.567  0.00  0.00    -0.177 NA
ATOM     12  C   LIG    1       -2.780  -0.243  -2.374  0.00  0.00    +0.109 C 
ATOM     13  C   LIG    1       -2.941  -0.889  -3.766  0.00  0.00    +0.018 C 
ATOM     14  C   LIG    1       -2.663  -2.389  -3.487  0.00  0.00    +0.018 C 
ATOM     15  C   LIG    1       -1.562  -2.302  -2.398  0.00  0.00    +0.109 C 
ENDBRANCH   8  11
ENDBRANCH   7   8
BRANCH   5  16
ATOM     16  N   LIG    1        3.687  -0.696  -0.037  0.00  0.00    +0.007 N 
ATOM     17  O   LIG    1        3.703  -1.905  -0.044  0.00  0.00    -0.130 OA
BRANCH  16  18
ATOM     18  O   LIG    1        4.726  -0.078  -0.044  0.00  0.00    -0.396 OA
ATOM     19  H   LIG    1        4.714   0.859  -0.039  0.00  0.00    +0.329 HD
ENDBRANCH  16  18
ENDBRANCH   5  16
TORSDOF 4
