REMARK  Name = ZINC03875720
REMARK                            x       y       z     vdW  Elec       q    Type
REMARK                         _______ _______ _______ _____ _____    ______ ____
ROOT
ATOM      1  N   LIG    1        3.621  -0.650  -0.036  0.00  0.00    -0.297 N 
ATOM      2  H   LIG    1        3.800  -1.309  -0.725  0.00  0.00    +0.154 HD
ENDROOT
BRANCH   1   6
ATOM      3  C   LIG    1       -0.003   1.403  -0.010  0.00  0.00    +0.000 A 
ATOM      4  C   LIG    1        1.175   2.079   0.252  0.00  0.00    +0.002 A 
ATOM      5  C   LIG    1        2.378   1.401   0.244  0.00  0.00    +0.023 A 
ATOM      6  C   LIG    1        2.404   0.039  -0.027  0.00  0.00    +0.033 A 
ATOM      7  C   LIG    1        1.220  -0.637  -0.290  0.00  0.00    +0.023 A 
ATOM      8  C   LIG    1        0.020   0.047  -0.281  0.00  0.00    +0.002 A 
ENDBRANCH   1   6
BRANCH   1   9
ATOM      9  C   LIG    1        4.545  -0.399   0.912  0.00  0.00    +0.132 C 
ATOM     10  S   LIG    1        4.177   0.657   2.208  0.00  0.00    -0.019 S 
BRANCH   9  11
ATOM     11  N   LIG    1        5.760  -0.979   0.840  0.00  0.00    -0.340 N 
ATOM     12  H   LIG    1        6.425  -0.798   1.523  0.00  0.00    +0.144 HD
ATOM     13  H   LIG    1        5.968  -1.578   0.106  0.00  0.00    +0.144 HD
ENDBRANCH   9  11
ENDBRANCH   1   9
TORSDOF 3
