REMARK  Name = ZINC03905769
REMARK                            x       y       z     vdW  Elec       q    Type
REMARK                         _______ _______ _______ _____ _____    ______ ____
ROOT
ATOM      1  C   LIG    1        2.554   0.225  -0.076  0.00  0.00    +0.078 C 
ATOM      2  C   LIG    1        2.340   1.556   0.005  0.00  0.00    +0.021 C 
ATOM      3  C   LIG    1        3.518   2.496   0.019  0.00  0.00    +0.061 C 
ATOM      4  N   LIG    1        1.074   2.064   0.076  0.00  0.00    -0.273 N 
ATOM      5  H   LIG    1        0.970   3.026   0.133  0.00  0.00    +0.156 HD
ATOM      6  C   LIG    1       -0.030   1.307   0.070  0.00  0.00    +0.304 C 
ATOM      7  N   LIG    1        0.021  -0.037  -0.007  0.00  0.00    -0.288 N 
ATOM      8  H   LIG    1       -0.792  -0.566  -0.009  0.00  0.00    +0.151 HD
ATOM      9  O   LIG    1       -1.116   1.851   0.132  0.00  0.00    -0.252 OA
ATOM     10  C   LIG    1        1.342  -0.684  -0.087  0.00  0.00    +0.143 C 
ENDROOT
BRANCH  10  11
ATOM     11  C   LIG    1        1.384  -1.499  -1.354  0.00  0.00    -0.022 A 
ATOM     12  C   LIG    1        0.817  -1.003  -2.514  0.00  0.00    +0.008 A 
ATOM     13  C   LIG    1        0.860  -1.747  -3.677  0.00  0.00    +0.033 A 
ATOM     14  C   LIG    1        1.460  -2.993  -3.679  0.00  0.00    +0.122 A 
ATOM     15  C   LIG    1        2.022  -3.491  -2.519  0.00  0.00    +0.033 A 
ATOM     16  C   LIG    1        1.984  -2.744  -1.356  0.00  0.00    +0.008 A 
BRANCH  14  17
ATOM     17  N   LIG    1        1.501  -3.793  -4.924  0.00  0.00    +0.006 N 
ATOM     18  O   LIG    1        2.030  -4.890  -4.926  0.00  0.00    -0.130 OA
BRANCH  17  19
ATOM     19  O   LIG    1        1.006  -3.354  -5.947  0.00  0.00    -0.396 OA
ATOM     20  H   LIG    1        0.599  -2.510  -5.945  0.00  0.00    +0.329 HD
ENDBRANCH  17  19
ENDBRANCH  14  17
ENDBRANCH  10  11
BRANCH   1  21
ATOM     21  C   LIG    1        3.864  -0.302  -0.149  0.00  0.00    +0.339 C 
ATOM     22  O   LIG    1        4.817   0.448  -0.248  0.00  0.00    -0.245 OA
BRANCH  21  23
ATOM     23  O   LIG    1        4.058  -1.637  -0.109  0.00  0.00    -0.460 OA
BRANCH  23  24
ATOM     24  C   LIG    1        5.408  -2.100  -0.187  0.00  0.00    +0.243 C 
BRANCH  24  25
ATOM     25  C   LIG    1        5.427  -3.628  -0.126  0.00  0.00    +0.110 C 
BRANCH  25  26
ATOM     26  S   LIG    1        7.141  -4.216  -0.225  0.00  0.00    -0.158 S 
BRANCH  26  28
ATOM     27  C   LIG    1        8.383  -6.652  -0.215  0.00  0.00    +0.015 C 
ATOM     28  C   LIG    1        6.991  -6.021  -0.141  0.00  0.00    +0.066 C 
ENDBRANCH  26  28
ENDBRANCH  25  26
ENDBRANCH  24  25
ENDBRANCH  23  24
ENDBRANCH  21  23
ENDBRANCH   1  21
TORSDOF 9
