REMARK  Name = ZINC03995766
REMARK                            x       y       z     vdW  Elec       q    Type
REMARK                         _______ _______ _______ _____ _____    ______ ____
ROOT
ATOM      1  C   LIG    1       -0.011   1.435   0.000  0.00  0.00    -0.077 C 
ATOM      2  C   LIG    1        1.471   1.866  -0.005  0.00  0.00    -0.011 C 
ATOM      3  C   LIG    1        2.232   0.680  -0.632  0.00  0.00    +0.001 C 
ATOM      4  CA  LIG    1        1.148  -0.378  -0.933  0.00  0.00    +0.043 C 
ATOM      5  C   LIG    1        2.158   2.071  -1.357  0.00  0.00    +0.101 C 
ATOM      6  N   LIG    1        0.031  -0.050  -0.024  0.00  0.00    +0.388 N 
ATOM      7  H1  LIG    1       -0.839  -0.422  -0.374  0.00  0.00    -0.085 HD
ATOM      8  H2  LIG    1        0.226  -0.412   0.897  0.00  0.00    -0.085 HD
ENDROOT
BRANCH   4   9
ATOM      9  C   LIG    1        1.679  -1.764  -0.673  0.00  0.00    +0.291 C 
ATOM     10  O   LIG    1        1.262  -2.409   0.273  0.00  0.00    -0.253 OA
BRANCH   9  11
ATOM     11  OXT LIG    1        2.527  -2.240  -1.409  0.00  0.00    -0.482 OA
ATOM     12  HXT LIG    1        2.847  -1.744  -2.136  0.00  0.00    +0.295 HD
ENDBRANCH   9  11
ENDBRANCH   4   9
BRANCH   5  13
ATOM     13  C   LIG    1        1.276   2.202  -2.571  0.00  0.00    +0.308 C 
ATOM     14  O   LIG    1        0.411   3.061  -2.607  0.00  0.00    -0.251 OA
BRANCH  13  15
ATOM     15  O   LIG    1        1.427   1.450  -3.519  0.00  0.00    -0.480 OA
ATOM     16  H   LIG    1        2.092   0.790  -3.492  0.00  0.00    +0.295 HD
ENDBRANCH  13  15
ENDBRANCH   5  13
TORSDOF 4
