REMARK  Name = ZINC03975668
REMARK                            x       y       z     vdW  Elec       q    Type
REMARK                         _______ _______ _______ _____ _____    ______ ____
ROOT
ATOM      1  N   LIG    1        6.236  -4.723   0.158  0.00  0.00    +0.384 N 
ATOM      2  H   LIG    1        6.692  -4.329   0.989  0.00  0.00    -0.085 HD
ATOM      3  H   LIG    1        6.766  -4.461  -0.680  0.00  0.00    -0.085 HD
ENDROOT
BRANCH   1   5
ATOM      4  C   LIG    1        5.417  -6.594   1.524  0.00  0.00    -0.010 C 
ATOM      5  C   LIG    1        6.202  -6.194   0.273  0.00  0.00    -0.070 C 
ATOM      6  C   LIG    1        5.528  -6.791  -0.965  0.00  0.00    -0.010 C 
BRANCH   5   7
ATOM      7  C   LIG    1        7.634  -6.721   0.378  0.00  0.00    +0.022 C 
BRANCH   7   8
ATOM      8  C   LIG    1        7.609  -8.224   0.496  0.00  0.00    -0.048 A 
ATOM      9  C   LIG    1        7.549  -8.813   1.757  0.00  0.00    +0.004 A 
ATOM     10  C   LIG    1        7.519 -10.166   1.898  0.00  0.00    +0.009 A 
ATOM     11  C   LIG    1        7.561 -10.985   0.757  0.00  0.00    -0.018 A 
ATOM     12  C   LIG    1        7.538 -12.386   0.863  0.00  0.00    +0.008 A 
ATOM     13  C   LIG    1        7.580 -13.147  -0.265  0.00  0.00    +0.001 A 
ATOM     14  C   LIG    1        7.645 -12.558  -1.526  0.00  0.00    +0.001 A 
ATOM     15  C   LIG    1        7.669 -11.205  -1.667  0.00  0.00    +0.008 A 
ATOM     16  C   LIG    1        7.627 -10.386  -0.526  0.00  0.00    -0.018 A 
ATOM     17  C   LIG    1        7.650  -8.985  -0.632  0.00  0.00    +0.012 A 
ENDBRANCH   7   8
ENDBRANCH   5   7
ENDBRANCH   1   5
BRANCH   1  18
ATOM     18  C   LIG    1        4.866  -4.186   0.055  0.00  0.00    -0.047 C 
BRANCH  18  19
ATOM     19  C   LIG    1        4.932  -2.662  -0.062  0.00  0.00    +0.135 C 
BRANCH  19  20
ATOM     20  O   LIG    1        5.576  -2.306  -1.288  0.00  0.00    -0.390 OA
ATOM     21  H   LIG    1        5.125  -2.634  -2.078  0.00  0.00    +0.210 HD
ENDBRANCH  19  20
BRANCH  19  22
ATOM     22  C   LIG    1        3.515  -2.087  -0.045  0.00  0.00    +0.258 C 
BRANCH  22  23
ATOM     23  O   LIG    1        3.580  -0.659  -0.037  0.00  0.00    -0.488 OA
BRANCH  23  24
ATOM     24  C   LIG    1        2.400   0.011  -0.021  0.00  0.00    +0.139 A 
ATOM     25  C   LIG    1        1.203  -0.687  -0.013  0.00  0.00    +0.047 A 
ATOM     26  C   LIG    1        0.002  -0.004   0.002  0.00  0.00    +0.005 A 
ATOM     27  C   LIG    1       -0.017   1.380   0.010  0.00  0.00    +0.021 A 
ATOM     28  C   LIG    1        1.165   2.092   0.002  0.00  0.00    +0.062 A 
ATOM     29 CL   LIG    1        1.135   3.828   0.011  0.00  0.00    -0.082 Cl
ATOM     30  C   LIG    1        2.387   1.413  -0.013  0.00  0.00    +0.112 A 
BRANCH  30  31
ATOM     31  C   LIG    1        3.618   2.144  -0.020  0.00  0.00    +0.104 C 
ATOM     32  N   LIG    1        4.595   2.725  -0.026  0.00  0.00    -0.191 NA
ENDBRANCH  30  31
ENDBRANCH  23  24
ENDBRANCH  22  23
ENDBRANCH  19  22
ENDBRANCH  18  19
ENDBRANCH   1  18
TORSDOF 10
