REMARK  Name = ZINC03916209
REMARK                            x       y       z     vdW  Elec       q    Type
REMARK                         _______ _______ _______ _____ _____    ______ ____
ROOT
ATOM      1  C   LIG    1       -1.647  -3.660  -5.808  0.00  0.00    +0.217 C 
ATOM      2  N   LIG    1       -1.783  -3.077  -4.600  0.00  0.00    -0.303 N 
ATOM      3  H   LIG    1       -2.639  -2.705  -4.335  0.00  0.00    +0.149 HD
ATOM      4  O   LIG    1       -0.577  -4.124  -6.140  0.00  0.00    -0.275 OA
ENDROOT
BRANCH   1   5
ATOM      5  C   LIG    1       -2.825  -3.734  -6.746  0.00  0.00    +0.086 C 
BRANCH   5   6
ATOM      6  C   LIG    1       -2.404  -4.438  -8.037  0.00  0.00    +0.013 C 
BRANCH   6   7
ATOM      7  C   LIG    1       -2.071  -5.901  -7.736  0.00  0.00    +0.005 C 
BRANCH   7   8
ATOM      8  C   LIG    1       -1.553  -6.578  -9.006  0.00  0.00    +0.035 C 
BRANCH   8  12
ATOM      9  C   LIG    1       -2.957 -11.373  -8.759  0.00  0.00    +0.044 C 
ATOM     10  C   LIG    1       -1.899 -10.313  -8.591  0.00  0.00    -0.042 A 
ATOM     11  C   LIG    1       -2.195  -8.992  -8.861  0.00  0.00    +0.007 A 
ATOM     12  C   LIG    1       -1.224  -8.019  -8.709  0.00  0.00    -0.047 A 
ATOM     13  C   LIG    1        0.048  -8.363  -8.290  0.00  0.00    +0.004 A 
ATOM     14  C   LIG    1        0.353  -9.680  -8.012  0.00  0.00    +0.009 A 
ATOM     15  C   LIG    1       -0.620 -10.665  -8.164  0.00  0.00    -0.015 A 
BRANCH  15  16
ATOM     16  C   LIG    1       -0.296 -12.083  -7.873  0.00  0.00    -0.018 A 
ATOM     17  C   LIG    1        0.219 -12.442  -6.629  0.00  0.00    +0.008 A 
ATOM     18  C   LIG    1        0.514 -13.763  -6.362  0.00  0.00    +0.001 A 
ATOM     19  C   LIG    1        0.309 -14.730  -7.330  0.00  0.00    +0.000 A 
ATOM     20  C   LIG    1       -0.197 -14.379  -8.568  0.00  0.00    +0.001 A 
ATOM     21  C   LIG    1       -0.501 -13.061  -8.844  0.00  0.00    +0.008 A 
ENDBRANCH  15  16
ENDBRANCH   8  12
ENDBRANCH   7   8
ENDBRANCH   6   7
ENDBRANCH   5   6
BRANCH   5  22
ATOM     22  C   LIG    1       -3.308  -2.319  -7.070  0.00  0.00    +0.133 C 
BRANCH  22  23
ATOM     23  C   LIG    1       -4.569  -2.396  -7.892  0.00  0.00    +0.305 C 
ATOM     24  O   LIG    1       -5.094  -3.465  -8.095  0.00  0.00    -0.251 OA
BRANCH  23  25
ATOM     25  O   LIG    1       -5.109  -1.276  -8.398  0.00  0.00    -0.481 OA
ATOM     26  H   LIG    1       -4.702  -0.447  -8.241  0.00  0.00    +0.295 HD
ENDBRANCH  23  25
ENDBRANCH  22  23
ENDBRANCH   5  22
ENDBRANCH   1   5
BRANCH   2  27
ATOM     27  C   LIG    1       -0.638  -3.005  -3.689  0.00  0.00    +0.164 C 
BRANCH  27  28
ATOM     28  C   LIG    1        0.204  -1.773  -4.025  0.00  0.00    -0.011 C 
ATOM     29  C   LIG    1       -0.630  -0.509  -3.805  0.00  0.00    +0.013 C 
ATOM     30  C   LIG    1        0.648  -1.842  -5.488  0.00  0.00    +0.013 C 
ATOM     31  C   LIG    1        1.437  -1.735  -3.119  0.00  0.00    +0.013 C 
ENDBRANCH  27  28
BRANCH  27  32
ATOM     32  C   LIG    1       -1.133  -2.902  -2.269  0.00  0.00    +0.234 C 
ATOM     33  N   LIG    1       -0.373  -3.365  -1.256  0.00  0.00    -0.305 N 
ATOM     34  H   LIG    1        0.459  -3.825  -1.445  0.00  0.00    +0.149 HD
ATOM     35  O   LIG    1       -2.214  -2.404  -2.037  0.00  0.00    -0.274 OA
BRANCH  33  36
ATOM     36  C   LIG    1       -0.806  -3.174   0.130  0.00  0.00    +0.129 C 
BRANCH  36  37
ATOM     37  C   LIG    1       -0.191  -4.240   1.000  0.00  0.00    -0.025 A 
ATOM     38  C   LIG    1        1.117  -4.635   0.789  0.00  0.00    +0.005 A 
ATOM     39  C   LIG    1        1.683  -5.609   1.589  0.00  0.00    +0.000 A 
ATOM     40  C   LIG    1        0.938  -6.196   2.595  0.00  0.00    +0.000 A 
ATOM     41  C   LIG    1       -0.371  -5.805   2.803  0.00  0.00    +0.000 A 
ATOM     42  C   LIG    1       -0.936  -4.827   2.006  0.00  0.00    +0.005 A 
ENDBRANCH  36  37
BRANCH  36  43
ATOM     43  C   LIG    1       -0.358  -1.796   0.619  0.00  0.00    +0.186 C 
BRANCH  43  44
ATOM     44  O   LIG    1        1.070  -1.745   0.658  0.00  0.00    -0.381 OA
ATOM     45  C   LIG    1        1.595  -0.493   1.103  0.00  0.00    +0.194 C 
ENDBRANCH  43  44
ENDBRANCH  36  43
ENDBRANCH  33  36
ENDBRANCH  27  32
ENDBRANCH   2  27
TORSDOF 16
