REMARK  Name = ZINC04096393
REMARK                            x       y       z     vdW  Elec       q    Type
REMARK                         _______ _______ _______ _____ _____    ______ ____
ROOT
ATOM      1  C   LIG    1        2.098   1.625   1.133  0.00  0.00    +0.191 C 
ATOM      2  C   LIG    1        2.204   0.098   1.170  0.00  0.00    +0.179 C 
ATOM      3  C   LIG    1        0.796  -0.503   1.214  0.00  0.00    +0.192 C 
ATOM      4  C   LIG    1        0.002  -0.004   0.002  0.00  0.00    +0.276 C 
ATOM      5  C   LIG    1       -0.019   1.527   0.010  0.00  0.00    +0.355 C 
ATOM      6  O   LIG    1        1.323   2.020   0.000  0.00  0.00    -0.329 OA
ENDROOT
BRANCH   3   7
ATOM      7  O   LIG    1        0.883  -1.929   1.174  0.00  0.00    -0.385 OA
ATOM      8  H   LIG    1        1.373  -2.313   1.913  0.00  0.00    +0.210 HD
ENDBRANCH   3   7
BRANCH   2   9
ATOM      9  O   LIG    1        2.930  -0.303   2.334  0.00  0.00    -0.386 OA
ATOM     10  H   LIG    1        3.031  -1.260   2.424  0.00  0.00    +0.210 HD
ENDBRANCH   2   9
BRANCH   5  11
ATOM     11  O   LIG    1       -0.721   2.008  -1.166  0.00  0.00    -0.428 OA
BRANCH  11  12
ATOM     12  C   LIG    1       -0.919   3.337  -1.259  0.00  0.00    +0.342 C 
ATOM     13  O   LIG    1       -0.517   4.074  -0.381  0.00  0.00    -0.245 OA
BRANCH  12  14
ATOM     14  C   LIG    1       -1.625   3.898  -2.426  0.00  0.00    +0.066 A 
ATOM     15  C   LIG    1       -2.083   3.052  -3.440  0.00  0.00    +0.064 A 
ATOM     16  C   LIG    1       -2.749   3.579  -4.530  0.00  0.00    +0.163 A 
ATOM     17  C   LIG    1       -2.954   4.954  -4.624  0.00  0.00    +0.201 A 
ATOM     18  C   LIG    1       -2.493   5.799  -3.619  0.00  0.00    +0.163 A 
ATOM     19  C   LIG    1       -1.831   5.277  -2.524  0.00  0.00    +0.064 A 
BRANCH  18  20
ATOM     20  O   LIG    1       -2.694   7.141  -3.715  0.00  0.00    -0.503 OA
ATOM     21  H   LIG    1       -1.982   7.614  -4.167  0.00  0.00    +0.292 HD
ENDBRANCH  18  20
BRANCH  17  22
ATOM     22  O   LIG    1       -3.604   5.470  -5.700  0.00  0.00    -0.501 OA
ATOM     23  H   LIG    1       -3.022   5.705  -6.436  0.00  0.00    +0.292 HD
ENDBRANCH  17  22
BRANCH  16  24
ATOM     24  O   LIG    1       -3.199   2.756  -5.515  0.00  0.00    -0.503 OA
ATOM     25  H   LIG    1       -2.559   2.604  -6.223  0.00  0.00    +0.292 HD
ENDBRANCH  16  24
ENDBRANCH  12  14
ENDBRANCH  11  12
ENDBRANCH   5  11
BRANCH   4  26
ATOM     26  O   LIG    1       -1.358  -0.508   0.072  0.00  0.00    -0.449 OA
BRANCH  26  27
ATOM     27  C   LIG    1       -1.994  -0.715  -1.098  0.00  0.00    +0.340 C 
ATOM     28  O   LIG    1       -1.428  -0.480  -2.147  0.00  0.00    -0.245 OA
BRANCH  27  29
ATOM     29  C   LIG    1       -3.378  -1.226  -1.104  0.00  0.00    +0.066 A 
ATOM     30  C   LIG    1       -4.028  -1.502   0.102  0.00  0.00    +0.064 A 
ATOM     31  C   LIG    1       -5.326  -1.975   0.093  0.00  0.00    +0.163 A 
ATOM     32  C   LIG    1       -5.983  -2.188  -1.117  0.00  0.00    +0.201 A 
ATOM     33  C   LIG    1       -5.335  -1.919  -2.320  0.00  0.00    +0.163 A 
ATOM     34  C   LIG    1       -4.039  -1.441  -2.317  0.00  0.00    +0.064 A 
BRANCH  33  35
ATOM     35  O   LIG    1       -5.979  -2.129  -3.499  0.00  0.00    -0.503 OA
ATOM     36  H   LIG    1       -5.860  -3.018  -3.860  0.00  0.00    +0.292 HD
ENDBRANCH  33  35
BRANCH  32  37
ATOM     37  O   LIG    1       -7.258  -2.659  -1.123  0.00  0.00    -0.501 OA
ATOM     38  H   LIG    1       -7.320  -3.623  -1.144  0.00  0.00    +0.292 HD
ENDBRANCH  32  37
BRANCH  31  39
ATOM     39  O   LIG    1       -5.961  -2.239   1.266  0.00  0.00    -0.503 OA
ATOM     40  H   LIG    1       -5.838  -3.144   1.585  0.00  0.00    +0.292 HD
ENDBRANCH  31  39
ENDBRANCH  27  29
ENDBRANCH  26  27
ENDBRANCH   4  26
BRANCH   1  41
ATOM     41  C   LIG    1        3.499   2.231   1.029  0.00  0.00    +0.266 C 
BRANCH  41  42
ATOM     42  O   LIG    1        3.408   3.678   1.114  0.00  0.00    -0.458 OA
BRANCH  42  43
ATOM     43  C   LIG    1        4.562   4.369   1.038  0.00  0.00    +0.340 C 
ATOM     44  O   LIG    1        5.616   3.779   0.905  0.00  0.00    -0.245 OA
BRANCH  43  46
ATOM     45  C   LIG    1        5.743   6.559   1.038  0.00  0.00    +0.064 A 
ATOM     46  C   LIG    1        4.546   5.841   1.116  0.00  0.00    +0.066 A 
ATOM     47  C   LIG    1        3.334   6.522   1.263  0.00  0.00    +0.064 A 
ATOM     48  C   LIG    1        3.323   7.902   1.342  0.00  0.00    +0.163 A 
ATOM     49  C   LIG    1        4.517   8.614   1.264  0.00  0.00    +0.201 A 
ATOM     50  C   LIG    1        5.725   7.939   1.112  0.00  0.00    +0.163 A 
BRANCH  50  51
ATOM     51  O   LIG    1        6.889   8.639   1.035  0.00  0.00    -0.503 OA
ATOM     52  H   LIG    1        7.140   8.887   0.135  0.00  0.00    +0.292 HD
ENDBRANCH  50  51
BRANCH  49  53
ATOM     53  O   LIG    1        4.502   9.971   1.336  0.00  0.00    -0.501 OA
ATOM     54  H   LIG    1        4.413  10.410   0.479  0.00  0.00    +0.292 HD
ENDBRANCH  49  53
BRANCH  48  55
ATOM     55  O   LIG    1        2.145   8.564   1.490  0.00  0.00    -0.503 OA
ATOM     56  H   LIG    1        1.719   8.801   0.654  0.00  0.00    +0.292 HD
ENDBRANCH  48  55
ENDBRANCH  43  46
ENDBRANCH  42  43
ENDBRANCH  41  42
ENDBRANCH   1  41
TORSDOF 21
