REMARK  Name = ZINC03874496
REMARK                            x       y       z     vdW  Elec       q    Type
REMARK                         _______ _______ _______ _____ _____    ______ ____
ROOT
ATOM      1  N   LIG    1        3.583   2.125  -0.021  0.00  0.00    -0.280 N 
ATOM      2  H   LIG    1        4.428   1.654   0.049  0.00  0.00    +0.155 HD
ATOM      3  C   LIG    1        3.567   3.470  -0.116  0.00  0.00    +0.252 C 
ATOM      4  O   LIG    1        2.509   4.068  -0.103  0.00  0.00    -0.270 OA
ENDROOT
BRANCH   1   7
ATOM      5  C   LIG    1        0.065   1.242  -0.621  0.00  0.00    +0.034 A 
ATOM      6  C   LIG    1        1.250   1.952  -0.619  0.00  0.00    +0.027 A 
ATOM      7  C   LIG    1        2.381   1.409  -0.024  0.00  0.00    +0.052 A 
ATOM      8  C   LIG    1        2.317   0.153   0.567  0.00  0.00    +0.064 A 
ATOM      9 CL   LIG    1        3.729  -0.530   1.312  0.00  0.00    -0.082 Cl
ATOM     10  C   LIG    1        1.128  -0.551   0.562  0.00  0.00    +0.054 A 
ATOM     11  C   LIG    1        0.004  -0.007  -0.032  0.00  0.00    +0.123 A 
BRANCH  11  12
ATOM     12  N   LIG    1       -1.268  -0.763  -0.035  0.00  0.00    +0.006 N 
ATOM     13  O   LIG    1       -2.253  -0.289  -0.553  0.00  0.00    -0.130 OA
BRANCH  12  14
ATOM     14  O   LIG    1       -1.324  -1.856   0.480  0.00  0.00    -0.396 OA
ATOM     15  H   LIG    1       -0.561  -2.224   0.881  0.00  0.00    +0.329 HD
ENDBRANCH  12  14
ENDBRANCH  11  12
ENDBRANCH   1   7
BRANCH   3  16
ATOM     16  C   LIG    1        4.834   4.216  -0.236  0.00  0.00    +0.080 A 
ATOM     17  C   LIG    1        6.053   3.532  -0.257  0.00  0.00    +0.036 A 
ATOM     18  C   LIG    1        7.234   4.236  -0.369  0.00  0.00    +0.042 A 
ATOM     19 CL   LIG    1        8.747   3.386  -0.395  0.00  0.00    -0.084 Cl
ATOM     20  C   LIG    1        7.217   5.619  -0.461  0.00  0.00    +0.023 A 
ATOM     21  C   LIG    1        6.019   6.306  -0.441  0.00  0.00    +0.047 A 
ATOM     22  C   LIG    1        4.822   5.614  -0.335  0.00  0.00    +0.129 A 
BRANCH  22  23
ATOM     23  O   LIG    1        3.645   6.287  -0.321  0.00  0.00    -0.506 OA
ATOM     24  H   LIG    1        3.350   6.545   0.564  0.00  0.00    +0.292 HD
ENDBRANCH  22  23
ENDBRANCH   3  16
TORSDOF 5
