REMARK  Name = ZINC03953867
REMARK                            x       y       z     vdW  Elec       q    Type
REMARK                         _______ _______ _______ _____ _____    ______ ____
ROOT
ATOM      1  C   LIG    1       -1.815  -0.407   0.216  0.00  0.00    -0.066 C 
ATOM      2  C   LIG    1       -2.272  -1.515  -0.373  0.00  0.00    -0.019 C 
ATOM      3  C   LIG    1       -3.613  -1.977   0.257  0.00  0.00    +0.006 C 
ATOM      4  C   LIG    1       -4.037  -3.265  -0.403  0.00  0.00    +0.012 C 
ATOM      5  C   LIG    1       -5.020  -4.108   0.398  0.00  0.00    +0.006 C 
ATOM      6  C   LIG    1       -5.226  -3.640   1.827  0.00  0.00    +0.012 C 
ATOM      7  C   LIG    1       -3.930  -3.233   2.495  0.00  0.00    -0.025 C 
ATOM      8  C   LIG    1       -2.963  -4.431   2.600  0.00  0.00    +0.012 C 
ATOM      9  C   LIG    1       -4.204  -2.724   3.914  0.00  0.00    +0.007 C 
ATOM     10  C   LIG    1       -4.921  -3.805   4.723  0.00  0.00    +0.002 C 
ATOM     11  C   LIG    1       -6.258  -4.131   4.072  0.00  0.00    +0.018 C 
ATOM     12  C   LIG    1       -6.089  -4.605   2.628  0.00  0.00    +0.068 C 
ATOM     13  C   LIG    1       -5.594  -6.046   2.605  0.00  0.00    +0.023 C 
ATOM     14  C   LIG    1       -4.537  -0.816  -0.069  0.00  0.00    +0.122 C 
ATOM     15  C   LIG    1       -4.056   0.485   0.574  0.00  0.00    +0.119 C 
ATOM     16  C   LIG    1       -3.199  -2.176   1.697  0.00  0.00    +0.007 C 
ATOM     17  C   LIG    1       -2.974  -0.838   2.384  0.00  0.00    +0.013 C 
ATOM     18  C   LIG    1       -2.723   0.204   1.280  0.00  0.00    +0.030 C 
ENDROOT
BRANCH   1  20
ATOM     19  C   LIG    1       -0.769   1.642  -0.719  0.00  0.00    +0.012 C 
ATOM     20  C   LIG    1       -0.504   0.236  -0.178  0.00  0.00    +0.009 C 
ATOM     21  C   LIG    1        0.409   0.324   1.046  0.00  0.00    +0.012 C 
ENDBRANCH   1  20
BRANCH  12  22
ATOM     22  C   LIG    1       -7.484  -4.604   2.009  0.00  0.00    +0.311 C 
ATOM     23  O   LIG    1       -8.176  -5.606   2.065  0.00  0.00    -0.250 OA
BRANCH  22  24
ATOM     24  O   LIG    1       -7.906  -3.601   1.460  0.00  0.00    -0.480 OA
ATOM     25  H   LIG    1       -7.374  -2.830   1.417  0.00  0.00    +0.295 HD
ENDBRANCH  22  24
ENDBRANCH  12  22
BRANCH  14  26
ATOM     26  C   LIG    1       -5.994  -1.030   0.169  0.00  0.00    +0.309 C 
ATOM     27  O   LIG    1       -6.443  -0.960   1.300  0.00  0.00    -0.251 OA
BRANCH  26  28
ATOM     28  O   LIG    1       -6.735  -1.276  -0.767  0.00  0.00    -0.480 OA
ATOM     29  H   LIG    1       -6.389  -1.329  -1.637  0.00  0.00    +0.295 HD
ENDBRANCH  26  28
ENDBRANCH  14  26
BRANCH  15  30
ATOM     30  C   LIG    1       -5.082   1.030   1.522  0.00  0.00    +0.309 C 
ATOM     31  O   LIG    1       -4.871   1.020   2.711  0.00  0.00    -0.251 OA
BRANCH  30  32
ATOM     32  O   LIG    1       -6.234   1.530   1.049  0.00  0.00    -0.480 OA
ATOM     33  H   LIG    1       -6.832   1.858   1.735  0.00  0.00    +0.295 HD
ENDBRANCH  30  32
ENDBRANCH  15  30
TORSDOF 7
