REMARK  Name = ZINC03876054
REMARK                            x       y       z     vdW  Elec       q    Type
REMARK                         _______ _______ _______ _____ _____    ______ ____
ROOT
ATOM      1  C   LIG    1        3.580   5.926  -0.838  0.00  0.00    +0.066 C 
ATOM      2  C   LIG    1        2.285   5.122  -0.988  0.00  0.00    +0.024 C 
ATOM      3  C   LIG    1        2.376   3.861  -0.127  0.00  0.00    -0.035 C 
ATOM      4  N   LIG    1        3.517   3.049  -0.583  0.00  0.00    +0.385 N 
ATOM      5  H   LIG    1        3.409   2.856  -1.586  0.00  0.00    -0.081 HD
ATOM      6  C   LIG    1        4.784   3.787  -0.372  0.00  0.00    -0.072 C 
ATOM      7  C   LIG    1        3.543   1.769   0.153  0.00  0.00    -0.073 C 
ATOM      8  C   LIG    1        2.391   0.908  -0.367  0.00  0.00    +0.017 C 
ATOM      9  C   LIG    1        1.105   1.695  -0.343  0.00  0.00    -0.044 A 
ATOM     10  C   LIG    1       -0.093   1.003  -0.433  0.00  0.00    +0.053 A 
ATOM     11  C   LIG    1       -1.297   1.685  -0.434  0.00  0.00    +0.162 A 
ATOM     12  C   LIG    1       -1.303   3.073  -0.331  0.00  0.00    +0.162 A 
ATOM     13  C   LIG    1       -0.105   3.759  -0.238  0.00  0.00    +0.051 A 
ATOM     14  C   LIG    1        1.101   3.071  -0.242  0.00  0.00    -0.054 A 
ATOM     15  C   LIG    1        4.769   5.049  -1.238  0.00  0.00    +0.004 C 
ENDROOT
BRANCH   1  17
ATOM     16  C   LIG    1        2.494   7.142   1.055  0.00  0.00    +0.007 C 
ATOM     17  C   LIG    1        3.740   6.370   0.618  0.00  0.00    +0.031 C 
ENDBRANCH   1  17
BRANCH   1  18
ATOM     18  O   LIG    1        3.529   7.076  -1.685  0.00  0.00    -0.388 OA
ATOM     19  H   LIG    1        2.798   7.678  -1.488  0.00  0.00    +0.210 HD
ENDBRANCH   1  18
BRANCH  11  20
ATOM     20  O   LIG    1       -2.469   1.002  -0.529  0.00  0.00    -0.491 OA
ATOM     21  C   LIG    1       -2.385  -0.421  -0.625  0.00  0.00    +0.277 C 
ENDBRANCH  11  20
BRANCH  12  22
ATOM     22  O   LIG    1       -2.480   3.753  -0.328  0.00  0.00    -0.491 OA
ATOM     23  C   LIG    1       -2.407   5.177  -0.226  0.00  0.00    +0.277 C 
ENDBRANCH  12  22
BRANCH  15  24
ATOM     24  C   LIG    1        6.070   5.826  -1.030  0.00  0.00    +0.007 C 
BRANCH  24  25
ATOM     25  C   LIG    1        7.246   5.005  -1.565  0.00  0.00    -0.017 C 
ATOM     26  C   LIG    1        8.558   5.716  -1.229  0.00  0.00    +0.007 C 
ATOM     27  C   LIG    1        7.118   4.860  -3.082  0.00  0.00    +0.007 C 
ENDBRANCH  24  25
ENDBRANCH  15  24
TORSDOF 6
