REMARK  Name = ZINC04031201
REMARK                            x       y       z     vdW  Elec       q    Type
REMARK                         _______ _______ _______ _____ _____    ______ ____
ROOT
ATOM      1  C   LIG    1        2.702   4.670  -1.161  0.00  0.00    +0.012 C 
ATOM      2  C   LIG    1        2.655   3.647   0.007  0.00  0.00    -0.016 C 
ATOM      3  C   LIG    1        3.747   2.654  -0.288  0.00  0.00    +0.008 C 
ATOM      4  C   LIG    1        4.273   1.916   0.939  0.00  0.00    +0.005 C 
ATOM      5  C   LIG    1        4.744   2.962   1.953  0.00  0.00    +0.002 C 
ATOM      6  C   LIG    1        3.512   3.723   2.437  0.00  0.00    -0.003 C 
ATOM      7  C   LIG    1        2.539   2.772   3.129  0.00  0.00    +0.008 C 
ATOM      8  C   LIG    1        3.210   2.155   4.361  0.00  0.00    +0.032 C 
ATOM      9  C   LIG    1        4.509   1.498   3.935  0.00  0.00    -0.060 C 
ATOM     10  C   LIG    1        4.726   0.241   4.321  0.00  0.00    +0.046 C 
ATOM     11  C   LIG    1        5.985  -0.425   3.980  0.00  0.00    +0.156 C 
ATOM     12  C   LIG    1        7.153   0.465   3.607  0.00  0.00    +0.080 C 
ATOM     13  C   LIG    1        6.660   1.496   2.595  0.00  0.00    +0.019 C 
ATOM     14  O   LIG    1        6.088  -1.635   3.993  0.00  0.00    -0.293 OA
ATOM     15  C   LIG    1        5.478   2.294   3.115  0.00  0.00    -0.007 C 
ATOM     16  C   LIG    1        6.051   3.401   4.011  0.00  0.00    +0.016 C 
ATOM     17  C   LIG    1        1.235   3.088   0.007  0.00  0.00    +0.104 C 
ATOM     18  C   LIG    1        0.534   3.651   1.259  0.00  0.00    +0.015 C 
ATOM     19  C   LIG    1        1.401   4.837   1.725  0.00  0.00    +0.005 C 
ATOM     20  C   LIG    1        2.843   4.466   1.287  0.00  0.00    -0.001 C 
ENDROOT
BRANCH  17  21
ATOM     21  C   LIG    1        1.177   1.588  -0.001  0.00  0.00    +0.308 C 
ATOM     22  O   LIG    1        2.199   0.944  -0.014  0.00  0.00    -0.251 OA
BRANCH  21  23
ATOM     23  O   LIG    1       -0.011   0.963   0.007  0.00  0.00    -0.480 OA
ATOM     24  H   LIG    1       -0.804   1.462   0.018  0.00  0.00    +0.295 HD
ENDBRANCH  21  23
ENDBRANCH  17  21
TORSDOF 2
