REMARK  Name = ZINC03995996
REMARK                            x       y       z     vdW  Elec       q    Type
REMARK                         _______ _______ _______ _____ _____    ______ ____
ROOT
ATOM      1  C   LIG    1       -0.016   1.312   0.009  0.00  0.00    +0.225 A 
ATOM      2  N   LIG    1        1.089   2.036   0.003  0.00  0.00    -0.219 NA
ATOM      3  C   LIG    1        2.288   1.462  -0.012  0.00  0.00    +0.150 A 
ATOM      4  C   LIG    1        2.358   0.059  -0.020  0.00  0.00    +0.147 A 
ATOM      5  C   LIG    1        1.155  -0.666  -0.013  0.00  0.00    +0.167 A 
ATOM      6  N   LIG    1        1.511  -1.991  -0.023  0.00  0.00    -0.286 N 
ATOM      7  C   LIG    1        2.873  -2.048  -0.036  0.00  0.00    +0.203 A 
ATOM      8  N   LIG    1        3.368  -0.844  -0.034  0.00  0.00    -0.231 NA
ATOM      9  N   LIG    1        0.002  -0.004   0.002  0.00  0.00    -0.216 NA
ENDROOT
BRANCH   6  10
ATOM     10  C1* LIG    1        0.596  -3.135  -0.019  0.00  0.00    +0.253 C 
ATOM     11  C2* LIG    1        0.177  -3.493  -1.463  0.00  0.00    +0.195 C 
ATOM     12  C3* LIG    1        0.106  -5.036  -1.461  0.00  0.00    +0.178 C 
ATOM     13  C4* LIG    1        0.489  -5.428  -0.017  0.00  0.00    +0.177 C 
ATOM     14  O4* LIG    1        1.266  -4.314   0.476  0.00  0.00    -0.346 OA
BRANCH  11  15
ATOM     15  O2* LIG    1       -1.100  -2.930  -1.768  0.00  0.00    -0.385 OA
ATOM     16  H2* LIG    1       -1.411  -3.124  -2.663  0.00  0.00    +0.210 HD
ENDBRANCH  11  15
BRANCH  12  17
ATOM     17  O3* LIG    1       -1.219  -5.476  -1.767  0.00  0.00    -0.386 OA
ATOM     18  H3* LIG    1       -1.321  -6.438  -1.779  0.00  0.00    +0.210 HD
ENDBRANCH  12  17
BRANCH  13  19
ATOM     19  C5* LIG    1        1.327  -6.708  -0.016  0.00  0.00    +0.190 C 
BRANCH  19  20
ATOM     20  O5* LIG    1        1.572  -7.117   1.331  0.00  0.00    -0.392 OA
ATOM     21  H5* LIG    1        2.100  -7.923   1.407  0.00  0.00    +0.210 HD
ENDBRANCH  19  20
ENDBRANCH  13  19
ENDBRANCH   6  10
BRANCH   3  22
ATOM     22  N   LIG    1        3.439   2.229  -0.019  0.00  0.00    -0.324 N 
ATOM     23  H   LIG    1        4.309   1.799  -0.030  0.00  0.00    +0.148 HD
BRANCH  22  24
ATOM     24  C   LIG    1        3.346   3.692  -0.011  0.00  0.00    +0.072 C 
ATOM     25  C   LIG    1        3.243   4.223  -1.456  0.00  0.00    +0.022 C 
ATOM     26  C   LIG    1        4.069   5.533  -1.438  0.00  0.00    +0.002 C 
ATOM     27  C   LIG    1        5.256   5.177  -0.509  0.00  0.00    +0.002 C 
ATOM     28  C   LIG    1        4.626   4.298   0.591  0.00  0.00    +0.022 C 
ENDBRANCH  22  24
ENDBRANCH   3  22
TORSDOF 7
