REMARK  Name = ZINC03981168
REMARK                            x       y       z     vdW  Elec       q    Type
REMARK                         _______ _______ _______ _____ _____    ______ ____
ROOT
ATOM      1  C   LIG    1       -2.379   4.835  -1.087  0.00  0.00    +0.029 C 
ENDROOT
BRANCH   1  15
ATOM      2  C   LIG    1        0.428   1.113  -1.328  0.00  0.00    +0.000 A 
ATOM      3  C   LIG    1       -0.636   1.543  -2.100  0.00  0.00    +0.000 A 
ATOM      4  C   LIG    1       -1.535   2.414  -1.537  0.00  0.00    +0.006 A 
ATOM      5  C   LIG    1       -1.385   2.873  -0.209  0.00  0.00    -0.019 A 
ATOM      6  C   LIG    1       -0.418   2.424   0.556  0.00  0.00    -0.032 A 
ATOM      7  C   LIG    1       -0.018   2.600   2.009  0.00  0.00    +0.109 C 
ATOM      8  S   LIG    1        0.028   4.313   2.534  0.00  0.00    -0.120 S 
ATOM      9  C   LIG    1       -1.598   4.973   2.285  0.00  0.00    +0.013 A 
ATOM     10  C   LIG    1       -1.963   5.833   3.359  0.00  0.00    +0.015 A 
ATOM     11  C   LIG    1       -3.144   6.522   3.373  0.00  0.00    +0.001 A 
ATOM     12  C   LIG    1       -4.018   6.373   2.310  0.00  0.00    +0.000 A 
ATOM     13  C   LIG    1       -3.676   5.527   1.288  0.00  0.00    +0.006 A 
ATOM     14  C   LIG    1       -2.460   4.803   1.287  0.00  0.00    -0.010 A 
ATOM     15  C   LIG    1       -2.368   3.909   0.131  0.00  0.00    +0.108 C 
ATOM     16  C   LIG    1        0.528   1.538  -0.033  0.00  0.00    +0.005 A 
BRANCH  15  17
ATOM     17  C   LIG    1       -3.681   3.247   0.055  0.00  0.00    +0.079 C 
ATOM     18  N   LIG    1       -4.694   2.737  -0.003  0.00  0.00    -0.195 NA
ENDBRANCH  15  17
ENDBRANCH   1  15
BRANCH   1  19
ATOM     19  C   LIG    1       -1.110   5.691  -1.089  0.00  0.00    -0.016 C 
BRANCH  19  20
ATOM     20  C   LIG    1       -1.130   6.631  -2.296  0.00  0.00    -0.079 C 
BRANCH  20  21
ATOM     21  N   LIG    1        0.111   7.432  -2.295  0.00  0.00    +0.380 N 
ATOM     22  H   LIG    1        0.916   6.800  -2.216  0.00  0.00    -0.082 HD
ATOM     23  C   LIG    1        0.221   8.193  -3.558  0.00  0.00    -0.076 C 
ATOM     24  C   LIG    1        1.567   8.921  -3.583  0.00  0.00    +0.021 C 
ATOM     25  C   LIG    1        1.646   9.881  -2.393  0.00  0.00    +0.088 C 
ATOM     26  C   LIG    1        1.456   9.090  -1.096  0.00  0.00    +0.021 C 
ATOM     27  C   LIG    1        0.113   8.358  -1.142  0.00  0.00    -0.076 C 
BRANCH  25  28
ATOM     28  C   LIG    1        2.993  10.557  -2.380  0.00  0.00    -0.016 A 
ATOM     29  C   LIG    1        4.101   9.899  -2.879  0.00  0.00    +0.009 A 
ATOM     30  C   LIG    1        5.335  10.520  -2.872  0.00  0.00    +0.039 A 
ATOM     31  C   LIG    1        5.464  11.798  -2.355  0.00  0.00    +0.123 A 
ATOM     32  F   LIG    1        6.671  12.404  -2.343  0.00  0.00    -0.205 F 
ATOM     33  C   LIG    1        4.354  12.454  -1.850  0.00  0.00    +0.039 A 
ATOM     34  C   LIG    1        3.119  11.833  -1.863  0.00  0.00    +0.009 A 
ENDBRANCH  25  28
BRANCH  25  35
ATOM     35  O   LIG    1        0.617  10.867  -2.506  0.00  0.00    -0.384 OA
ATOM     36  H   LIG    1        0.608  11.510  -1.784  0.00  0.00    +0.211 HD
ENDBRANCH  25  35
ENDBRANCH  20  21
ENDBRANCH  19  20
ENDBRANCH   1  19
TORSDOF 7
