REMARK  Name = ZINC04073059
REMARK                            x       y       z     vdW  Elec       q    Type
REMARK                         _______ _______ _______ _____ _____    ______ ____
ROOT
ATOM      1  C   LIG    1       -0.017   1.378   0.010  0.00  0.00    +0.060 A 
ATOM      2  C   LIG    1        1.169   2.087   0.002  0.00  0.00    +0.129 A 
ATOM      3  C   LIG    1        2.382   1.411  -0.013  0.00  0.00    +0.071 A 
ATOM      4  C   LIG    1        2.399   0.021  -0.021  0.00  0.00    +0.084 A 
ATOM      5 CL   LIG    1        3.912  -0.830  -0.040  0.00  0.00    -0.080 Cl
ATOM      6  C   LIG    1        1.208  -0.683  -0.013  0.00  0.00    +0.087 A 
ATOM      7 CL   LIG    1        1.227  -2.419  -0.023  0.00  0.00    -0.080 Cl
ATOM      8  C   LIG    1        0.002  -0.004   0.002  0.00  0.00    +0.127 A 
ENDROOT
BRANCH   2   9
ATOM      9  S   LIG    1        1.142   3.849   0.011  0.00  0.00    +0.058 S 
ATOM     10  O   LIG    1       -0.225   4.234   0.053  0.00  0.00    -0.153 OA
ATOM     11  O   LIG    1        2.022   4.274  -1.020  0.00  0.00    -0.153 OA
BRANCH   9  12
ATOM     12  N   LIG    1        1.817   4.341   1.441  0.00  0.00    -0.203 NA
ATOM     13  H   LIG    1        1.895   5.288   1.640  0.00  0.00    +0.144 HD
ATOM     14  H   LIG    1        2.134   3.684   2.080  0.00  0.00    +0.144 HD
ENDBRANCH   9  12
ENDBRANCH   2   9
BRANCH   3  15
ATOM     15  N   LIG    1        3.582   2.126  -0.021  0.00  0.00    -0.355 N 
ATOM     16  H   LIG    1        4.429   1.653  -0.032  0.00  0.00    +0.142 HD
ATOM     17  H   LIG    1        3.569   3.096  -0.016  0.00  0.00    +0.142 HD
ENDBRANCH   3  15
BRANCH   8  18
ATOM     18  S   LIG    1       -1.513  -0.904   0.012  0.00  0.00    +0.057 S 
ATOM     19  O   LIG    1       -2.557   0.059   0.001  0.00  0.00    -0.153 OA
ATOM     20  O   LIG    1       -1.394  -1.887   1.031  0.00  0.00    -0.153 OA
BRANCH  18  21
ATOM     21  N   LIG    1       -1.607  -1.721  -1.425  0.00  0.00    -0.203 NA
ATOM     22  H   LIG    1       -2.376  -2.281  -1.615  0.00  0.00    +0.144 HD
ATOM     23  H   LIG    1       -0.893  -1.640  -2.077  0.00  0.00    +0.144 HD
ENDBRANCH  18  21
ENDBRANCH   8  18
TORSDOF 5
