REMARK  Name = ZINC03938675
REMARK                            x       y       z     vdW  Elec       q    Type
REMARK                         _______ _______ _______ _____ _____    ______ ____
ROOT
ATOM      1  C   LIG    1        1.385  -2.521  -2.400  0.00  0.00    +0.165 C 
ATOM      2  C   LIG    1        1.514  -4.059  -2.481  0.00  0.00    +0.090 C 
ATOM      3  C   LIG    1        1.333  -4.334  -3.962  0.00  0.00    +0.048 C 
ATOM      4  N   LIG    1        0.816  -3.230  -4.520  0.00  0.00    -0.269 N 
ATOM      5  H   LIG    1        0.619  -3.139  -5.465  0.00  0.00    +0.194 HD
ATOM      6  C   LIG    1        1.649  -5.525  -4.627  0.00  0.00    -0.004 C 
ATOM      7  C   LIG    1        2.185  -6.616  -3.907  0.00  0.00    +0.013 C 
ATOM      8  C   LIG    1        2.489  -7.769  -4.553  0.00  0.00    +0.051 C 
ATOM      9  C   LIG    1        2.271  -7.880  -5.939  0.00  0.00    +0.179 C 
ATOM     10  C   LIG    1        1.736  -6.795  -6.659  0.00  0.00    +0.051 C 
ATOM     11  O   LIG    1        2.547  -8.922  -6.520  0.00  0.00    -0.288 OA
ATOM     12  C   LIG    1        1.425  -5.641  -6.016  0.00  0.00    +0.013 C 
ATOM     13  O   LIG    1        0.594  -2.209  -3.562  0.00  0.00    -0.270 OA
ENDROOT
BRANCH   1  14
ATOM     14  C   LIG    1        0.657  -2.104  -1.120  0.00  0.00    +0.155 C 
BRANCH  14  15
ATOM     15  C   LIG    1        0.598  -0.600  -1.043  0.00  0.00    +0.309 C 
ATOM     16  O   LIG    1        1.088   0.070  -1.921  0.00  0.00    -0.251 OA
BRANCH  15  18
ATOM     17  C   LIG    1       -0.017   1.425   0.010  0.00  0.00    +0.280 C 
ATOM     18  O   LIG    1        0.002  -0.004   0.002  0.00  0.00    -0.468 OA
ENDBRANCH  15  18
ENDBRANCH  14  15
ENDBRANCH   1  14
TORSDOF 3
