REMARK  Name = ZINC03876173
REMARK                            x       y       z     vdW  Elec       q    Type
REMARK                         _______ _______ _______ _____ _____    ______ ____
ROOT
ATOM      1  C   LIG    1        0.746  -2.001  -1.354  0.00  0.00    +0.086 A 
ATOM      2  C   LIG    1        0.292  -2.765  -0.314  0.00  0.00    +0.138 A 
ATOM      3  C   LIG    1        0.341  -4.228  -0.459  0.00  0.00    +0.059 A 
ATOM      4  C   LIG    1       -0.106  -5.069   0.562  0.00  0.00    +0.015 A 
ATOM      5  C   LIG    1       -0.047  -6.434   0.395  0.00  0.00    +0.001 A 
ATOM      6  C   LIG    1        0.452  -6.975  -0.781  0.00  0.00    +0.004 A 
ATOM      7  C   LIG    1        0.897  -6.156  -1.798  0.00  0.00    +0.047 A 
ATOM      8  C   LIG    1        0.846  -4.776  -1.649  0.00  0.00    +0.143 A 
ATOM      9  O   LIG    1        1.276  -3.960  -2.635  0.00  0.00    -0.422 OA
ATOM     10  C   LIG    1        1.231  -2.623  -2.514  0.00  0.00    +0.345 A 
ATOM     11  O   LIG    1        1.628  -1.931  -3.436  0.00  0.00    -0.245 OA
ENDROOT
BRANCH   2  12
ATOM     12  O   LIG    1       -0.186  -2.192   0.814  0.00  0.00    -0.506 OA
ATOM     13  H   LIG    1       -0.210  -1.259   0.892  0.00  0.00    +0.292 HD
ENDBRANCH   2  12
BRANCH   1  14
ATOM     14  C   LIG    1        0.718  -0.497  -1.257  0.00  0.00    +0.059 C 
BRANCH  14  15
ATOM     15  C   LIG    1        2.104   0.012  -0.955  0.00  0.00    -0.040 A 
ATOM     16  C   LIG    1        2.764  -0.413   0.182  0.00  0.00    +0.004 A 
ATOM     17  C   LIG    1        4.036   0.054   0.459  0.00  0.00    +0.000 A 
ATOM     18  C   LIG    1        4.647   0.946  -0.403  0.00  0.00    +0.000 A 
ATOM     19  C   LIG    1        3.987   1.370  -1.541  0.00  0.00    +0.000 A 
ATOM     20  C   LIG    1        2.717   0.900  -1.819  0.00  0.00    +0.004 A 
ENDBRANCH  14  15
BRANCH  14  22
ATOM     21  C   LIG    1       -0.411   1.443  -0.161  0.00  0.00    +0.005 C 
ATOM     22  C   LIG    1       -0.235  -0.076  -0.136  0.00  0.00    +0.010 C 
ENDBRANCH  14  22
ENDBRANCH   1  14
TORSDOF 4
