REMARK  Name = ZINC03881875
REMARK                            x       y       z     vdW  Elec       q    Type
REMARK                         _______ _______ _______ _____ _____    ______ ____
ROOT
ATOM      1  C   LIG    1       -6.786   0.245   7.562  0.00  0.00    +0.012 C 
ATOM      2  C   LIG    1       -6.204   1.178   6.504  0.00  0.00    +0.013 C 
ATOM      3  C   LIG    1       -4.970   0.524   5.892  0.00  0.00    +0.011 C 
ATOM      4  C   LIG    1       -4.299   1.458   4.890  0.00  0.00    -0.003 C 
ATOM      5  C   LIG    1       -5.246   1.931   3.809  0.00  0.00    +0.002 C 
ATOM      6  C   LIG    1       -6.666   2.238   4.203  0.00  0.00    -0.007 C 
ATOM      7  C   LIG    1       -6.656   3.713   4.628  0.00  0.00    +0.016 C 
ATOM      8  C   LIG    1       -7.587   2.161   2.996  0.00  0.00    +0.019 C 
ATOM      9  C   LIG    1       -9.044   2.416   3.375  0.00  0.00    +0.080 C 
ATOM     10  C   LIG    1       -9.430   1.410   4.435  0.00  0.00    +0.156 C 
ATOM     11  O   LIG    1      -10.526   0.878   4.428  0.00  0.00    -0.293 OA
ATOM     12  C   LIG    1       -8.449   1.089   5.480  0.00  0.00    +0.046 C 
ATOM     13  C   LIG    1       -5.128   1.069   2.558  0.00  0.00    +0.005 C 
ATOM     14  C   LIG    1       -3.760   1.290   1.886  0.00  0.00    +0.011 C 
ATOM     15  C   LIG    1       -2.690   1.392   2.949  0.00  0.00    +0.018 C 
ATOM     16  C   LIG    1       -2.322   2.852   3.212  0.00  0.00    +0.016 C 
ATOM     17  C   LIG    1       -1.395   0.623   2.634  0.00  0.00    +0.176 C 
ATOM     18  C   LIG    1       -0.765   0.358   4.023  0.00  0.00    +0.057 C 
ATOM     19  C   LIG    1       -1.878   0.619   5.071  0.00  0.00    +0.009 C 
ATOM     20  C   LIG    1       -3.165   0.679   4.233  0.00  0.00    +0.003 C 
ATOM     21  C   LIG    1       -7.182   1.483   5.390  0.00  0.00    -0.057 C 
ENDROOT
BRANCH  17  22
ATOM     22  C   LIG    1       -0.480   1.467   1.792  0.00  0.00    +0.174 C 
ATOM     23  C   LIG    1       -0.579   1.415   0.289  0.00  0.00    +0.090 C 
ATOM     24  O   LIG    1        0.334   2.187   2.319  0.00  0.00    -0.293 OA
ENDBRANCH  17  22
BRANCH  17  25
ATOM     25  O   LIG    1       -1.696  -0.630   1.973  0.00  0.00    -0.450 OA
BRANCH  25  26
ATOM     26  C   LIG    1       -0.658  -1.433   1.687  0.00  0.00    +0.305 C 
ATOM     27  C   LIG    1       -0.890  -2.736   0.968  0.00  0.00    +0.136 C 
ATOM     28  O   LIG    1        0.461  -1.110   2.006  0.00  0.00    -0.251 OA
ENDBRANCH  25  26
ENDBRANCH  17  25
TORSDOF 3
