REMARK  Name = ZINC04016164
REMARK                            x       y       z     vdW  Elec       q    Type
REMARK                         _______ _______ _______ _____ _____    ______ ____
ROOT
ATOM      1  C   LIG    1        3.654   2.208   0.298  0.00  0.00    +0.045 A 
ATOM      2  C   LIG    1        3.635   3.564  -0.044  0.00  0.00    +0.055 A 
ATOM      3  C   LIG    1        2.454   4.204  -0.282  0.00  0.00    +0.140 A 
ATOM      4  C   LIG    1        1.239   3.518  -0.191  0.00  0.00    +0.064 A 
ATOM      5  C   LIG    1        1.231   2.163   0.148  0.00  0.00    +0.057 A 
ATOM      6  C   LIG    1       -0.036   1.420   0.250  0.00  0.00    +0.196 C 
ATOM      7  O   LIG    1       -1.097   2.014   0.282  0.00  0.00    -0.287 OA
ATOM      8  C   LIG    1       -0.003  -0.058   0.306  0.00  0.00    +0.033 A 
ATOM      9  C   LIG    1       -1.165  -0.800   0.118  0.00  0.00    +0.012 A 
ATOM     10  C   LIG    1       -1.115  -2.181   0.172  0.00  0.00    +0.001 A 
ATOM     11  C   LIG    1        0.083  -2.831   0.412  0.00  0.00    +0.001 A 
ATOM     12  C   LIG    1        1.247  -2.109   0.602  0.00  0.00    +0.012 A 
ATOM     13  C   LIG    1        1.215  -0.719   0.551  0.00  0.00    +0.033 A 
ATOM     14  C   LIG    1        2.449   0.071   0.751  0.00  0.00    +0.196 C 
ATOM     15  O   LIG    1        3.449  -0.454   1.203  0.00  0.00    -0.287 OA
ATOM     16  C   LIG    1        2.453   1.499   0.395  0.00  0.00    +0.056 A 
ENDROOT
BRANCH   3  17
ATOM     17  S   LIG    1        2.461   5.913  -0.710  0.00  0.00    +0.111 S 
ATOM     18  O   LIG    1        1.313   6.489  -0.101  0.00  0.00    -0.142 OA
ATOM     19  O   LIG    1        2.695   5.981  -2.110  0.00  0.00    -0.142 OA
BRANCH  17  20
ATOM     20  O   LIG    1        3.672   6.541  -0.036  0.00  0.00    -0.250 OA
ATOM     21  H   LIG    1        4.483   6.176  -0.422  0.00  0.00    +0.245 HD
ENDBRANCH  17  20
ENDBRANCH   3  17
BRANCH   4  22
ATOM     22  N   LIG    1        0.046   4.180  -0.437  0.00  0.00    -0.356 N 
ATOM     23  H   LIG    1        0.037   4.971  -0.999  0.00  0.00    +0.142 HD
ATOM     24  H   LIG    1       -0.780   3.853  -0.047  0.00  0.00    +0.142 HD
ENDBRANCH   4  22
BRANCH   1  25
ATOM     25  N   LIG    1        4.861   1.568   0.539  0.00  0.00    -0.314 N 
ATOM     26  H   LIG    1        5.320   1.701   1.383  0.00  0.00    +0.152 HD
BRANCH  25  30
ATOM     27  C   LIG    1        6.512  -0.922  -2.361  0.00  0.00    +0.000 A 
ATOM     28  C   LIG    1        7.094  -0.840  -1.109  0.00  0.00    +0.002 A 
ATOM     29  C   LIG    1        6.549  -0.015  -0.145  0.00  0.00    +0.023 A 
ATOM     30  C   LIG    1        5.415   0.733  -0.434  0.00  0.00    +0.031 A 
ATOM     31  C   LIG    1        4.830   0.644  -1.691  0.00  0.00    +0.023 A 
ATOM     32  C   LIG    1        5.383  -0.178  -2.652  0.00  0.00    +0.002 A 
ENDBRANCH  25  30
ENDBRANCH   1  25
TORSDOF 5
