REMARK  Name = ZINC03874827
REMARK                            x       y       z     vdW  Elec       q    Type
REMARK                         _______ _______ _______ _____ _____    ______ ____
ROOT
ATOM      1  C   LIG    1       -0.019   1.526   0.010  0.00  0.00    +0.057 C 
ATOM      2  C   LIG    1        0.002  -0.004   0.002  0.00  0.00    +0.241 C 
ATOM      3  C   LIG    1        0.843  -0.524  -1.152  0.00  0.00    +0.344 C 
ATOM      4  N   LIG    1        1.847  -1.206  -0.600  0.00  0.00    -0.005 NA
ATOM      5  C   LIG    1        1.794  -1.211   0.708  0.00  0.00    +0.371 C 
ATOM      6  N   LIG    1        2.664  -1.789   1.607  0.00  0.00    -0.207 N 
ATOM      7  H   LIG    1        3.158  -2.600   1.405  0.00  0.00    +0.251 HD
ATOM      8  C   LIG    1        2.787  -1.120   2.840  0.00  0.00    +0.099 A 
ATOM      9  C   LIG    1        3.983  -1.163   3.541  0.00  0.00    +0.040 A 
ATOM     10  C   LIG    1        4.097  -0.495   4.745  0.00  0.00    +0.005 A 
ATOM     11  C   LIG    1        3.023   0.214   5.250  0.00  0.00    +0.020 A 
ATOM     12  C   LIG    1        1.827   0.256   4.555  0.00  0.00    +0.050 A 
ATOM     13 CL   LIG    1        0.481   1.149   5.193  0.00  0.00    -0.083 Cl
ATOM     14  C   LIG    1        1.705  -0.413   3.353  0.00  0.00    +0.039 A 
ATOM     15  C   LIG    1        0.393  -0.389   2.599  0.00  0.00    +0.228 C 
ATOM     16  O   LIG    1        0.641  -0.353  -2.338  0.00  0.00    -0.250 OA
ATOM     17  N   LIG    1        0.703  -0.517   1.174  0.00  0.00    -0.209 N 
ENDROOT
TORSDOF 0
