REMARK  Name = ZINC03953849
REMARK                            x       y       z     vdW  Elec       q    Type
REMARK                         _______ _______ _______ _____ _____    ______ ____
ROOT
ATOM      1  C   LIG    1       -1.200  -0.637   0.010  0.00  0.00    +0.120 C 
ATOM      2  C   LIG    1       -2.360   0.104   0.019  0.00  0.00    +0.036 C 
ATOM      3  C   LIG    1       -3.603  -0.548   0.027  0.00  0.00    +0.010 C 
ATOM      4  C   LIG    1       -4.809   0.180   0.036  0.00  0.00    +0.006 C 
ATOM      5  C   LIG    1       -5.983  -0.517   0.043  0.00  0.00    +0.015 C 
ATOM      6  C   LIG    1       -5.964  -1.910   0.041  0.00  0.00    +0.081 C 
ATOM      7  N   LIG    1       -4.839  -2.584   0.033  0.00  0.00    -0.312 NA
ATOM      8  H   LIG    1       -4.867  -3.554   0.033  0.00  0.00    +0.122 HD
ATOM      9  C   LIG    1       -3.657  -1.963   0.026  0.00  0.00    +0.074 C 
ATOM     10  C   LIG    1       -2.451  -2.699   0.016  0.00  0.00    +0.073 C 
ATOM     11  C   LIG    1       -1.246  -2.033   0.003  0.00  0.00    +0.051 C 
ENDROOT
BRANCH   1  13
ATOM     12  C   LIG    1       -0.017   1.425   0.010  0.00  0.00    +0.194 C 
ATOM     13  O   LIG    1        0.002  -0.004   0.002  0.00  0.00    -0.380 OA
ENDBRANCH   1  13
BRANCH  10  14
ATOM     14  N   LIG    1       -2.481  -4.092   0.015  0.00  0.00    -0.312 NA
ATOM     15  H   LIG    1       -3.331  -4.559   0.020  0.00  0.00    +0.122 HD
BRANCH  14  16
ATOM     16  C   LIG    1       -1.228  -4.852   0.005  0.00  0.00    +0.079 C 
BRANCH  16  17
ATOM     17  C   LIG    1       -1.540  -6.350   0.006  0.00  0.00    -0.001 C 
BRANCH  17  18
ATOM     18  C   LIG    1       -0.231  -7.143  -0.004  0.00  0.00    -0.071 C 
ATOM     19  C   LIG    1       -0.542  -8.636  -0.131  0.00  0.00    -0.016 C 
ATOM     20  C   LIG    1        0.770  -9.426  -0.141  0.00  0.00    -0.003 C 
ATOM     21  C   LIG    1        1.558  -9.103   1.132  0.00  0.00    -0.019 C 
ATOM     22  C   LIG    1        1.791  -7.593   1.212  0.00  0.00    -0.082 C 
ATOM     23  N   LIG    1        0.499  -6.897   1.245  0.00  0.00    +0.381 N 
ATOM     24  H   LIG    1       -0.045  -7.235   2.024  0.00  0.00    -0.086 HD
ATOM     25  H   LIG    1        0.655  -5.905   1.352  0.00  0.00    -0.086 HD
ENDBRANCH  17  18
ENDBRANCH  16  17
ENDBRANCH  14  16
ENDBRANCH  10  14
TORSDOF 5
