REMARK  Name = ZINC03995590
REMARK                            x       y       z     vdW  Elec       q    Type
REMARK                         _______ _______ _______ _____ _____    ______ ____
ROOT
ATOM      1  C   LIG    1       -4.241   4.053  -3.239  0.00  0.00    +0.007 A 
ATOM      2  C   LIG    1       -3.958   2.934  -4.005  0.00  0.00    +0.049 A 
ATOM      3  C   LIG    1       -3.490   1.738  -3.465  0.00  0.00    +0.159 A 
ATOM      4  C   LIG    1       -3.343   1.684  -2.073  0.00  0.00    +0.167 A 
ATOM      5  C   LIG    1       -3.714   2.799  -1.337  0.00  0.00    +0.014 A 
ATOM      6  C   LIG    1       -3.510   2.482   0.123  0.00  0.00    +0.068 C 
ATOM      7  C   LIG    1       -2.561   1.289   0.042  0.00  0.00    +0.233 C 
ATOM      8  C   LIG    1       -1.128   1.745   0.016  0.00  0.00    +0.062 A 
ATOM      9  C   LIG    1       -0.735   3.040   0.019  0.00  0.00    -0.017 A 
ATOM     10  C   LIG    1       -1.688   4.206   0.033  0.00  0.00    +0.071 C 
ATOM     11  C   LIG    1        0.663   3.059   0.005  0.00  0.00    -0.017 A 
ATOM     12  C   LIG    1        1.084   1.775   0.001  0.00  0.00    +0.062 A 
ATOM     13  C   LIG    1        2.530   1.351  -0.009  0.00  0.00    +0.233 C 
ATOM     14  C   LIG    1        3.443   2.575   0.071  0.00  0.00    +0.068 C 
ATOM     15  C   LIG    1        4.849   2.244  -0.417  0.00  0.00    -0.000 C 
ATOM     16  C   LIG    1        5.785   3.401  -0.050  0.00  0.00    -0.077 C 
ATOM     17  N   LIG    1        5.277   4.644  -0.675  0.00  0.00    +0.384 N 
ATOM     18  H   LIG    1        5.208   4.500  -1.690  0.00  0.00    -0.081 HD
ATOM     19  C   LIG    1        3.934   4.973  -0.149  0.00  0.00    -0.031 C 
ATOM     20  C   LIG    1        3.958   5.245   1.347  0.00  0.00    +0.023 C 
ATOM     21  C   LIG    1        3.696   4.032   2.179  0.00  0.00    -0.041 A 
ATOM     22  C   LIG    1        3.659   4.011   3.562  0.00  0.00    +0.007 A 
ATOM     23  C   LIG    1        3.338   2.843   4.234  0.00  0.00    +0.049 A 
ATOM     24  C   LIG    1        3.023   1.649   3.587  0.00  0.00    +0.159 A 
ATOM     25  C   LIG    1        3.068   1.655   2.189  0.00  0.00    +0.167 A 
ATOM     26  C   LIG    1        3.454   2.828   1.558  0.00  0.00    +0.014 A 
ATOM     27  C   LIG    1        2.944   3.869  -0.555  0.00  0.00    +0.072 C 
ATOM     28  O   LIG    1        2.799   0.699   1.270  0.00  0.00    -0.478 OA
ATOM     29  C   LIG    1        1.571   4.258   0.004  0.00  0.00    +0.071 C 
ATOM     30  N   LIG    1       -0.011   0.966   0.007  0.00  0.00    -0.355 N 
ATOM     31  H   LIG    1        0.002  -0.004   0.002  0.00  0.00    +0.166 HD
ATOM     32  C   LIG    1       -4.835   2.087   0.767  0.00  0.00    -0.000 C 
ATOM     33  C   LIG    1       -5.841   3.228   0.581  0.00  0.00    -0.077 C 
ATOM     34  N   LIG    1       -5.289   4.457   1.195  0.00  0.00    +0.384 N 
ATOM     35  H   LIG    1       -5.083   4.270   2.183  0.00  0.00    -0.081 HD
ATOM     36  C   LIG    1       -4.039   4.855   0.513  0.00  0.00    -0.031 C 
ATOM     37  C   LIG    1       -4.278   5.183  -0.952  0.00  0.00    +0.023 C 
ATOM     38  C   LIG    1       -2.978   3.768   0.740  0.00  0.00    +0.072 C 
ATOM     39  O   LIG    1       -2.875   0.716  -1.257  0.00  0.00    -0.478 OA
ATOM     40  C   LIG    1       -4.085   4.016  -1.865  0.00  0.00    -0.041 A 
ENDROOT
BRANCH   3  41
ATOM     41  O   LIG    1       -3.189   0.672  -4.253  0.00  0.00    -0.503 OA
ATOM     42  H   LIG    1       -2.271   0.655  -4.558  0.00  0.00    +0.292 HD
ENDBRANCH   3  41
BRANCH  24  43
ATOM     43  O   LIG    1        2.688   0.531   4.284  0.00  0.00    -0.503 OA
ATOM     44  H   LIG    1        1.741   0.446   4.459  0.00  0.00    +0.292 HD
ENDBRANCH  24  43
BRANCH  27  45
ATOM     45  O   LIG    1        2.899   3.743  -1.978  0.00  0.00    -0.389 OA
ATOM     46  H   LIG    1        2.588   4.538  -2.433  0.00  0.00    +0.210 HD
ENDBRANCH  27  45
BRANCH  38  47
ATOM     47  O   LIG    1       -2.734   3.580   2.135  0.00  0.00    -0.389 OA
ATOM     48  H   LIG    1       -2.422   4.374   2.591  0.00  0.00    +0.210 HD
ENDBRANCH  38  47
BRANCH  17  49
ATOM     49  C   LIG    1        6.206   5.757  -0.412  0.00  0.00    -0.075 C 
BRANCH  49  50
ATOM     50  C   LIG    1        7.505   5.499  -1.177  0.00  0.00    -0.028 C 
ATOM     51  C   LIG    1        8.784   5.318  -0.357  0.00  0.00    +0.002 C 
ATOM     52  C   LIG    1        8.566   6.602  -1.161  0.00  0.00    +0.002 C 
ENDBRANCH  49  50
ENDBRANCH  17  49
BRANCH  34  53
ATOM     53  C   LIG    1       -6.278   5.549   1.110  0.00  0.00    -0.075 C 
BRANCH  53  54
ATOM     54  C   LIG    1       -7.460   5.212   2.021  0.00  0.00    -0.028 C 
ATOM     55  C   LIG    1       -8.829   5.024   1.362  0.00  0.00    +0.002 C 
ATOM     56  C   LIG    1       -8.545   6.277   2.195  0.00  0.00    +0.002 C 
ENDBRANCH  53  54
ENDBRANCH  34  53
TORSDOF 8
