REMARK  Name = ZINC03978022
REMARK                            x       y       z     vdW  Elec       q    Type
REMARK                         _______ _______ _______ _____ _____    ______ ____
ROOT
ATOM      1  C   LIG    1        0.109  -1.019  -1.325  0.00  0.00    +0.176 C 
ATOM      2  C   LIG    1        1.361  -1.792  -1.796  0.00  0.00    +0.057 C 
ATOM      3  C   LIG    1        1.083  -3.284  -1.512  0.00  0.00    +0.009 C 
ATOM      4  C   LIG    1       -0.469  -3.392  -1.564  0.00  0.00    +0.006 C 
ATOM      5  C   LIG    1       -0.874  -3.460  -3.031  0.00  0.00    +0.021 C 
ATOM      6  C   LIG    1       -0.527  -4.816  -3.582  0.00  0.00    -0.003 C 
ATOM      7  C   LIG    1       -1.425  -5.700  -3.997  0.00  0.00    +0.041 C 
ATOM      8 CL   LIG    1       -0.884  -7.215  -4.653  0.00  0.00    -0.084 Cl
ATOM      9  C   LIG    1       -2.866  -5.422  -3.912  0.00  0.00    -0.020 C 
ATOM     10  C   LIG    1       -3.719  -6.232  -4.568  0.00  0.00    +0.052 C 
ATOM     11  C   LIG    1       -5.107  -6.042  -4.590  0.00  0.00    +0.160 C 
ATOM     12  C   LIG    1       -5.677  -4.740  -4.083  0.00  0.00    +0.064 C 
ATOM     13  C   LIG    1       -5.162  -3.459  -4.749  0.00  0.00    +0.016 C 
ATOM     14  C   LIG    1       -4.727  -3.814  -3.332  0.00  0.00    +0.011 C 
ATOM     15  O   LIG    1       -5.839  -6.903  -5.026  0.00  0.00    -0.292 OA
ATOM     16  C   LIG    1       -3.297  -4.249  -3.074  0.00  0.00    +0.001 C 
ATOM     17  C   LIG    1       -3.260  -4.724  -1.620  0.00  0.00    +0.017 C 
ATOM     18  C   LIG    1       -2.324  -3.109  -3.287  0.00  0.00    +0.007 C 
ATOM     19  C   LIG    1       -2.737  -1.805  -2.634  0.00  0.00    +0.005 C 
ATOM     20  C   LIG    1       -2.348  -1.720  -1.168  0.00  0.00    +0.011 C 
ATOM     21  C   LIG    1       -0.909  -2.079  -0.902  0.00  0.00    +0.018 C 
ATOM     22  C   LIG    1       -0.768  -2.266   0.624  0.00  0.00    +0.016 C 
ENDROOT
BRANCH   1  24
ATOM     23  C   LIG    1       -0.351   1.073   0.172  0.00  0.00    +0.090 C 
ATOM     24  C   LIG    1        0.469  -0.151  -0.141  0.00  0.00    +0.174 C 
ATOM     25  O   LIG    1        1.414  -0.440   0.553  0.00  0.00    -0.293 OA
ENDBRANCH   1  24
BRANCH   1  26
ATOM     26  O   LIG    1       -0.391  -0.204  -2.383  0.00  0.00    -0.450 OA
BRANCH  26  27
ATOM     27  C   LIG    1        0.427   0.750  -2.857  0.00  0.00    +0.305 C 
ATOM     28  C   LIG    1       -0.062   1.705  -3.915  0.00  0.00    +0.136 C 
ATOM     29  O   LIG    1        1.556   0.842  -2.435  0.00  0.00    -0.251 OA
ENDBRANCH  26  27
ENDBRANCH   1  26
TORSDOF 3
