REMARK  Name = ZINC03913071
REMARK                            x       y       z     vdW  Elec       q    Type
REMARK                         _______ _______ _______ _____ _____    ______ ____
ROOT
ATOM      1  N   LIG    1        0.028  -2.772  -2.422  0.00  0.00    -0.210 N 
ATOM      2  C   LIG    1       -0.079  -2.159  -3.607  0.00  0.00    +0.231 C 
ATOM      3  C   LIG    1       -0.040  -3.189  -4.713  0.00  0.00    +0.095 C 
ATOM      4  C   LIG    1        1.310  -3.032  -5.481  0.00  0.00    +0.025 C 
ATOM      5  C   LIG    1        1.603  -4.531  -5.852  0.00  0.00    +0.016 C 
ATOM      6  C   LIG    1        1.563  -5.005  -4.353  0.00  0.00    +0.025 C 
ATOM      7  C   LIG    1        2.496  -3.965  -3.724  0.00  0.00    -0.027 C 
ATOM      8  C   LIG    1        2.347  -2.805  -4.374  0.00  0.00    -0.027 C 
ATOM      9  C   LIG    1        0.110  -4.534  -3.943  0.00  0.00    +0.095 C 
ATOM     10  O   LIG    1       -0.189  -0.962  -3.768  0.00  0.00    -0.274 OA
ATOM     11  C   LIG    1        0.145  -4.103  -2.494  0.00  0.00    +0.231 C 
ATOM     12  O   LIG    1        0.258  -4.847  -1.544  0.00  0.00    -0.274 OA
ENDROOT
BRANCH   1  16
ATOM     13  C   LIG    1       -2.376  -0.041   0.887  0.00  0.00    +0.045 C 
ATOM     14  C   LIG    1       -1.127  -0.744   0.422  0.00  0.00    -0.035 A 
ATOM     15  C   LIG    1       -1.126  -1.429  -0.778  0.00  0.00    +0.028 A 
ATOM     16  C   LIG    1        0.025  -2.075  -1.205  0.00  0.00    +0.044 A 
ATOM     17  C   LIG    1        1.173  -2.032  -0.426  0.00  0.00    +0.025 A 
ATOM     18  C   LIG    1        1.167  -1.346   0.773  0.00  0.00    +0.017 A 
ATOM     19  C   LIG    1        0.020  -0.698   1.194  0.00  0.00    +0.021 A 
ATOM     20 BR   LIG    1        0.017   0.246   2.833  0.00  0.00    -0.050 Br
ENDBRANCH   1  16
TORSDOF 1
