REMARK  Name = ZINC03995599
REMARK                            x       y       z     vdW  Elec       q    Type
REMARK                         _______ _______ _______ _____ _____    ______ ____
ROOT
ATOM      1  N   LIG    1       -5.828   0.871  -0.174  0.00  0.00    -0.309 N 
ATOM      2  H   LIG    1       -5.141   1.476  -0.496  0.00  0.00    +0.149 HD
ATOM      3  C   LIG    1       -7.028   0.828  -0.786  0.00  0.00    +0.299 C 
ATOM      4  O   LIG    1       -7.887   0.071  -0.384  0.00  0.00    -0.265 OA
ENDROOT
BRANCH   3   5
ATOM      5  C   LIG    1       -7.301   1.713  -1.959  0.00  0.00    +0.299 C 
ATOM      6  N   LIG    1       -8.502   1.671  -2.570  0.00  0.00    -0.309 N 
ATOM      7  H   LIG    1       -9.188   1.066  -2.249  0.00  0.00    +0.149 HD
ATOM      8  O   LIG    1       -6.442   2.470  -2.361  0.00  0.00    -0.265 OA
BRANCH   6   9
ATOM      9  C   LIG    1       -8.770   2.538  -3.720  0.00  0.00    +0.086 C 
BRANCH   9  10
ATOM     10  C   LIG    1      -10.194   2.295  -4.222  0.00  0.00    -0.056 C 
BRANCH  10  11
ATOM     11  N   LIG    1      -10.463   3.164  -5.375  0.00  0.00    +0.383 N 
BRANCH  11  12
ATOM     12  C   LIG    1       -9.507   2.863  -6.448  0.00  0.00    -0.078 C 
ATOM     13  C   LIG    1       -9.543   1.365  -6.758  0.00  0.00    -0.016 C 
ENDBRANCH  11  12
BRANCH  11  14
ATOM     14  C   LIG    1      -10.319   4.570  -4.971  0.00  0.00    -0.078 C 
ATOM     15  C   LIG    1      -11.315   4.883  -3.853  0.00  0.00    -0.016 C 
ENDBRANCH  11  14
BRANCH  11  16
ATOM     16  C   LIG    1      -11.830   2.930  -5.857  0.00  0.00    -0.038 C 
BRANCH  16  17
ATOM     17  C   LIG    1      -12.163   3.933  -6.931  0.00  0.00    -0.045 A 
ATOM     18  C   LIG    1      -12.713   5.155  -6.590  0.00  0.00    +0.003 A 
ATOM     19  C   LIG    1      -13.018   6.075  -7.575  0.00  0.00    +0.000 A 
ATOM     20  C   LIG    1      -12.773   5.775  -8.902  0.00  0.00    +0.001 A 
ATOM     21  C   LIG    1      -12.223   4.554  -9.244  0.00  0.00    +0.020 A 
ATOM     22  C   LIG    1      -11.912   3.635  -8.258  0.00  0.00    +0.042 A 
ATOM     23 CL   LIG    1      -11.215   2.104  -8.687  0.00  0.00    -0.083 Cl
ENDBRANCH  16  17
ENDBRANCH  11  16
ENDBRANCH  10  11
ENDBRANCH   9  10
ENDBRANCH   6   9
ENDBRANCH   3   5
BRANCH   1  24
ATOM     24  C   LIG    1       -5.560   0.003   0.975  0.00  0.00    +0.086 C 
BRANCH  24  25
ATOM     25  C   LIG    1       -4.135   0.247   1.477  0.00  0.00    -0.056 C 
BRANCH  25  26
ATOM     26  N   LIG    1       -3.867  -0.623   2.630  0.00  0.00    +0.383 N 
BRANCH  26  28
ATOM     27  C   LIG    1       -4.673   1.142   4.124  0.00  0.00    -0.016 C 
ATOM     28  C   LIG    1       -4.823  -0.321   3.704  0.00  0.00    -0.078 C 
ENDBRANCH  26  28
BRANCH  26  29
ATOM     29  C   LIG    1       -4.010  -2.028   2.227  0.00  0.00    -0.078 C 
ATOM     30  C   LIG    1       -3.131  -2.300   1.004  0.00  0.00    -0.016 C 
ENDBRANCH  26  29
BRANCH  26  31
ATOM     31  C   LIG    1       -2.499  -0.389   3.112  0.00  0.00    -0.038 C 
BRANCH  31  32
ATOM     32  C   LIG    1       -2.279  -1.156   4.390  0.00  0.00    -0.045 A 
ATOM     33  C   LIG    1       -2.586  -0.576   5.607  0.00  0.00    +0.003 A 
ATOM     34  C   LIG    1       -2.383  -1.280   6.779  0.00  0.00    +0.000 A 
ATOM     35  C   LIG    1       -1.874  -2.565   6.735  0.00  0.00    +0.001 A 
ATOM     36  C   LIG    1       -1.566  -3.146   5.520  0.00  0.00    +0.020 A 
ATOM     37  C   LIG    1       -1.774  -2.443   4.345  0.00  0.00    +0.042 A 
ATOM     38 CL   LIG    1       -1.394  -3.175   2.817  0.00  0.00    -0.083 Cl
ENDBRANCH  31  32
ENDBRANCH  26  31
ENDBRANCH  25  26
ENDBRANCH  24  25
ENDBRANCH   1  24
TORSDOF 15
