REMARK  Name = ZINC03979277
REMARK                            x       y       z     vdW  Elec       q    Type
REMARK                         _______ _______ _______ _____ _____    ______ ____
ROOT
ATOM      1  C   LIG    1        5.303   2.546  -2.622  0.00  0.00    +0.165 C 
ENDROOT
BRANCH   1   2
ATOM      2  N   LIG    1        6.750   2.421  -2.429  0.00  0.00    -0.270 N 
ATOM      3  H   LIG    1        7.108   2.239  -1.546  0.00  0.00    +0.153 HD
ATOM      4  C   LIG    1        7.585   2.558  -3.479  0.00  0.00    +0.401 C 
ATOM      5  O   LIG    1        7.137   2.786  -4.585  0.00  0.00    -0.226 OA
BRANCH   4   6
ATOM      6  O   LIG    1        8.914   2.443  -3.301  0.00  0.00    -0.446 OA
BRANCH   6   7
ATOM      7  C   LIG    1        9.752   2.603  -4.476  0.00  0.00    +0.269 C 
BRANCH   7   8
ATOM      8  C   LIG    1       11.199   2.442  -4.087  0.00  0.00    -0.010 A 
ATOM      9  C   LIG    1       11.938   3.544  -3.701  0.00  0.00    +0.007 A 
ATOM     10  C   LIG    1       13.264   3.396  -3.339  0.00  0.00    +0.000 A 
ATOM     11  C   LIG    1       13.854   2.146  -3.372  0.00  0.00    +0.000 A 
ATOM     12  C   LIG    1       13.117   1.044  -3.763  0.00  0.00    +0.000 A 
ATOM     13  C   LIG    1       11.789   1.192  -4.120  0.00  0.00    +0.007 A 
ENDBRANCH   7   8
ENDBRANCH   6   7
ENDBRANCH   4   6
ENDBRANCH   1   2
BRANCH   1  14
ATOM     14  C   LIG    1        4.658   2.964  -1.326  0.00  0.00    +0.234 C 
ATOM     15  N   LIG    1        3.324   3.142  -1.265  0.00  0.00    -0.304 N 
ATOM     16  H   LIG    1        2.779   3.002  -2.055  0.00  0.00    +0.149 HD
ATOM     17  O   LIG    1        5.340   3.139  -0.338  0.00  0.00    -0.274 OA
BRANCH  15  18
ATOM     18  C   LIG    1        2.696   3.548  -0.005  0.00  0.00    +0.152 C 
BRANCH  18  19
ATOM     19  C   LIG    1        2.757   5.048   0.127  0.00  0.00    +0.184 C 
ATOM     20  O   LIG    1        2.927   5.734  -0.853  0.00  0.00    -0.293 OA
BRANCH  19  21
ATOM     21  C   LIG    1        2.607   5.693   1.480  0.00  0.00    +0.289 C 
ATOM     22  F   LIG    1        2.698   7.082   1.348  0.00  0.00    -0.241 F 
ENDBRANCH  19  21
ENDBRANCH  18  19
BRANCH  18  23
ATOM     23  C   LIG    1        1.235   3.094   0.007  0.00  0.00    +0.150 C 
BRANCH  23  24
ATOM     24  C   LIG    1        1.177   1.588  -0.001  0.00  0.00    +0.307 C 
ATOM     25  O   LIG    1        2.199   0.944  -0.014  0.00  0.00    -0.251 OA
BRANCH  24  26
ATOM     26  O   LIG    1       -0.011   0.963   0.007  0.00  0.00    -0.481 OA
ATOM     27  H   LIG    1       -0.804   1.462   0.018  0.00  0.00    +0.295 HD
ENDBRANCH  24  26
ENDBRANCH  23  24
ENDBRANCH  18  23
ENDBRANCH  15  18
ENDBRANCH   1  14
BRANCH   1  29
ATOM     28  C   LIG    1        5.385   0.775  -4.383  0.00  0.00    +0.009 C 
ATOM     29  C   LIG    1        4.730   1.199  -3.067  0.00  0.00    +0.012 C 
ATOM     30  C   LIG    1        5.011   0.145  -1.994  0.00  0.00    +0.009 C 
ENDBRANCH   1  29
TORSDOF 12
