REMARK  Name = ZINC04077011
REMARK                            x       y       z     vdW  Elec       q    Type
REMARK                         _______ _______ _______ _____ _____    ______ ____
ROOT
ATOM      1  N   LIG    1       -0.645   3.040   1.336  0.00  0.00    -0.241 N 
ATOM      2  C   LIG    1       -1.759   3.752   1.341  0.00  0.00    +0.259 C 
ATOM      3  C   LIG    1       -1.608   5.218   1.416  0.00  0.00    +0.077 C 
ATOM      4  S   LIG    1        0.173   5.369   1.459  0.00  0.00    -0.061 S 
ATOM      5  C   LIG    1       -2.564   6.190   1.441  0.00  0.00    +0.020 C 
ATOM      6  O   LIG    1       -2.855   3.225   1.289  0.00  0.00    -0.269 OA
ATOM      7  C   LIG    1        0.568   3.629   1.387  0.00  0.00    +0.121 C 
ATOM      8  S   LIG    1        2.111   2.888   1.384  0.00  0.00    -0.027 S 
ENDROOT
BRANCH   5   9
ATOM      9  C   LIG    1       -2.188   7.546   1.511  0.00  0.00    +0.002 C 
ATOM     10  C   LIG    1       -3.137   8.512   1.535  0.00  0.00    +0.008 C 
BRANCH  10  11
ATOM     11  C   LIG    1       -2.745   9.927   1.608  0.00  0.00    -0.025 A 
ATOM     12  C   LIG    1       -1.392  10.280   1.657  0.00  0.00    +0.008 A 
ATOM     13  C   LIG    1       -1.032  11.609   1.720  0.00  0.00    +0.001 A 
ATOM     14  C   LIG    1       -2.006  12.593   1.745  0.00  0.00    +0.000 A 
ATOM     15  C   LIG    1       -3.346  12.252   1.702  0.00  0.00    +0.001 A 
ATOM     16  C   LIG    1       -3.723  10.927   1.633  0.00  0.00    +0.008 A 
ENDBRANCH  10  11
ENDBRANCH   5   9
BRANCH   1  17
ATOM     17  C   LIG    1       -0.729   1.579   1.267  0.00  0.00    +0.195 C 
BRANCH  17  18
ATOM     18  C   LIG    1       -0.074   0.981   2.485  0.00  0.00    +0.326 C 
ATOM     19  O   LIG    1        0.413   1.700   3.324  0.00  0.00    -0.249 OA
BRANCH  18  20
ATOM     20  O   LIG    1       -0.032  -0.352   2.637  0.00  0.00    -0.479 OA
ATOM     21  H   LIG    1       -0.409  -0.911   1.986  0.00  0.00    +0.295 HD
ENDBRANCH  18  20
ENDBRANCH  17  18
BRANCH  17  22
ATOM     22  C   LIG    1       -0.013   1.086   0.008  0.00  0.00    +0.069 C 
BRANCH  22  26
ATOM     23  C   LIG    1       -2.078   2.501  -3.453  0.00  0.00    +0.000 A 
ATOM     24  C   LIG    1       -1.066   3.259  -2.894  0.00  0.00    +0.000 A 
ATOM     25  C   LIG    1       -0.398   2.801  -1.774  0.00  0.00    +0.004 A 
ATOM     26  C   LIG    1       -0.742   1.585  -1.213  0.00  0.00    -0.045 A 
ATOM     27  C   LIG    1       -1.750   0.825  -1.775  0.00  0.00    +0.004 A 
ATOM     28  C   LIG    1       -2.422   1.285  -2.892  0.00  0.00    +0.000 A 
ENDBRANCH  22  26
ENDBRANCH  17  22
ENDBRANCH   1  17
TORSDOF 7
