REMARK  Name = ZINC03926308
REMARK                            x       y       z     vdW  Elec       q    Type
REMARK                         _______ _______ _______ _____ _____    ______ ____
ROOT
ATOM      1  C   LIG    1        1.623  -5.139  -2.802  0.00  0.00    +0.096 C 
ATOM      2  C   LIG    1        2.577  -6.072  -2.016  0.00  0.00    +0.058 C 
ATOM      3  C   LIG    1        2.506  -7.393  -2.822  0.00  0.00    +0.141 C 
ATOM      4  C   LIG    1        1.027  -7.495  -3.251  0.00  0.00    +0.027 C 
ATOM      5  C   LIG    1        0.605  -6.822  -4.558  0.00  0.00    +0.018 C 
ATOM      6  C   LIG    1        0.465  -6.060  -3.240  0.00  0.00    +0.024 C 
ENDROOT
BRANCH   1  10
ATOM      7  C   LIG    1        0.601  -0.682  -1.045  0.00  0.00    +0.151 A 
ATOM      8  C   LIG    1        0.624  -2.087  -1.072  0.00  0.00    +0.147 A 
ATOM      9  C   LIG    1        1.246  -2.720  -2.162  0.00  0.00    +0.167 A 
ATOM     10  N   LIG    1        1.125  -4.068  -1.936  0.00  0.00    -0.311 N 
ATOM     11  C   LIG    1        0.457  -4.226  -0.758  0.00  0.00    +0.202 A 
ATOM     12  N   LIG    1        1.786  -1.973  -3.120  0.00  0.00    -0.203 NA
ATOM     13  C   LIG    1        1.741  -0.659  -3.052  0.00  0.00    +0.195 A 
ATOM     14  I   LIG    1        2.612   0.460  -4.595  0.00  0.00    +0.001 I 
ATOM     15  N   LIG    1        0.164  -3.063  -0.253  0.00  0.00    -0.231 NA
ATOM     16  N   LIG    1        1.162  -0.020  -2.051  0.00  0.00    -0.205 NA
BRANCH   7  18
ATOM     17  C   LIG    1       -0.018   1.461   0.010  0.00  0.00    +0.127 C 
ATOM     18  N   LIG    1        0.002  -0.004   0.002  0.00  0.00    -0.330 N 
ATOM     19  H   LIG    1       -0.404  -0.499   0.731  0.00  0.00    +0.147 HD
ENDBRANCH   7  18
ENDBRANCH   1  10
BRANCH   3  20
ATOM     20  O   LIG    1        3.357  -7.326  -3.968  0.00  0.00    -0.283 OA
BRANCH  20  21
ATOM     21  P   LIG    1        4.559  -8.365  -4.229  0.00  0.00    +0.473 P 
ATOM     22  O   LIG    1        4.007  -9.808  -4.200  0.00  0.00    -0.228 OA
BRANCH  21  23
ATOM     23  O   LIG    1        5.630  -8.201  -3.129  0.00  0.00    -0.303 OA
ATOM     24  H   LIG    1        5.233  -8.378  -2.262  0.00  0.00    +0.222 HD
ENDBRANCH  21  23
BRANCH  21  25
ATOM     25  O   LIG    1        5.218  -8.072  -5.669  0.00  0.00    -0.303 OA
ATOM     26  H   LIG    1        5.950  -8.662  -5.893  0.00  0.00    +0.222 HD
ENDBRANCH  21  25
ENDBRANCH  20  21
ENDBRANCH   3  20
BRANCH   4  27
ATOM     27  C   LIG    1        0.224  -8.688  -2.729  0.00  0.00    +0.182 C 
BRANCH  27  28
ATOM     28  O   LIG    1        0.996  -9.881  -2.871  0.00  0.00    -0.286 OA
BRANCH  28  29
ATOM     29  P   LIG    1        0.460 -11.332  -2.423  0.00  0.00    +0.472 P 
ATOM     30  O   LIG    1        0.022 -11.285  -0.920  0.00  0.00    -0.228 OA
BRANCH  29  31
ATOM     31  O   LIG    1        1.603 -12.389  -2.601  0.00  0.00    -0.303 OA
ATOM     32  H   LIG    1        2.362 -12.140  -2.050  0.00  0.00    +0.222 HD
ENDBRANCH  29  31
BRANCH  29  33
ATOM     33  O   LIG    1       -0.766 -11.733  -3.312  0.00  0.00    -0.303 OA
ATOM     34  H   LIG    1       -1.473 -11.079  -3.202  0.00  0.00    +0.222 HD
ENDBRANCH  29  33
ENDBRANCH  28  29
ENDBRANCH  27  28
ENDBRANCH   4  27
TORSDOF 11
