REMARK  Name = ZINC03954923
REMARK                            x       y       z     vdW  Elec       q    Type
REMARK                         _______ _______ _______ _____ _____    ______ ____
ROOT
ATOM      1  C   LIG    1       -3.049   4.964  -5.959  0.00  0.00    +0.245 C 
ATOM      2  N   LIG    1       -3.670   4.173  -6.857  0.00  0.00    -0.297 N 
ATOM      3  H   LIG    1       -3.611   3.209  -6.776  0.00  0.00    +0.150 HD
ATOM      4  O   LIG    1       -3.048   6.171  -6.110  0.00  0.00    -0.270 OA
ENDROOT
BRANCH   1   8
ATOM      5  C   LIG    1       -1.099   3.241  -2.603  0.00  0.00    +0.030 A 
ATOM      6  C   LIG    1       -1.735   2.423  -3.533  0.00  0.00    +0.024 A 
ATOM      7  C   LIG    1       -2.372   2.978  -4.619  0.00  0.00    +0.015 A 
ATOM      8  C   LIG    1       -2.371   4.365  -4.793  0.00  0.00    +0.037 A 
ATOM      9  C   LIG    1       -1.727   5.184  -3.861  0.00  0.00    +0.015 A 
ATOM     10  C   LIG    1       -1.096   4.623  -2.775  0.00  0.00    +0.024 A 
BRANCH   5  15
ATOM     11  N   LIG    1       -0.352   1.179   0.918  0.00  0.00    +0.382 N 
ATOM     12  H   LIG    1       -1.351   0.946   0.978  0.00  0.00    -0.082 HD
ATOM     13  C   LIG    1       -0.201   2.650   0.930  0.00  0.00    -0.060 C 
ATOM     14  C   LIG    1       -0.982   3.236  -0.249  0.00  0.00    +0.086 C 
ATOM     15  N   LIG    1       -0.461   2.677  -1.504  0.00  0.00    -0.333 N 
ATOM     16  C   LIG    1       -0.585   1.213  -1.517  0.00  0.00    +0.086 C 
ATOM     17  C   LIG    1        0.195   0.627  -0.339  0.00  0.00    -0.060 C 
BRANCH  11  18
ATOM     18  C   LIG    1        0.350   0.589   2.078  0.00  0.00    -0.079 C 
BRANCH  18  20
ATOM     19  C   LIG    1        0.671   0.742   4.551  0.00  0.00    +0.002 C 
ATOM     20  C   LIG    1       -0.032   1.363   3.342  0.00  0.00    -0.022 C 
ENDBRANCH  18  20
ENDBRANCH  11  18
ENDBRANCH   5  15
ENDBRANCH   1   8
BRANCH   2  21
ATOM     21  C   LIG    1       -4.433   4.771  -7.955  0.00  0.00    +0.111 C 
ATOM     22  C   LIG    1       -5.572   5.617  -7.383  0.00  0.00    +0.035 C 
ATOM     23  C   LIG    1       -6.495   4.731  -6.544  0.00  0.00    +0.003 C 
ATOM     24  C   LIG    1       -7.075   3.622  -7.424  0.00  0.00    +0.000 C 
ATOM     25  C   LIG    1       -5.936   2.776  -7.997  0.00  0.00    +0.003 C 
ATOM     26  C   LIG    1       -5.014   3.663  -8.835  0.00  0.00    +0.035 C 
BRANCH  21  27
ATOM     27  C   LIG    1       -3.525   5.645  -8.781  0.00  0.00    +0.237 C 
ATOM     28  N   LIG    1       -2.240   5.288  -8.975  0.00  0.00    -0.301 N 
ATOM     29  H   LIG    1       -1.881   4.506  -8.527  0.00  0.00    +0.150 HD
ATOM     30  O   LIG    1       -3.950   6.669  -9.272  0.00  0.00    -0.273 OA
BRANCH  28  31
ATOM     31  C   LIG    1       -1.385   6.081  -9.861  0.00  0.00    +0.223 C 
BRANCH  31  32
ATOM     32  C   LIG    1       -0.038   5.488  -9.903  0.00  0.00    +0.081 C 
ATOM     33  N   LIG    1        1.002   5.031  -9.936  0.00  0.00    -0.195 NA
ENDBRANCH  31  32
ENDBRANCH  28  31
ENDBRANCH  21  27
ENDBRANCH   2  21
TORSDOF 8
