REMARK  Name = ZINC03873635
REMARK                            x       y       z     vdW  Elec       q    Type
REMARK                         _______ _______ _______ _____ _____    ______ ____
ROOT
ATOM      1  C   LIG    1       -4.963   0.671   0.029  0.00  0.00    +0.000 C 
ENDROOT
BRANCH   1   2
ATOM      2  C   LIG    1       -6.299   1.418   0.040  0.00  0.00    +0.009 C 
BRANCH   2   3
ATOM      3  C   LIG    1       -7.448   0.408   0.040  0.00  0.00    +0.098 C 
BRANCH   3   4
ATOM      4  C   LIG    1       -8.763   1.144   0.050  0.00  0.00    +0.235 C 
ATOM      5  N   LIG    1       -9.921   0.454   0.052  0.00  0.00    -0.197 N 
ATOM      6  H   LIG    1       -9.908  -0.516   0.046  0.00  0.00    +0.182 HD
ATOM      7  O   LIG    1       -8.780   2.357   0.057  0.00  0.00    -0.274 OA
BRANCH   5   8
ATOM      8  O   LIG    1      -11.157   1.146   0.061  0.00  0.00    -0.295 OA
ATOM      9  H   LIG    1      -11.931   0.567   0.062  0.00  0.00    +0.241 HD
ENDBRANCH   5   8
ENDBRANCH   3   4
ENDBRANCH   2   3
ENDBRANCH   1   2
BRANCH   1  10
ATOM     10  C   LIG    1       -3.814   1.681   0.029  0.00  0.00    +0.000 C 
BRANCH  10  11
ATOM     11  C   LIG    1       -2.479   0.934   0.019  0.00  0.00    +0.009 C 
BRANCH  11  12
ATOM     12  C   LIG    1       -1.330   1.944   0.019  0.00  0.00    +0.098 C 
BRANCH  12  13
ATOM     13  C   LIG    1       -0.014   1.209   0.009  0.00  0.00    +0.235 C 
ATOM     14  N   LIG    1        1.143   1.898   0.001  0.00  0.00    -0.197 N 
ATOM     15  H   LIG    1        1.130   2.868   0.007  0.00  0.00    +0.182 HD
ATOM     16  O   LIG    1        0.002  -0.004   0.002  0.00  0.00    -0.274 OA
BRANCH  14  17
ATOM     17  O   LIG    1        2.379   1.207  -0.014  0.00  0.00    -0.295 OA
ATOM     18  H   LIG    1        3.154   1.786  -0.018  0.00  0.00    +0.241 HD
ENDBRANCH  14  17
ENDBRANCH  12  13
ENDBRANCH  11  12
ENDBRANCH  10  11
ENDBRANCH   1  10
TORSDOF 9
