REMARK  Name = ZINC03978021
REMARK                            x       y       z     vdW  Elec       q    Type
REMARK                         _______ _______ _______ _____ _____    ______ ____
ROOT
ATOM      1  C   LIG    1        0.097  -1.027  -1.360  0.00  0.00    +0.176 C 
ATOM      2  C   LIG    1        1.309  -1.857  -1.858  0.00  0.00    +0.057 C 
ATOM      3  C   LIG    1        0.870  -3.350  -1.794  0.00  0.00    +0.009 C 
ATOM      4  C   LIG    1       -0.656  -3.225  -1.883  0.00  0.00    +0.006 C 
ATOM      5  C   LIG    1       -1.484  -4.441  -1.608  0.00  0.00    +0.021 C 
ATOM      6  C   LIG    1       -1.026  -5.262  -0.439  0.00  0.00    -0.003 C 
ATOM      7  C   LIG    1       -1.798  -6.312  -0.081  0.00  0.00    +0.041 C 
ATOM      8 CL   LIG    1       -1.356  -7.381   1.222  0.00  0.00    -0.084 Cl
ATOM      9  C   LIG    1       -3.037  -6.492  -0.864  0.00  0.00    -0.020 C 
ATOM     10  C   LIG    1       -3.385  -7.753  -1.197  0.00  0.00    +0.052 C 
ATOM     11  C   LIG    1       -4.494  -8.061  -1.995  0.00  0.00    +0.160 C 
ATOM     12  C   LIG    1       -5.189  -6.952  -2.747  0.00  0.00    +0.064 C 
ATOM     13  C   LIG    1       -4.319  -6.102  -3.680  0.00  0.00    +0.016 C 
ATOM     14  C   LIG    1       -4.823  -5.522  -2.360  0.00  0.00    +0.011 C 
ATOM     15  O   LIG    1       -4.882  -9.205  -2.100  0.00  0.00    -0.292 OA
ATOM     16  C   LIG    1       -3.833  -5.285  -1.233  0.00  0.00    +0.001 C 
ATOM     17  C   LIG    1       -4.700  -4.983  -0.005  0.00  0.00    +0.017 C 
ATOM     18  C   LIG    1       -2.966  -4.075  -1.528  0.00  0.00    +0.007 C 
ATOM     19  C   LIG    1       -3.234  -2.905  -0.595  0.00  0.00    +0.005 C 
ATOM     20  C   LIG    1       -2.379  -1.682  -0.983  0.00  0.00    +0.011 C 
ATOM     21  C   LIG    1       -0.922  -2.075  -0.888  0.00  0.00    +0.018 C 
ATOM     22  C   LIG    1       -0.568  -2.450   0.552  0.00  0.00    +0.016 C 
ENDROOT
BRANCH   1  24
ATOM     23  C   LIG    1       -0.309   1.082   0.121  0.00  0.00    +0.090 C 
ATOM     24  C   LIG    1        0.502  -0.145  -0.209  0.00  0.00    +0.174 C 
ATOM     25  O   LIG    1        1.476  -0.420   0.449  0.00  0.00    -0.293 OA
ENDBRANCH   1  24
BRANCH   1  26
ATOM     26  O   LIG    1       -0.449  -0.251  -2.425  0.00  0.00    -0.450 OA
BRANCH  26  27
ATOM     27  C   LIG    1        0.337   0.702  -2.950  0.00  0.00    +0.305 C 
ATOM     28  C   LIG    1       -0.200   1.613  -4.024  0.00  0.00    +0.136 C 
ATOM     29  O   LIG    1        1.474   0.829  -2.561  0.00  0.00    -0.251 OA
ENDBRANCH  26  27
ENDBRANCH   1  26
TORSDOF 3
