REMARK  Name = ZINC03995477
REMARK                            x       y       z     vdW  Elec       q    Type
REMARK                         _______ _______ _______ _____ _____    ______ ____
ROOT
ATOM      1  C   LIG    1        1.024  -4.174  -0.031  0.00  0.00    +0.077 C 
ATOM      2  C   LIG    1        1.449  -4.782  -1.339  0.00  0.00    +0.004 A 
ATOM      3  C   LIG    1        0.670  -4.607  -2.468  0.00  0.00    +0.008 A 
ATOM      4  C   LIG    1        1.057  -5.166  -3.671  0.00  0.00    +0.001 A 
ATOM      5  C   LIG    1        2.225  -5.902  -3.749  0.00  0.00    +0.004 A 
ATOM      6  C   LIG    1        3.007  -6.079  -2.626  0.00  0.00    +0.046 A 
ATOM      7  C   LIG    1        2.620  -5.519  -1.414  0.00  0.00    +0.132 A 
ATOM      8  O   LIG    1        3.387  -5.695  -0.314  0.00  0.00    -0.460 OA
ATOM      9  C   LIG    1        2.853  -5.565   0.914  0.00  0.00    +0.113 C 
ATOM     10  C   LIG    1        3.560  -6.237   2.068  0.00  0.00    +0.081 C 
ATOM     11  C   LIG    1        2.546  -6.655   3.120  0.00  0.00    -0.021 C 
ATOM     12  C   LIG    1        1.551  -7.648   2.516  0.00  0.00    +0.012 C 
ATOM     13  C   LIG    1        3.269  -7.300   4.304  0.00  0.00    +0.012 C 
ATOM     14  C   LIG    1        1.800  -5.402   3.592  0.00  0.00    +0.086 C 
ATOM     15  C   LIG    1        1.173  -4.731   2.401  0.00  0.00    +0.164 C 
ATOM     16  O   LIG    1        0.166  -4.068   2.552  0.00  0.00    -0.292 OA
ATOM     17  C   LIG    1        1.730  -4.857   1.115  0.00  0.00    +0.042 C 
ENDROOT
BRANCH   1  24
ATOM     18  C   LIG    1        2.822   0.861  -2.267  0.00  0.00    +0.012 C 
ATOM     19  C   LIG    1        2.388  -0.562  -1.911  0.00  0.00    -0.022 C 
ATOM     20  C   LIG    1        2.510  -1.456  -3.147  0.00  0.00    +0.012 C 
ATOM     21  C   LIG    1        3.288  -1.106  -0.798  0.00  0.00    +0.082 C 
ATOM     22  C   LIG    1        2.826  -2.497  -0.426  0.00  0.00    +0.145 C 
ATOM     23  O   LIG    1        3.591  -3.432  -0.446  0.00  0.00    -0.297 OA
ATOM     24  C   LIG    1        1.376  -2.685  -0.027  0.00  0.00    +0.133 C 
ATOM     25  C   LIG    1        0.527  -1.952  -1.047  0.00  0.00    +0.145 C 
ATOM     26  O   LIG    1       -0.446  -2.475  -1.535  0.00  0.00    -0.297 OA
ATOM     27  C   LIG    1        0.933  -0.548  -1.434  0.00  0.00    +0.082 C 
ENDBRANCH   1  24
TORSDOF 1
