REMARK  Name = ZINC03966291
REMARK                            x       y       z     vdW  Elec       q    Type
REMARK                         _______ _______ _______ _____ _____    ______ ____
ROOT
ATOM      1  C   LIG    1       -0.718  -3.639  -2.027  0.00  0.00    +0.164 C 
ENDROOT
BRANCH   1   3
ATOM      2  N   LIG    1        1.265  -4.385  -3.304  0.00  0.00    -0.296 N 
ATOM      3  C   LIG    1        0.101  -3.707  -3.291  0.00  0.00    +0.237 C 
ATOM      4  O   LIG    1       -0.289  -3.151  -4.296  0.00  0.00    -0.274 OA
ATOM      5  C   LIG    1        1.695  -5.125  -2.115  0.00  0.00    +0.132 C 
BRANCH   2   6
ATOM      6  C   LIG    1        2.101  -4.383  -4.507  0.00  0.00    +0.102 C 
BRANCH   6   8
ATOM      7  C   LIG    1        4.396  -3.947  -5.392  0.00  0.00    +0.009 C 
ATOM      8  C   LIG    1        3.499  -3.869  -4.155  0.00  0.00    +0.007 C 
ATOM      9  C   LIG    1        3.405  -2.417  -3.684  0.00  0.00    +0.009 C 
ENDBRANCH   6   8
BRANCH   6  10
ATOM     10  C   LIG    1        2.203  -5.784  -5.051  0.00  0.00    +0.006 C 
ATOM     11  C   LIG    1        1.789  -6.050  -6.287  0.00  0.00    +0.031 C 
ATOM     12  C   LIG    1        1.325  -4.931  -7.184  0.00  0.00    +0.051 C 
BRANCH  11  13
ATOM     13  C   LIG    1        1.785  -7.435  -6.779  0.00  0.00    +0.332 C 
ATOM     14  O   LIG    1        2.159  -8.337  -6.057  0.00  0.00    -0.246 OA
BRANCH  13  15
ATOM     15  O   LIG    1        1.365  -7.704  -8.032  0.00  0.00    -0.477 OA
ATOM     16  H   LIG    1        1.077  -7.008  -8.589  0.00  0.00    +0.295 HD
ENDBRANCH  13  15
ENDBRANCH  11  13
ENDBRANCH   6  10
ENDBRANCH   2   6
ENDBRANCH   1   3
BRANCH   1  17
ATOM     17  N   LIG    1       -1.260  -2.287  -1.869  0.00  0.00    -0.305 N 
ATOM     18  H   LIG    1       -1.390  -1.722  -2.647  0.00  0.00    +0.149 HD
ATOM     19  C   LIG    1       -1.578  -1.828  -0.642  0.00  0.00    +0.200 C 
ATOM     20  O   LIG    1       -1.415  -2.533   0.330  0.00  0.00    -0.278 OA
BRANCH  19  21
ATOM     21  C   LIG    1       -2.135  -0.437  -0.480  0.00  0.00    +0.026 C 
BRANCH  21  22
ATOM     22  N   LIG    1       -2.968  -0.379   0.737  0.00  0.00    +0.385 N 
ATOM     23  H   LIG    1       -2.540  -0.959   1.468  0.00  0.00    -0.085 HD
ATOM     24  H   LIG    1       -3.027   0.593   1.061  0.00  0.00    -0.085 HD
ATOM     25  C   LIG    1       -4.326  -0.880   0.452  0.00  0.00    -0.099 C 
ENDBRANCH  21  22
BRANCH  21  26
ATOM     26  C   LIG    1       -0.984   0.562  -0.348  0.00  0.00    -0.014 C 
ATOM     27  C   LIG    1       -0.243   0.316   0.968  0.00  0.00    +0.014 C 
ATOM     28  C   LIG    1       -0.017   0.383  -1.519  0.00  0.00    +0.014 C 
BRANCH  26  29
ATOM     29  C   LIG    1       -1.533   1.965  -0.360  0.00  0.00    -0.043 A 
ATOM     30  C   LIG    1       -2.894   2.174  -0.484  0.00  0.00    +0.004 A 
ATOM     31  C   LIG    1       -3.398   3.462  -0.491  0.00  0.00    +0.000 A 
ATOM     32  C   LIG    1       -2.540   4.540  -0.383  0.00  0.00    +0.000 A 
ATOM     33  C   LIG    1       -1.179   4.331  -0.264  0.00  0.00    +0.000 A 
ATOM     34  C   LIG    1       -0.675   3.044  -0.253  0.00  0.00    +0.004 A 
ENDBRANCH  26  29
ENDBRANCH  21  26
ENDBRANCH  19  21
ENDBRANCH   1  17
BRANCH   1  35
ATOM     35  C   LIG    1       -1.869  -4.643  -2.110  0.00  0.00    -0.011 C 
ATOM     36  C   LIG    1       -2.710  -4.561  -0.835  0.00  0.00    +0.013 C 
ATOM     37  C   LIG    1       -1.302  -6.057  -2.257  0.00  0.00    +0.013 C 
ATOM     38  C   LIG    1       -2.745  -4.316  -3.321  0.00  0.00    +0.013 C 
ENDBRANCH   1  35
TORSDOF 12
