REMARK  Name = ZINC04004773
REMARK                            x       y       z     vdW  Elec       q    Type
REMARK                         _______ _______ _______ _____ _____    ______ ____
ROOT
ATOM      1  N   LIG    1       -5.423  -2.855  -1.343  0.00  0.00    -0.258 N 
ATOM      2  C   LIG    1       -6.169  -1.917  -1.971  0.00  0.00    +0.265 A 
ATOM      3  C   LIG    1       -6.586  -2.193  -3.355  0.00  0.00    +0.065 A 
ATOM      4  C   LIG    1       -7.355  -1.286  -4.084  0.00  0.00    +0.016 A 
ATOM      5  C   LIG    1       -7.721  -1.581  -5.366  0.00  0.00    +0.014 A 
ATOM      6  C   LIG    1       -7.331  -2.789  -5.958  0.00  0.00    +0.039 A 
ATOM      7  C   LIG    1       -6.565  -3.706  -5.250  0.00  0.00    +0.041 A 
ATOM      8  C   LIG    1       -6.184  -3.415  -3.938  0.00  0.00    +0.082 A 
ATOM      9  N   LIG    1       -5.437  -4.279  -3.210  0.00  0.00    -0.196 NA
ATOM     10  O   LIG    1       -6.482  -0.882  -1.412  0.00  0.00    -0.267 OA
ATOM     11  C   LIG    1       -5.075  -4.006  -1.984  0.00  0.00    +0.299 A 
ENDROOT
BRANCH   6  12
ATOM     12  C   LIG    1       -7.738  -3.090  -7.350  0.00  0.00    +0.244 C 
ATOM     13  N   LIG    1       -8.482  -2.203  -8.041  0.00  0.00    -0.311 N 
ATOM     14  H   LIG    1       -8.750  -1.368  -7.627  0.00  0.00    +0.149 HD
ATOM     15  O   LIG    1       -7.402  -4.136  -7.868  0.00  0.00    -0.270 OA
BRANCH  13  16
ATOM     16  C   LIG    1       -8.884  -2.501  -9.418  0.00  0.00    +0.102 C 
BRANCH  16  17
ATOM     17  C   LIG    1       -9.714  -1.339  -9.969  0.00  0.00    +0.000 C 
BRANCH  17  18
ATOM     18  C   LIG    1      -10.135  -1.651 -11.406  0.00  0.00    -0.077 C 
BRANCH  18  19
ATOM     19  N   LIG    1      -10.932  -0.535 -11.935  0.00  0.00    +0.380 N 
ATOM     20  H   LIG    1      -10.408   0.322 -11.848  0.00  0.00    -0.082 HD
ATOM     21  C   LIG    1      -12.181  -0.423 -11.172  0.00  0.00    -0.079 C 
ATOM     22  C   LIG    1      -12.978   0.786 -11.665  0.00  0.00    -0.019 C 
ATOM     23  C   LIG    1      -13.300   0.606 -13.152  0.00  0.00    -0.004 C 
ATOM     24  C   LIG    1      -11.994   0.416 -13.928  0.00  0.00    -0.019 C 
ATOM     25  C   LIG    1      -11.234  -0.780 -13.351  0.00  0.00    -0.079 C 
ENDBRANCH  18  19
ENDBRANCH  17  18
ENDBRANCH  16  17
ENDBRANCH  13  16
ENDBRANCH   6  12
BRANCH  11  26
ATOM     26  O   LIG    1       -4.326  -4.911  -1.318  0.00  0.00    -0.479 OA
ATOM     27  H   LIG    1       -4.055  -4.738  -0.438  0.00  0.00    +0.295 HD
ENDBRANCH  11  26
BRANCH   1  28
ATOM     28  C   LIG    1       -4.981  -2.629   0.035  0.00  0.00    +0.165 C 
BRANCH  28  32
ATOM     29  C   LIG    1       -1.200  -0.637   0.010  0.00  0.00    +0.120 A 
ATOM     30  C   LIG    1       -2.375   0.101   0.019  0.00  0.00    +0.046 A 
ATOM     31  C   LIG    1       -3.596  -0.545   0.027  0.00  0.00    +0.009 A 
ATOM     32  C   LIG    1       -3.648  -1.927   0.026  0.00  0.00    -0.027 A 
ATOM     33  C   LIG    1       -2.479  -2.665   0.017  0.00  0.00    +0.009 A 
ATOM     34  C   LIG    1       -1.255  -2.024   0.003  0.00  0.00    +0.046 A 
BRANCH  29  36
ATOM     35  C   LIG    1       -0.017   1.425   0.010  0.00  0.00    +0.277 C 
ATOM     36  O   LIG    1        0.002  -0.004   0.002  0.00  0.00    -0.495 OA
ENDBRANCH  29  36
ENDBRANCH  28  32
ENDBRANCH   1  28
TORSDOF 9
