REMARK  Name = ZINC03984065
REMARK                            x       y       z     vdW  Elec       q    Type
REMARK                         _______ _______ _______ _____ _____    ______ ____
ROOT
ATOM      1  N   LIG    1       -1.097  -1.035   0.144  0.00  0.00    -0.246 N 
ATOM      2  H   LIG    1       -1.731  -0.841   0.852  0.00  0.00    +0.265 HD
ENDROOT
BRANCH   1   9
ATOM      3  C   LIG    1        0.716   0.250   1.093  0.00  0.00    +0.043 A 
ATOM      4  C   LIG    1        2.067   0.436   1.305  0.00  0.00    +0.023 A 
ATOM      5  C   LIG    1        2.981  -0.464   0.785  0.00  0.00    +0.041 A 
ATOM      6 CL   LIG    1        4.680  -0.226   1.052  0.00  0.00    -0.084 Cl
ATOM      7  C   LIG    1        2.543  -1.553   0.053  0.00  0.00    +0.023 A 
ATOM      8  C   LIG    1        1.192  -1.745  -0.161  0.00  0.00    +0.043 A 
ATOM      9  C   LIG    1        0.273  -0.843   0.359  0.00  0.00    +0.100 A 
ENDBRANCH   1   9
BRANCH   1  10
ATOM     10  C   LIG    1       -1.542  -1.497  -1.066  0.00  0.00    +0.346 C 
ATOM     11  N   LIG    1       -2.829  -1.796  -1.232  0.00  0.00    -0.292 N 
ATOM     12  H   LIG    1       -3.144  -2.123  -2.089  0.00  0.00    +0.255 HD
ATOM     13  H   LIG    1       -3.451  -1.686  -0.496  0.00  0.00    +0.255 HD
BRANCH  10  14
ATOM     14  N   LIG    1       -0.687  -1.649  -2.076  0.00  0.00    -0.292 N 
ATOM     15  H   LIG    1       -0.956  -2.137  -2.870  0.00  0.00    +0.255 HD
ATOM     16  H   LIG    1        0.204  -1.270  -2.018  0.00  0.00    +0.255 HD
ENDBRANCH  10  14
ENDBRANCH   1  10
TORSDOF 3
