REMARK  Name = ZINC04019690
REMARK                            x       y       z     vdW  Elec       q    Type
REMARK                         _______ _______ _______ _____ _____    ______ ____
ROOT
ATOM      1  C   LIG    1        2.766   8.587   0.024  0.00  0.00    +0.155 C 
ATOM      2  N   LIG    1        1.301   8.586   0.037  0.00  0.00    -0.280 N 
ATOM      3  C   LIG    1        0.609   7.385   0.037  0.00  0.00    +0.168 A 
ATOM      4  C   LIG    1       -0.782   7.412   0.050  0.00  0.00    +0.149 A 
ATOM      5  N   LIG    1       -1.199   6.096   0.047  0.00  0.00    -0.332 N 
ATOM      6  C   LIG    1       -0.076   5.326   0.032  0.00  0.00    +0.141 A 
ATOM      7  H   LIG    1       -2.274   5.859   0.056  0.00  0.00    +0.168 HD
ATOM      8  C   LIG    1       -1.444   8.658   0.063  0.00  0.00    +0.282 A 
ATOM      9  N   LIG    1       -0.715   9.793   0.062  0.00  0.00    -0.262 N 
ATOM     10  C   LIG    1       -1.398  11.089   0.076  0.00  0.00    +0.157 C 
ATOM     11  O   LIG    1       -2.662   8.708   0.074  0.00  0.00    -0.265 OA
ATOM     12  N   LIG    1        0.987   6.107   0.032  0.00  0.00    -0.210 NA
ATOM     13  C   LIG    1        0.628   9.752   0.050  0.00  0.00    +0.333 A 
ATOM     14  O   LIG    1        1.252  10.796   0.050  0.00  0.00    -0.246 OA
ENDROOT
BRANCH   6  15
ATOM     15  C   LIG    1       -0.051   3.848   0.023  0.00  0.00    +0.021 A 
ATOM     16  C   LIG    1       -1.247   3.128   0.031  0.00  0.00    +0.012 A 
ATOM     17  C   LIG    1       -1.221   1.748   0.017  0.00  0.00    +0.004 A 
ATOM     18  C   LIG    1       -0.013   1.076   0.008  0.00  0.00    +0.045 A 
ATOM     19  C   LIG    1        1.181   1.784   0.000  0.00  0.00    +0.118 A 
ATOM     20  C   LIG    1        1.166   3.168   0.008  0.00  0.00    +0.057 A 
BRANCH  19  21
ATOM     21  O   LIG    1        2.366   1.117  -0.014  0.00  0.00    -0.507 OA
ATOM     22  H   LIG    1        3.312   1.678  -0.020  0.00  0.00    +0.292 HD
ENDBRANCH  19  21
ENDBRANCH   6  15
TORSDOF 2
