REMARK  Name = ZINC03995739
REMARK                            x       y       z     vdW  Elec       q    Type
REMARK                         _______ _______ _______ _____ _____    ______ ____
ROOT
ATOM      1  C   LIG    1        0.814  -1.028   3.513  0.00  0.00    +0.034 A 
ATOM      2  C   LIG    1        2.183  -1.229   3.407  0.00  0.00    +0.025 A 
ATOM      3  C   LIG    1        2.913  -1.605   4.518  0.00  0.00    +0.029 A 
ATOM      4  C   LIG    1        2.281  -1.782   5.735  0.00  0.00    +0.094 A 
ATOM      5  C   LIG    1        0.916  -1.583   5.844  0.00  0.00    +0.029 A 
ATOM      6  C   LIG    1        0.182  -1.201   4.738  0.00  0.00    +0.025 A 
ENDROOT
BRANCH   1   8
ATOM      7  C   LIG    1       -0.972   0.195   2.525  0.00  0.00    +0.258 C 
ATOM      8  N   LIG    1        0.071  -0.647   2.389  0.00  0.00    -0.283 N 
ATOM      9  H   LIG    1        0.308  -0.990   1.513  0.00  0.00    +0.155 HD
ATOM     10  O   LIG    1       -1.320   0.557   3.629  0.00  0.00    -0.272 OA
BRANCH   7  12
ATOM     11  C   LIG    1       -2.772  -0.334   0.903  0.00  0.00    +0.061 C 
ATOM     12  C   LIG    1       -1.706   0.688   1.304  0.00  0.00    +0.234 C 
BRANCH  12  13
ATOM     13  C   LIG    1       -2.376   2.027   1.618  0.00  0.00    +0.427 C 
ATOM     14  F   LIG    1       -3.057   2.484   0.485  0.00  0.00    -0.167 F 
ATOM     15  F   LIG    1       -1.401   2.961   1.985  0.00  0.00    -0.167 F 
ATOM     16  F   LIG    1       -3.281   1.860   2.671  0.00  0.00    -0.167 F 
ENDBRANCH  12  13
BRANCH  12  17
ATOM     17  O   LIG    1       -0.781   0.858   0.229  0.00  0.00    -0.373 OA
ATOM     18  H   LIG    1       -0.075   1.494   0.413  0.00  0.00    +0.211 HD
ENDBRANCH  12  17
ENDBRANCH   7  12
ENDBRANCH   1   8
BRANCH   4  19
ATOM     19  S   LIG    1        3.215  -2.261   7.149  0.00  0.00    +0.025 S 
ATOM     20  O   LIG    1        4.380  -2.914   6.664  0.00  0.00    -0.164 OA
ATOM     21  O   LIG    1        2.306  -2.890   8.042  0.00  0.00    -0.164 OA
BRANCH  19  22
ATOM     22  C   LIG    1        3.757  -0.784   7.941  0.00  0.00    +0.094 A 
ATOM     23  C   LIG    1        4.965  -0.212   7.585  0.00  0.00    +0.027 A 
ATOM     24  C   LIG    1        5.391   0.947   8.206  0.00  0.00    +0.002 A 
ATOM     25  C   LIG    1        4.609   1.535   9.183  0.00  0.00    +0.000 A 
ATOM     26  C   LIG    1        3.401   0.964   9.538  0.00  0.00    +0.002 A 
ATOM     27  C   LIG    1        2.973  -0.193   8.914  0.00  0.00    +0.027 A 
ENDBRANCH  19  22
ENDBRANCH   4  19
TORSDOF 6
