REMARK  Name = ZINC03875392
REMARK                            x       y       z     vdW  Elec       q    Type
REMARK                         _______ _______ _______ _____ _____    ______ ____
ROOT
ATOM      1  C   LIG    1       -1.406  -2.083   0.003  0.00  0.00    +0.039 C 
ATOM      2  C   LIG    1       -2.817  -2.637  -0.223  0.00  0.00    -0.067 C 
ATOM      3  N   LIG    1       -3.670  -2.281   0.918  0.00  0.00    +0.385 N 
ATOM      4  H   LIG    1       -3.628  -1.285   1.071  0.00  0.00    -0.081 HD
ATOM      5  C   LIG    1       -5.059  -2.665   0.626  0.00  0.00    -0.073 C 
ATOM      6  C   LIG    1       -5.976  -2.017   1.663  0.00  0.00    +0.017 C 
ATOM      7  C   LIG    1       -5.471  -2.323   3.050  0.00  0.00    -0.044 A 
ATOM      8  C   LIG    1       -6.330  -2.147   4.124  0.00  0.00    +0.053 A 
ATOM      9  C   LIG    1       -5.902  -2.415   5.412  0.00  0.00    +0.162 A 
ATOM     10  C   LIG    1       -4.603  -2.864   5.627  0.00  0.00    +0.162 A 
ATOM     11  C   LIG    1       -3.750  -3.039   4.552  0.00  0.00    +0.051 A 
ATOM     12  C   LIG    1       -4.183  -2.769   3.261  0.00  0.00    -0.054 A 
ATOM     13  C   LIG    1       -3.218  -2.977   2.124  0.00  0.00    -0.030 C 
ATOM     14  C   LIG    1       -1.837  -2.450   2.533  0.00  0.00    +0.064 C 
ATOM     15  C   LIG    1       -0.908  -2.587   1.342  0.00  0.00    +0.133 C 
ATOM     16  O   LIG    1        0.188  -3.080   1.457  0.00  0.00    -0.297 OA
ENDROOT
BRANCH   9  17
ATOM     17  O   LIG    1       -6.748  -2.240   6.463  0.00  0.00    -0.491 OA
ATOM     18  C   LIG    1       -8.066  -1.776   6.165  0.00  0.00    +0.277 C 
ENDBRANCH   9  17
BRANCH  10  19
ATOM     19  O   LIG    1       -4.172  -3.129   6.889  0.00  0.00    -0.491 OA
ATOM     20  C   LIG    1       -2.826  -3.587   7.033  0.00  0.00    +0.277 C 
ENDBRANCH  10  19
BRANCH   1  21
ATOM     21  C   LIG    1       -1.447  -0.553   0.010  0.00  0.00    +0.012 C 
BRANCH  21  23
ATOM     22  C   LIG    1        0.766  -0.366  -1.134  0.00  0.00    +0.007 C 
ATOM     23  C   LIG    1       -0.023  -0.005   0.126  0.00  0.00    -0.017 C 
ATOM     24  C   LIG    1       -0.073   1.516   0.279  0.00  0.00    +0.007 C 
ENDBRANCH  21  23
ENDBRANCH   1  21
TORSDOF 4
