REMARK  Name = ZINC03935899
REMARK                            x       y       z     vdW  Elec       q    Type
REMARK                         _______ _______ _______ _____ _____    ______ ____
ROOT
ATOM      1  N   LIG    1        3.689  -3.597   2.275  0.00  0.00    -0.224 N 
ATOM      2  C   LIG    1        4.554  -3.398   1.259  0.00  0.00    +0.244 C 
ATOM      3  C   LIG    1        3.755  -2.729   0.159  0.00  0.00    +0.169 C 
ATOM      4  C   LIG    1        3.722  -3.634  -1.078  0.00  0.00    +0.069 C 
ATOM      5  C   LIG    1        2.488  -3.329  -1.889  0.00  0.00    -0.015 A 
ATOM      6  C   LIG    1        2.249  -3.648  -3.284  0.00  0.00    +0.003 A 
ATOM      7  C   LIG    1        3.027  -4.288  -4.254  0.00  0.00    +0.010 A 
ATOM      8  C   LIG    1        2.472  -4.425  -5.502  0.00  0.00    +0.001 A 
ATOM      9  C   LIG    1        1.202  -3.956  -5.799  0.00  0.00    +0.002 A 
ATOM     10  C   LIG    1        0.411  -3.319  -4.859  0.00  0.00    +0.026 A 
ATOM     11  C   LIG    1        0.949  -3.166  -3.582  0.00  0.00    +0.047 A 
ATOM     12  N   LIG    1        0.456  -2.599  -2.443  0.00  0.00    -0.356 N 
ATOM     13  H   LIG    1       -0.419  -2.189  -2.356  0.00  0.00    +0.166 HD
ATOM     14  C   LIG    1        1.379  -2.699  -1.440  0.00  0.00    +0.046 A 
ATOM     15  C   LIG    1        1.226  -2.187  -0.021  0.00  0.00    +0.155 C 
ATOM     16  N   LIG    1        2.389  -2.682   0.726  0.00  0.00    -0.261 N 
ATOM     17  O   LIG    1        5.729  -3.695   1.231  0.00  0.00    -0.273 OA
ATOM     18  C   LIG    1        2.457  -3.166   1.967  0.00  0.00    +0.313 C 
ATOM     19  O   LIG    1        1.513  -3.212   2.731  0.00  0.00    -0.252 OA
ENDROOT
BRANCH  15  20
ATOM     20  C   LIG    1        1.208  -0.680  -0.013  0.00  0.00    -0.021 A 
ATOM     21  C   LIG    1        0.062  -0.005   0.364  0.00  0.00    +0.009 A 
ATOM     22  C   LIG    1        0.043   1.376   0.373  0.00  0.00    +0.046 A 
ATOM     23  C   LIG    1        1.176   2.086   0.002  0.00  0.00    +0.120 A 
ATOM     24  C   LIG    1        2.325   1.406  -0.376  0.00  0.00    +0.046 A 
ATOM     25  C   LIG    1        2.338   0.025  -0.383  0.00  0.00    +0.009 A 
BRANCH  23  26
ATOM     26  O   LIG    1        1.160   3.445   0.009  0.00  0.00    -0.495 OA
ATOM     27  C   LIG    1        2.363   4.110  -0.384  0.00  0.00    +0.277 C 
ENDBRANCH  23  26
ENDBRANCH  15  20
BRANCH   1  28
ATOM     28  C   LIG    1        4.051  -4.208   3.556  0.00  0.00    +0.118 C 
BRANCH  28  29
ATOM     29  C   LIG    1        3.855  -5.723   3.473  0.00  0.00    +0.019 C 
BRANCH  29  31
ATOM     30  C   LIG    1        4.036  -7.875   4.727  0.00  0.00    +0.004 C 
ATOM     31  C   LIG    1        4.233  -6.360   4.811  0.00  0.00    -0.002 C 
ENDBRANCH  29  31
ENDBRANCH  28  29
ENDBRANCH   1  28
TORSDOF 5
