REMARK  Name = ZINC03913937
REMARK                            x       y       z     vdW  Elec       q    Type
REMARK                         _______ _______ _______ _____ _____    ______ ____
ROOT
ATOM      1  CA  LIG    1        2.971  -2.243   6.914  0.00  0.00    +0.191 C 
ENDROOT
BRANCH   1   7
ATOM      2  N   LIG    1        0.608   0.402   1.625  0.00  0.00    -0.293 N 
ATOM      3  C   LIG    1        0.003   0.110   2.925  0.00  0.00    +0.127 C 
ATOM      4  C   LIG    1        0.671  -1.103   3.566  0.00  0.00    +0.137 C 
ATOM      5  N   LIG    1        2.125  -0.939   3.584  0.00  0.00    -0.217 N 
ATOM      6  C   LIG    1        2.838  -1.376   4.641  0.00  0.00    +0.310 C 
ATOM      7  N   LIG    1        2.204  -1.873   5.722  0.00  0.00    -0.284 N 
ATOM      8  H   LIG    1        1.241  -1.986   5.710  0.00  0.00    +0.151 HD
ATOM      9  O   LIG    1        4.052  -1.321   4.620  0.00  0.00    -0.252 OA
ATOM     10  C   LIG    1        2.753  -0.351   2.546  0.00  0.00    +0.309 C 
ATOM     11  O   LIG    1        3.965  -0.309   2.505  0.00  0.00    -0.264 OA
ATOM     12  C   LIG    1        1.934   0.243   1.444  0.00  0.00    +0.302 C 
ATOM     13  O   LIG    1        2.458   0.581   0.403  0.00  0.00    -0.265 OA
BRANCH   2  15
ATOM     14  C   LIG    1       -0.742  -0.345  -0.273  0.00  0.00    +0.024 C 
ATOM     15  C   LIG    1       -0.231   0.863   0.516  0.00  0.00    +0.105 C 
ENDBRANCH   2  15
ENDBRANCH   1   7
BRANCH   1  16
ATOM     16  C   LIG    1        3.498  -3.646   6.757  0.00  0.00    -0.018 A 
ATOM     17  C   LIG    1        2.707  -4.622   6.179  0.00  0.00    +0.006 A 
ATOM     18  C   LIG    1        3.190  -5.908   6.035  0.00  0.00    +0.000 A 
ATOM     19  C   LIG    1        4.466  -6.220   6.468  0.00  0.00    +0.000 A 
ATOM     20  C   LIG    1        5.258  -5.245   7.045  0.00  0.00    +0.000 A 
ATOM     21  C   LIG    1        4.775  -3.957   7.185  0.00  0.00    +0.006 A 
ENDBRANCH   1  16
BRANCH   1  22
ATOM     22  C   LIG    1        2.078  -2.175   8.126  0.00  0.00    +0.239 C 
ATOM     23  N   LIG    1        2.571  -2.476   9.344  0.00  0.00    -0.300 N 
ATOM     24  H   LIG    1        3.500  -2.737   9.440  0.00  0.00    +0.150 HD
ATOM     25  O   LIG    1        0.916  -1.850   8.006  0.00  0.00    -0.273 OA
BRANCH  23  26
ATOM     26  CA  LIG    1        1.703  -2.410  10.523  0.00  0.00    +0.190 C 
ATOM     27  C   LIG    1        2.174  -3.295  11.671  0.00  0.00    +0.165 C 
ATOM     28  N   LIG    1        2.591  -2.019  12.289  0.00  0.00    -0.271 N 
ATOM     29  CA  LIG    1        4.038  -1.824  12.439  0.00  0.00    +0.201 C 
ATOM     30  C   LIG    1        4.793  -3.178  12.545  0.00  0.00    +0.042 C 
ATOM     31  C   LIG    1        4.720  -3.753  13.961  0.00  0.00    +0.025 C 
ATOM     32  C   LIG    1        6.241  -3.054  12.067  0.00  0.00    +0.025 C 
ATOM     33  S   LIG    1        3.756  -4.175  11.352  0.00  0.00    -0.127 S 
ATOM     34  C   LIG    1        1.965  -1.205  11.392  0.00  0.00    +0.240 C 
ATOM     35  O   LIG    1        1.722  -0.019  11.322  0.00  0.00    -0.273 OA
BRANCH  29  36
ATOM     36  C   LIG    1        4.299  -1.019  13.686  0.00  0.00    +0.327 C 
ATOM     37  O   LIG    1        3.387  -0.780  14.459  0.00  0.00    -0.249 OA
BRANCH  36  38
ATOM     38  OXT LIG    1        5.421  -0.607  13.921  0.00  0.00    -0.479 OA
ATOM     39  HXT LIG    1        6.122  -0.790  13.327  0.00  0.00    +0.295 HD
ENDBRANCH  36  38
ENDBRANCH  29  36
ENDBRANCH  23  26
ENDBRANCH   1  22
TORSDOF 7
