REMARK  Name = ZINC03874886
REMARK                            x       y       z     vdW  Elec       q    Type
REMARK                         _______ _______ _______ _____ _____    ______ ____
ROOT
ATOM      1  C   LIG    1        0.790  -2.842  -3.096  0.00  0.00    +0.041 A 
ATOM      2  C   LIG    1        1.289  -1.774  -3.829  0.00  0.00    +0.134 A 
ATOM      3  C   LIG    1        2.592  -1.823  -4.332  0.00  0.00    +0.059 A 
ATOM      4  C   LIG    1        3.395  -2.944  -4.100  0.00  0.00    +0.147 A 
ATOM      5  O   LIG    1        4.654  -2.965  -4.600  0.00  0.00    -0.481 OA
ATOM      6  C   LIG    1        4.868  -2.310  -5.851  0.00  0.00    +0.124 C 
ATOM      7  C   LIG    1        4.235  -3.140  -6.970  0.00  0.00    +0.060 C 
ATOM      8  C   LIG    1        6.372  -2.186  -6.105  0.00  0.00    +0.060 C 
ATOM      9  C   LIG    1        4.251  -0.937  -5.841  0.00  0.00    +0.020 C 
ATOM     10  C   LIG    1        2.888  -4.018  -3.360  0.00  0.00    +0.106 A 
ATOM     11  C   LIG    1        3.156  -0.705  -5.118  0.00  0.00    +0.015 C 
ATOM     12  C   LIG    1        1.576  -3.954  -2.855  0.00  0.00    +0.138 A 
ENDROOT
BRANCH   2  13
ATOM     13  O   LIG    1        0.513  -0.685  -4.057  0.00  0.00    -0.506 OA
ATOM     14  H   LIG    1        0.645   0.033  -3.422  0.00  0.00    +0.292 HD
ENDBRANCH   2  13
BRANCH  10  15
ATOM     15  C   LIG    1        3.722  -5.203  -3.107  0.00  0.00    +0.193 C 
ATOM     16  O   LIG    1        3.777  -6.097  -3.934  0.00  0.00    -0.287 OA
BRANCH  15  17
ATOM     17  C   LIG    1        4.486  -5.309  -1.863  0.00  0.00    +0.052 C 
ATOM     18  C   LIG    1        5.329  -6.346  -1.675  0.00  0.00    +0.012 C 
BRANCH  18  19
ATOM     19  C   LIG    1        6.098  -6.453  -0.424  0.00  0.00    -0.025 A 
ATOM     20  C   LIG    1        5.952  -5.485   0.575  0.00  0.00    +0.008 A 
ATOM     21  C   LIG    1        6.675  -5.592   1.744  0.00  0.00    +0.001 A 
ATOM     22  C   LIG    1        7.543  -6.654   1.930  0.00  0.00    +0.000 A 
ATOM     23  C   LIG    1        7.693  -7.615   0.946  0.00  0.00    +0.001 A 
ATOM     24  C   LIG    1        6.973  -7.526  -0.226  0.00  0.00    +0.008 A 
ENDBRANCH  18  19
ENDBRANCH  15  17
ENDBRANCH  10  15
BRANCH  12  25
ATOM     25  O   LIG    1        1.080  -4.989  -2.132  0.00  0.00    -0.506 OA
ATOM     26  H   LIG    1        0.735  -5.714  -2.671  0.00  0.00    +0.292 HD
ENDBRANCH  12  25
BRANCH   1  27
ATOM     27  C   LIG    1       -0.615  -2.786  -2.554  0.00  0.00    +0.085 C 
BRANCH  27  31
ATOM     28  C   LIG    1       -3.206  -6.880  -3.844  0.00  0.00    +0.051 C 
ATOM     29  C   LIG    1       -2.796  -5.458  -4.126  0.00  0.00    +0.034 A 
ATOM     30  C   LIG    1       -1.935  -4.800  -3.256  0.00  0.00    +0.130 A 
ATOM     31  C   LIG    1       -1.549  -3.489  -3.506  0.00  0.00    +0.041 A 
ATOM     32  C   LIG    1       -2.019  -2.826  -4.624  0.00  0.00    +0.138 A 
ATOM     33  C   LIG    1       -2.890  -3.484  -5.512  0.00  0.00    +0.101 A 
ATOM     34  C   LIG    1       -3.272  -4.815  -5.253  0.00  0.00    +0.137 A 
BRANCH  33  35
ATOM     35  C   LIG    1       -3.393  -2.793  -6.697  0.00  0.00    +0.167 C 
ATOM     36  C   LIG    1       -4.614  -1.915  -6.596  0.00  0.00    +0.092 C 
ATOM     37  O   LIG    1       -2.827  -2.925  -7.763  0.00  0.00    -0.292 OA
ENDBRANCH  33  35
BRANCH  30  38
ATOM     38  O   LIG    1       -1.469  -5.441  -2.155  0.00  0.00    -0.506 OA
ATOM     39  H   LIG    1       -0.707  -6.012  -2.326  0.00  0.00    +0.292 HD
ENDBRANCH  30  38
BRANCH  32  40
ATOM     40  O   LIG    1       -1.641  -1.546  -4.865  0.00  0.00    -0.506 OA
ATOM     41  H   LIG    1       -0.839  -1.467  -5.399  0.00  0.00    +0.292 HD
ENDBRANCH  32  40
BRANCH  34  42
ATOM     42  O   LIG    1       -4.107  -5.461  -6.103  0.00  0.00    -0.506 OA
ATOM     43  H   LIG    1       -5.044  -5.356  -5.889  0.00  0.00    +0.292 HD
ENDBRANCH  34  42
ENDBRANCH  27  31
ENDBRANCH   1  27
TORSDOF 11
