REMARK  Name = ZINC03873119
REMARK                            x       y       z     vdW  Elec       q    Type
REMARK                         _______ _______ _______ _____ _____    ______ ____
ROOT
ATOM      1  N   LIG    1        1.259  -2.781   2.053  0.00  0.00    -0.284 N 
ATOM      2  H   LIG    1        1.710  -2.294   2.759  0.00  0.00    +0.155 HD
ENDROOT
BRANCH   1   3
ATOM      3  C   LIG    1        1.188  -4.178   2.100  0.00  0.00    +0.049 A 
ATOM      4  C   LIG    1        1.193  -4.915   0.924  0.00  0.00    +0.039 A 
ATOM      5  C   LIG    1        1.123  -6.295   0.975  0.00  0.00    +0.020 A 
ATOM      6 BR   LIG    1        1.128  -7.300  -0.626  0.00  0.00    -0.050 Br
ATOM      7  C   LIG    1        1.048  -6.941   2.196  0.00  0.00    +0.016 A 
ATOM      8  C   LIG    1        1.042  -6.209   3.369  0.00  0.00    +0.018 A 
ATOM      9  C   LIG    1        1.118  -4.830   3.326  0.00  0.00    +0.039 A 
ATOM     10 BR   LIG    1        1.120  -3.830   4.931  0.00  0.00    -0.048 Br
ENDBRANCH   1   3
BRANCH   1  12
ATOM     11  C   LIG    1        0.873  -0.725   0.899  0.00  0.00    +0.151 C 
ATOM     12  C   LIG    1        0.694  -2.107   1.014  0.00  0.00    +0.203 C 
BRANCH  11  14
ATOM     13  C   LIG    1        0.482   1.463  -0.301  0.00  0.00    +0.092 C 
ATOM     14  C   LIG    1        0.288  -0.027  -0.176  0.00  0.00    +0.175 C 
ATOM     15  O   LIG    1       -0.372  -0.625  -1.002  0.00  0.00    -0.291 OA
ENDBRANCH  11  14
BRANCH  12  16
ATOM     16  O   LIG    1       -0.037  -2.770   0.099  0.00  0.00    -0.494 OA
ATOM     17  H   LIG    1       -0.426  -2.305  -0.615  0.00  0.00    +0.294 HD
ENDBRANCH  12  16
BRANCH  11  18
ATOM     18  C   LIG    1        1.651  -0.020   1.872  0.00  0.00    +0.108 C 
ATOM     19  N   LIG    1        2.269   0.539   2.645  0.00  0.00    -0.191 NA
ENDBRANCH  11  18
ENDBRANCH   1  12
TORSDOF 5
