REMARK  Name = ZINC04023085
REMARK                            x       y       z     vdW  Elec       q    Type
REMARK                         _______ _______ _______ _____ _____    ______ ____
ROOT
ATOM      1  C   LIG    1        1.867   1.825   1.204  0.00  0.00    +0.065 A 
ATOM      2  C   LIG    1        3.139   2.406   1.188  0.00  0.00    +0.132 A 
ATOM      3  C   LIG    1        3.748   2.697  -0.021  0.00  0.00    +0.091 A 
ATOM      4  C   LIG    1        3.100   2.410  -1.214  0.00  0.00    +0.124 A 
ATOM      5  C   LIG    1        1.841   1.829  -1.204  0.00  0.00    +0.091 A 
ATOM      6  C   LIG    1        1.222   1.532  -0.001  0.00  0.00    +0.132 A 
ENDROOT
BRANCH   1   8
ATOM      7  C   LIG    1        1.759   0.561   3.349  0.00  0.00    +0.054 A 
ATOM      8  C   LIG    1        1.208   1.514   2.495  0.00  0.00    -0.004 A 
ATOM      9  C   LIG    1        0.039   2.179   2.860  0.00  0.00    +0.054 A 
ATOM     10  C   LIG    1       -0.578   1.883   4.064  0.00  0.00    +0.121 A 
ATOM     11  C   LIG    1       -0.027   0.933   4.912  0.00  0.00    +0.090 A 
ATOM     12  C   LIG    1        1.140   0.273   4.555  0.00  0.00    +0.121 A 
BRANCH  10  13
ATOM     13  O   LIG    1       -1.721   2.528   4.418  0.00  0.00    -0.507 OA
ATOM     14  H   LIG    1       -1.574   3.344   4.916  0.00  0.00    +0.292 HD
ENDBRANCH  10  13
BRANCH  12  15
ATOM     15  O   LIG    1        1.676  -0.656   5.388  0.00  0.00    -0.507 OA
ATOM     16  H   LIG    1        2.308  -0.296   6.025  0.00  0.00    +0.292 HD
ENDBRANCH  12  15
ENDBRANCH   1   8
BRANCH   2  17
ATOM     17  O   LIG    1        3.773   2.688   2.355  0.00  0.00    -0.506 OA
ATOM     18  H   LIG    1        3.587   3.571   2.700  0.00  0.00    +0.292 HD
ENDBRANCH   2  17
BRANCH   4  19
ATOM     19  O   LIG    1        3.703   2.699  -2.397  0.00  0.00    -0.507 OA
ATOM     20  H   LIG    1        3.507   3.585  -2.733  0.00  0.00    +0.292 HD
ENDBRANCH   4  19
BRANCH   6  21
ATOM     21  O   LIG    1       -0.011   0.963   0.007  0.00  0.00    -0.506 OA
ATOM     22  H   LIG    1        0.002  -0.004   0.002  0.00  0.00    +0.292 HD
ENDBRANCH   6  21
TORSDOF 6
