REMARK  Name = ZINC03929508
REMARK                            x       y       z     vdW  Elec       q    Type
REMARK                         _______ _______ _______ _____ _____    ______ ____
ROOT
ATOM      1  C   LIG    1        0.759   0.100  -3.578  0.00  0.00    +0.161 C 
ATOM      2  C   LIG    1        1.177   1.541  -3.627  0.00  0.00    +0.016 C 
ATOM      3  C   LIG    1        1.166   2.269  -4.723  0.00  0.00    +0.034 C 
ATOM      4  C   LIG    1        0.725   1.755  -6.062  0.00  0.00    +0.028 C 
ATOM      5  C   LIG    1        0.712   0.225  -6.061  0.00  0.00    -0.047 C 
ATOM      6  C   LIG    1       -0.057  -0.251  -4.823  0.00  0.00    +0.091 C 
ENDROOT
BRANCH   6   7
ATOM      7  N   LIG    1       -0.248  -1.702  -4.894  0.00  0.00    -0.311 N 
ATOM      8  H   LIG    1        0.357  -2.246  -5.422  0.00  0.00    +0.149 HD
ATOM      9  C   LIG    1       -1.264  -2.282  -4.224  0.00  0.00    +0.210 C 
ATOM     10  C   LIG    1       -1.460  -3.774  -4.297  0.00  0.00    +0.109 C 
ATOM     11  O   LIG    1       -2.021  -1.602  -3.564  0.00  0.00    -0.276 OA
ENDBRANCH   6   7
BRANCH   5  12
ATOM     12  N   LIG    1        0.050  -0.265  -7.277  0.00  0.00    +0.381 N 
ATOM     13  H   LIG    1       -0.898   0.079  -7.305  0.00  0.00    -0.090 HD
ATOM     14  H   LIG    1        0.043  -1.274  -7.274  0.00  0.00    -0.090 HD
ATOM     15  H   LIG    1        0.551   0.065  -8.089  0.00  0.00    -0.090 HD
ENDBRANCH   5  12
BRANCH   3  16
ATOM     16  C   LIG    1        1.611   3.667  -4.630  0.00  0.00    +0.335 C 
ATOM     17  O   LIG    1        1.975   4.119  -3.563  0.00  0.00    -0.245 OA
BRANCH  16  18
ATOM     18  O   LIG    1        1.615   4.447  -5.730  0.00  0.00    -0.462 OA
BRANCH  18  19
ATOM     19  C   LIG    1        2.059   5.795  -5.566  0.00  0.00    +0.229 C 
ATOM     20  C   LIG    1        1.994   6.520  -6.912  0.00  0.00    +0.048 C 
ENDBRANCH  18  19
ENDBRANCH  16  18
ENDBRANCH   3  16
BRANCH   1  21
ATOM     21  O   LIG    1       -0.036  -0.123  -2.412  0.00  0.00    -0.368 OA
BRANCH  21  22
ATOM     22  C   LIG    1        0.718  -0.497  -1.257  0.00  0.00    +0.119 C 
BRANCH  22  24
ATOM     23  C   LIG    1       -0.019   1.526   0.010  0.00  0.00    +0.006 C 
ATOM     24  C   LIG    1        0.002  -0.004   0.002  0.00  0.00    +0.028 C 
ENDBRANCH  22  24
BRANCH  22  25
ATOM     25  C   LIG    1        0.849  -2.021  -1.205  0.00  0.00    +0.028 C 
ATOM     26  C   LIG    1        1.673  -2.503  -2.400  0.00  0.00    +0.006 C 
ENDBRANCH  22  25
ENDBRANCH  21  22
ENDBRANCH   1  21
TORSDOF 9
