REMARK  Name = ZINC03988394
REMARK                            x       y       z     vdW  Elec       q    Type
REMARK                         _______ _______ _______ _____ _____    ______ ____
ROOT
ATOM      1  P   LIG    1      -10.747  -0.182   1.863  0.00  0.00    +0.278 P 
ATOM      2  O   LIG    1      -10.427  -0.514   3.269  0.00  0.00    -0.279 OA
ENDROOT
BRANCH   1   3
ATOM      3  C   LIG    1       -9.727  -1.194   0.756  0.00  0.00    +0.193 A 
ATOM      4  C   LIG    1      -10.095  -2.363   0.198  0.00  0.00    +0.056 A 
ATOM      5  C   LIG    1       -9.010  -2.808  -0.585  0.00  0.00    +0.052 A 
ATOM      6  C   LIG    1       -8.029  -1.875  -0.461  0.00  0.00    +0.155 A 
ATOM      7  O   LIG    1       -8.475  -0.904   0.360  0.00  0.00    -0.448 OA
BRANCH   6   8
ATOM      8  C   LIG    1       -6.702  -1.920  -1.108  0.00  0.00    +0.118 A 
ATOM      9  C   LIG    1       -6.147  -0.784  -1.631  0.00  0.00    +0.022 A 
ATOM     10  S   LIG    1       -4.596  -1.424  -2.250  0.00  0.00    -0.057 S 
ATOM     11  C   LIG    1       -4.843  -3.126  -1.763  0.00  0.00    +0.156 A 
ATOM     12  N   LIG    1       -6.030  -3.068  -1.188  0.00  0.00    -0.222 NA
BRANCH  11  13
ATOM     13  N   LIG    1       -4.006  -4.216  -1.937  0.00  0.00    -0.337 N 
ATOM     14  H   LIG    1       -3.154  -4.107  -2.387  0.00  0.00    +0.144 HD
ATOM     15  H   LIG    1       -4.275  -5.090  -1.612  0.00  0.00    +0.144 HD
ENDBRANCH  11  13
BRANCH   9  16
ATOM     16  C   LIG    1       -6.691   0.620  -1.671  0.00  0.00    +0.047 C 
BRANCH  16  17
ATOM     17  C   LIG    1       -6.246   1.375  -0.416  0.00  0.00    -0.012 C 
ATOM     18  C   LIG    1       -6.901   2.757  -0.393  0.00  0.00    +0.007 C 
ATOM     19  C   LIG    1       -4.724   1.532  -0.429  0.00  0.00    +0.007 C 
ENDBRANCH  16  17
ENDBRANCH   9  16
ENDBRANCH   6   8
ENDBRANCH   1   3
BRANCH   1  20
ATOM     20  N   LIG    1      -10.431   1.447   1.585  0.00  0.00    -0.236 NA
ATOM     21  H   LIG    1       -9.438   1.619   1.529  0.00  0.00    +0.132 HD
BRANCH  20  22
ATOM     22  C   LIG    1      -11.053   2.288   2.615  0.00  0.00    +0.167 C 
ATOM     23  C   LIG    1      -10.017   2.632   3.687  0.00  0.00    +0.036 C 
BRANCH  22  24
ATOM     24  C   LIG    1      -11.566   3.558   1.986  0.00  0.00    +0.324 C 
ATOM     25  O   LIG    1      -10.980   4.047   1.049  0.00  0.00    -0.249 OA
BRANCH  24  26
ATOM     26  O   LIG    1      -12.673   4.145   2.466  0.00  0.00    -0.464 OA
BRANCH  26  28
ATOM     27  C   LIG    1      -14.371   5.891   2.488  0.00  0.00    +0.048 C 
ATOM     28  C   LIG    1      -13.176   5.298   1.740  0.00  0.00    +0.229 C 
ENDBRANCH  26  28
ENDBRANCH  24  26
ENDBRANCH  22  24
ENDBRANCH  20  22
ENDBRANCH   1  20
BRANCH   1  29
ATOM     29  N   LIG    1      -12.374  -0.496   1.569  0.00  0.00    -0.236 NA
ATOM     30  H   LIG    1      -12.659  -0.121   0.677  0.00  0.00    +0.132 HD
BRANCH  29  31
ATOM     31  C   LIG    1      -13.215   0.028   2.654  0.00  0.00    +0.167 C 
ATOM     32  C   LIG    1      -14.061   1.190   2.127  0.00  0.00    +0.036 C 
BRANCH  31  33
ATOM     33  C   LIG    1      -14.122  -1.064   3.159  0.00  0.00    +0.324 C 
ATOM     34  O   LIG    1      -14.073  -2.166   2.667  0.00  0.00    -0.249 OA
BRANCH  33  35
ATOM     35  O   LIG    1      -14.985  -0.813   4.157  0.00  0.00    -0.464 OA
BRANCH  35  36
ATOM     36  C   LIG    1      -15.827  -1.912   4.592  0.00  0.00    +0.229 C 
ATOM     37  C   LIG    1      -16.737  -1.438   5.728  0.00  0.00    +0.048 C 
ENDBRANCH  35  36
ENDBRANCH  33  35
ENDBRANCH  31  33
ENDBRANCH  29  31
ENDBRANCH   1  29
TORSDOF 15
