REMARK  Name = ZINC04096261
REMARK                            x       y       z     vdW  Elec       q    Type
REMARK                         _______ _______ _______ _____ _____    ______ ____
ROOT
ATOM      1  C   LIG    1        1.185  -1.849   1.161  0.00  0.00    +0.200 C 
ENDROOT
BRANCH   1   2
ATOM      2  C   LIG    1        2.279  -2.874   1.010  0.00  0.00    +0.241 C 
ATOM      3  N   LIG    1        2.153  -3.865   0.104  0.00  0.00    -0.288 N 
ATOM      4  C   LIG    1        1.058  -4.002  -0.873  0.00  0.00    +0.109 C 
ATOM      5  C   LIG    1        1.655  -4.854  -2.021  0.00  0.00    +0.021 C 
ATOM      6  C   LIG    1        2.552  -5.848  -1.237  0.00  0.00    +0.033 C 
ATOM      7  C   LIG    1        3.090  -4.984  -0.077  0.00  0.00    +0.161 C 
ATOM      8  O   LIG    1        3.272  -2.808   1.702  0.00  0.00    -0.273 OA
BRANCH   7   9
ATOM      9  C   LIG    1        4.459  -4.456  -0.418  0.00  0.00    +0.201 C 
ATOM     10  N   LIG    1        5.507  -5.162  -0.155  0.00  0.00    -0.270 NA
ATOM     11  H   LIG    1        6.388  -4.823  -0.375  0.00  0.00    +0.190 HD
BRANCH   9  12
ATOM     12  O   LIG    1        4.590  -3.246  -1.000  0.00  0.00    -0.494 OA
ATOM     13  H   LIG    1        5.506  -2.994  -1.181  0.00  0.00    +0.293 HD
ENDBRANCH   9  12
ENDBRANCH   7   9
ENDBRANCH   1   2
BRANCH   1  14
ATOM     14  N   LIG    1        1.200  -1.317   2.526  0.00  0.00    -0.240 NA
ATOM     15  C   LIG    1        0.161  -1.446   3.280  0.00  0.00    +0.209 C 
BRANCH  15  16
ATOM     16  C   LIG    1        0.177  -0.898   4.684  0.00  0.00    +0.194 C 
ATOM     17  C   LIG    1       -0.995   0.090   4.888  0.00  0.00    +0.046 C 
ATOM     18  C   LIG    1       -0.331   1.149   5.800  0.00  0.00    +0.097 C 
ATOM     19  C   LIG    1        1.146   1.003   5.509  0.00  0.00    +0.183 C 
ATOM     20  N   LIG    1        1.392  -0.107   4.909  0.00  0.00    -0.242 NA
BRANCH  19  21
ATOM     21  O   LIG    1        2.083   1.916   5.838  0.00  0.00    -0.496 OA
ATOM     22  H   LIG    1        2.982   1.668   5.580  0.00  0.00    +0.293 HD
ENDBRANCH  19  21
ENDBRANCH  15  16
BRANCH  15  23
ATOM     23  O   LIG    1       -0.939  -2.071   2.812  0.00  0.00    -0.494 OA
ATOM     24  H   LIG    1       -1.665  -2.119   3.448  0.00  0.00    +0.293 HD
ENDBRANCH  15  23
ENDBRANCH   1  14
BRANCH   1  25
ATOM     25  C   LIG    1        1.414  -0.708   0.167  0.00  0.00    +0.093 C 
BRANCH  25  31
ATOM     26  C   LIG    1        0.357   1.585   0.468  0.00  0.00    +0.107 A 
ATOM     27  N   LIG    1       -0.919   2.080   0.458  0.00  0.00    -0.351 N 
ATOM     28  C   LIG    1       -1.748   1.042   0.218  0.00  0.00    +0.196 A 
ATOM     29  N   LIG    1       -1.034  -0.043   0.091  0.00  0.00    -0.241 NA
ATOM     30  H   LIG    1       -1.179   3.005   0.593  0.00  0.00    +0.166 HD
ATOM     31  C   LIG    1        0.263   0.261   0.240  0.00  0.00    +0.061 A 
ENDBRANCH  25  31
ENDBRANCH   1  25
TORSDOF 9
