REMARK  Name = ZINC03995738
REMARK                            x       y       z     vdW  Elec       q    Type
REMARK                         _______ _______ _______ _____ _____    ______ ____
ROOT
ATOM      1  C   LIG    1        2.694  -1.166   2.334  0.00  0.00    +0.034 A 
ATOM      2  C   LIG    1        1.928  -1.593   3.411  0.00  0.00    +0.025 A 
ATOM      3  C   LIG    1        2.542  -2.137   4.521  0.00  0.00    +0.029 A 
ATOM      4  C   LIG    1        3.919  -2.258   4.562  0.00  0.00    +0.094 A 
ATOM      5  C   LIG    1        4.685  -1.833   3.491  0.00  0.00    +0.029 A 
ATOM      6  C   LIG    1        4.076  -1.294   2.375  0.00  0.00    +0.025 A 
ENDROOT
BRANCH   1   8
ATOM      7  C   LIG    1        2.581  -0.842  -0.020  0.00  0.00    +0.258 C 
ATOM      8  N   LIG    1        2.074  -0.614   1.208  0.00  0.00    -0.283 N 
ATOM      9  H   LIG    1        1.280  -0.067   1.310  0.00  0.00    +0.155 HD
ATOM     10  O   LIG    1        3.620  -1.455  -0.143  0.00  0.00    -0.272 OA
BRANCH   7  12
ATOM     11  C   LIG    1        0.786  -1.347  -1.655  0.00  0.00    +0.061 C 
ATOM     12  C   LIG    1        1.856  -0.335  -1.240  0.00  0.00    +0.234 C 
BRANCH  12  13
ATOM     13  C   LIG    1        2.854  -0.150  -2.386  0.00  0.00    +0.427 C 
ATOM     14  F   LIG    1        3.460  -1.377  -2.679  0.00  0.00    -0.167 F 
ATOM     15  F   LIG    1        3.833   0.774  -2.007  0.00  0.00    -0.167 F 
ATOM     16  F   LIG    1        2.181   0.320  -3.519  0.00  0.00    -0.167 F 
ENDBRANCH  12  13
BRANCH  12  17
ATOM     17  O   LIG    1        1.238   0.918  -0.941  0.00  0.00    -0.373 OA
ATOM     18  H   LIG    1        1.858   1.608  -0.670  0.00  0.00    +0.211 HD
ENDBRANCH  12  17
ENDBRANCH   7  12
ENDBRANCH   1   8
BRANCH   4  19
ATOM     19  S   LIG    1        4.700  -2.953   5.980  0.00  0.00    +0.025 S 
ATOM     20  O   LIG    1        3.804  -2.770   7.067  0.00  0.00    -0.164 OA
ATOM     21  O   LIG    1        6.030  -2.455   5.997  0.00  0.00    -0.164 OA
BRANCH  19  22
ATOM     22  C   LIG    1        4.816  -4.691   5.711  0.00  0.00    +0.094 A 
ATOM     23  C   LIG    1        3.789  -5.523   6.115  0.00  0.00    +0.027 A 
ATOM     24  C   LIG    1        3.881  -6.886   5.904  0.00  0.00    +0.002 A 
ATOM     25  C   LIG    1        5.000  -7.417   5.289  0.00  0.00    +0.000 A 
ATOM     26  C   LIG    1        6.026  -6.584   4.884  0.00  0.00    +0.002 A 
ATOM     27  C   LIG    1        5.933  -5.221   5.091  0.00  0.00    +0.027 A 
ENDBRANCH  19  22
ENDBRANCH   4  19
TORSDOF 6
