REMARK  Name = ZINC04083068
REMARK                            x       y       z     vdW  Elec       q    Type
REMARK                         _______ _______ _______ _____ _____    ______ ____
ROOT
ATOM      1  N   LIG    1        4.152  -0.952   1.338  0.00  0.00    -0.309 N 
ATOM      2  C   LIG    1        4.925  -0.112   2.074  0.00  0.00    +0.068 A 
ATOM      3  C   LIG    1        5.506   1.132   1.816  0.00  0.00    +0.028 A 
ATOM      4  C   LIG    1        6.257   1.752   2.789  0.00  0.00    +0.002 A 
ATOM      5  C   LIG    1        6.442   1.151   4.025  0.00  0.00    +0.002 A 
ATOM      6  C   LIG    1        5.875  -0.078   4.296  0.00  0.00    +0.028 A 
ATOM      7  C   LIG    1        5.115  -0.716   3.328  0.00  0.00    +0.068 A 
ATOM      8  N   LIG    1        4.431  -1.920   3.283  0.00  0.00    -0.311 N 
ATOM      9  C   LIG    1        3.856  -2.013   2.047  0.00  0.00    +0.175 A 
ENDROOT
BRANCH   9  10
ATOM     10  N   LIG    1        3.082  -3.067   1.611  0.00  0.00    -0.330 N 
ATOM     11  H   LIG    1        2.909  -3.818   2.200  0.00  0.00    +0.145 HD
ATOM     12  H   LIG    1        2.711  -3.058   0.715  0.00  0.00    +0.145 HD
ENDBRANCH   9  10
BRANCH   1  13
ATOM     13  C   LIG    1        3.711  -0.707  -0.038  0.00  0.00    +0.160 C 
BRANCH  13  17
ATOM     14  C   LIG    1       -0.017   1.378   0.010  0.00  0.00    +0.000 A 
ATOM     15  C   LIG    1        1.171   2.086   0.002  0.00  0.00    +0.000 A 
ATOM     16  C   LIG    1        2.377   1.411  -0.013  0.00  0.00    +0.005 A 
ATOM     17  C   LIG    1        2.396   0.029  -0.020  0.00  0.00    -0.028 A 
ATOM     18  C   LIG    1        1.208  -0.679  -0.012  0.00  0.00    +0.005 A 
ATOM     19  C   LIG    1        0.002  -0.004   0.002  0.00  0.00    +0.000 A 
ENDBRANCH  13  17
ENDBRANCH   1  13
BRANCH   8  20
ATOM     20  C   LIG    1        4.336  -2.907   4.361  0.00  0.00    +0.159 C 
BRANCH  20  21
ATOM     21  C   LIG    1        3.118  -2.595   5.233  0.00  0.00    +0.172 C 
BRANCH  21  22
ATOM     22  O   LIG    1        1.926  -2.761   4.463  0.00  0.00    -0.387 OA
ATOM     23  H   LIG    1        1.805  -3.655   4.113  0.00  0.00    +0.210 HD
ENDBRANCH  21  22
BRANCH  21  24
ATOM     24  C   LIG    1        3.090  -3.547   6.430  0.00  0.00    +0.262 C 
BRANCH  24  25
ATOM     25  O   LIG    1        2.021  -3.182   7.304  0.00  0.00    -0.489 OA
BRANCH  25  26
ATOM     26  C   LIG    1        1.855  -3.934   8.424  0.00  0.00    +0.121 A 
ATOM     27  C   LIG    1        2.708  -4.997   8.679  0.00  0.00    +0.045 A 
ATOM     28  C   LIG    1        2.539  -5.760   9.819  0.00  0.00    +0.004 A 
ATOM     29  C   LIG    1        1.519  -5.463  10.705  0.00  0.00    +0.000 A 
ATOM     30  C   LIG    1        0.667  -4.404  10.453  0.00  0.00    +0.004 A 
ATOM     31  C   LIG    1        0.837  -3.635   9.318  0.00  0.00    +0.045 A 
ENDBRANCH  25  26
ENDBRANCH  24  25
ENDBRANCH  21  24
ENDBRANCH  20  21
ENDBRANCH   8  20
TORSDOF 9
