REMARK  Name = ZINC03885322
REMARK                            x       y       z     vdW  Elec       q    Type
REMARK                         _______ _______ _______ _____ _____    ______ ____
ROOT
ATOM      1  C   LIG    1       -1.884  -1.109  -1.669  0.00  0.00    +0.108 A 
ATOM      2  C   LIG    1       -2.674  -0.178  -2.319  0.00  0.00    +0.030 A 
ATOM      3  C   LIG    1       -3.038  -0.380  -3.636  0.00  0.00    +0.024 A 
ATOM      4  C   LIG    1       -2.611  -1.513  -4.306  0.00  0.00    +0.071 A 
ATOM      5 CL   LIG    1       -3.068  -1.766  -5.962  0.00  0.00    -0.081 Cl
ATOM      6  C   LIG    1       -1.821  -2.443  -3.656  0.00  0.00    +0.142 A 
ATOM      7  C   LIG    1       -1.454  -2.239  -2.339  0.00  0.00    +0.062 A 
ENDROOT
BRANCH   1   8
ATOM      8  S   LIG    1       -1.421  -0.852   0.011  0.00  0.00    +0.060 S 
ATOM      9  O   LIG    1       -2.401   0.008   0.576  0.00  0.00    -0.153 OA
ATOM     10  O   LIG    1       -1.127  -2.132   0.552  0.00  0.00    -0.153 OA
BRANCH   8  12
ATOM     11  C   LIG    1       -0.018   1.461   0.010  0.00  0.00    +0.131 C 
ATOM     12  N   LIG    1        0.002  -0.004   0.002  0.00  0.00    -0.183 NA
ATOM     13  C   LIG    1        1.281  -0.719  -0.014  0.00  0.00    +0.131 C 
ENDBRANCH   8  12
ENDBRANCH   1   8
BRANCH   6  14
ATOM     14  N   LIG    1       -1.364  -3.656  -4.372  0.00  0.00    +0.007 N 
ATOM     15  O   LIG    1       -0.674  -4.469  -3.804  0.00  0.00    -0.130 OA
BRANCH  14  16
ATOM     16  O   LIG    1       -1.682  -3.833  -5.525  0.00  0.00    -0.396 OA
ATOM     17  H   LIG    1       -2.217  -3.202  -5.965  0.00  0.00    +0.329 HD
ENDBRANCH  14  16
ENDBRANCH   6  14
TORSDOF 4
