REMARK  Name = ZINC04019695
REMARK                            x       y       z     vdW  Elec       q    Type
REMARK                         _______ _______ _______ _____ _____    ______ ____
ROOT
ATOM      1  C   LIG    1        2.786  -1.911   4.663  0.00  0.00    +0.141 A 
ATOM      2  N   LIG    1        2.255  -2.719   5.622  0.00  0.00    -0.332 N 
ATOM      3  C   LIG    1        3.249  -2.937   6.556  0.00  0.00    +0.149 A 
ATOM      4  C   LIG    1        4.367  -2.237   6.113  0.00  0.00    +0.168 A 
ATOM      5  N   LIG    1        5.527  -2.282   6.870  0.00  0.00    -0.280 N 
ATOM      6  C   LIG    1        6.718  -1.554   6.427  0.00  0.00    +0.155 C 
ATOM      7  C   LIG    1        5.560  -2.994   8.013  0.00  0.00    +0.333 A 
ATOM      8  N   LIG    1        4.488  -3.675   8.452  0.00  0.00    -0.262 N 
ATOM      9  C   LIG    1        4.577  -4.433   9.702  0.00  0.00    +0.157 C 
ATOM     10  O   LIG    1        6.587  -3.021   8.664  0.00  0.00    -0.246 OA
ATOM     11  C   LIG    1        3.330  -3.670   7.759  0.00  0.00    +0.282 A 
ATOM     12  O   LIG    1        2.365  -4.292   8.167  0.00  0.00    -0.265 OA
ATOM     13  H   LIG    1        1.352  -3.073   5.645  0.00  0.00    +0.168 HD
ATOM     14  N   LIG    1        4.040  -1.640   4.967  0.00  0.00    -0.210 NA
ENDROOT
BRANCH   1  18
ATOM     15  C   LIG    1        0.731  -0.503   1.223  0.00  0.00    -0.045 A 
ATOM     16  C   LIG    1        2.051  -0.146   1.431  0.00  0.00    +0.004 A 
ATOM     17  C   LIG    1        2.724  -0.600   2.546  0.00  0.00    +0.012 A 
ATOM     18  C   LIG    1        2.070  -1.421   3.466  0.00  0.00    +0.017 A 
ATOM     19  C   LIG    1        0.738  -1.778   3.250  0.00  0.00    +0.012 A 
ATOM     20  C   LIG    1        0.075  -1.312   2.134  0.00  0.00    +0.004 A 
BRANCH  15  22
ATOM     21  C   LIG    1       -0.019   1.526   0.010  0.00  0.00    +0.012 C 
ATOM     22  C   LIG    1        0.002  -0.004   0.002  0.00  0.00    +0.013 C 
ATOM     23  C   LIG    1        0.718  -0.497  -1.257  0.00  0.00    +0.012 C 
ENDBRANCH  15  22
ENDBRANCH   1  18
TORSDOF 2
