REMARK  Name = ZINC03963017
REMARK                            x       y       z     vdW  Elec       q    Type
REMARK                         _______ _______ _______ _____ _____    ______ ____
ROOT
ATOM      1  C   LIG    1        7.511  -2.842   4.263  0.00  0.00    +0.012 A 
ATOM      2  C   LIG    1        7.631  -1.965   5.290  0.00  0.00    +0.097 A 
ATOM      3  N   LIG    1        8.142  -2.607   6.385  0.00  0.00    -0.328 N 
ATOM      4  C   LIG    1        8.368  -3.926   6.099  0.00  0.00    +0.147 A 
ATOM      5  N   LIG    1        8.844  -4.957   6.796  0.00  0.00    -0.218 NA
ATOM      6  C   LIG    1        8.938  -6.151   6.250  0.00  0.00    +0.225 A 
ATOM      7  N   LIG    1        8.589  -6.393   5.000  0.00  0.00    -0.220 NA
ATOM      8  C   LIG    1        8.108  -5.426   4.224  0.00  0.00    +0.129 A 
ATOM      9  C   LIG    1        7.980  -4.140   4.765  0.00  0.00    +0.066 A 
ENDROOT
BRANCH   1  14
ATOM     10  C   LIG    1        5.319  -1.605   1.466  0.00  0.00    +0.122 A 
ATOM     11  C   LIG    1        6.048  -2.007   0.356  0.00  0.00    +0.046 A 
ATOM     12  C   LIG    1        7.246  -2.678   0.516  0.00  0.00    +0.004 A 
ATOM     13  C   LIG    1        7.725  -2.951   1.781  0.00  0.00    +0.009 A 
ATOM     14  C   LIG    1        6.999  -2.550   2.902  0.00  0.00    -0.012 A 
ATOM     15  C   LIG    1        5.794  -1.870   2.740  0.00  0.00    +0.054 A 
BRANCH  10  16
ATOM     16  O   LIG    1        4.141  -0.946   1.304  0.00  0.00    -0.487 OA
BRANCH  16  17
ATOM     17  C   LIG    1        3.711  -0.707  -0.038  0.00  0.00    +0.264 C 
BRANCH  17  21
ATOM     18  C   LIG    1       -0.017   1.378   0.010  0.00  0.00    +0.000 A 
ATOM     19  C   LIG    1        1.171   2.086   0.002  0.00  0.00    +0.000 A 
ATOM     20  C   LIG    1        2.377   1.411  -0.013  0.00  0.00    +0.007 A 
ATOM     21  C   LIG    1        2.396   0.029  -0.020  0.00  0.00    -0.010 A 
ATOM     22  C   LIG    1        1.208  -0.679  -0.012  0.00  0.00    +0.007 A 
ATOM     23  C   LIG    1        0.002  -0.004   0.002  0.00  0.00    +0.000 A 
ENDBRANCH  17  21
ENDBRANCH  16  17
ENDBRANCH  10  16
ENDBRANCH   1  14
BRANCH   3  24
ATOM     24  C   LIG    1        8.408  -1.972   7.678  0.00  0.00    +0.089 C 
ATOM     25  C   LIG    1        7.358  -0.921   8.077  0.00  0.00    +0.027 C 
ATOM     26  C   LIG    1        8.525  -0.070   8.604  0.00  0.00    -0.024 C 
ATOM     27  C   LIG    1        9.420  -0.817   7.600  0.00  0.00    +0.027 C 
BRANCH  26  28
ATOM     28  C   LIG    1        8.380   1.423   8.302  0.00  0.00    -0.075 C 
BRANCH  28  29
ATOM     29  N   LIG    1        9.475   2.162   8.945  0.00  0.00    +0.380 N 
ATOM     30  H   LIG    1        9.518   1.935   9.927  0.00  0.00    -0.082 HD
ATOM     31  C   LIG    1       10.767   1.838   8.286  0.00  0.00    -0.079 C 
ATOM     32  C   LIG    1       11.664   3.046   8.654  0.00  0.00    -0.020 C 
ATOM     33  C   LIG    1       10.682   4.238   8.591  0.00  0.00    -0.020 C 
ATOM     34  C   LIG    1        9.284   3.617   8.764  0.00  0.00    -0.079 C 
ENDBRANCH  28  29
ENDBRANCH  26  28
ENDBRANCH   3  24
BRANCH   8  35
ATOM     35  N   LIG    1        7.742  -5.684   2.915  0.00  0.00    -0.343 N 
ATOM     36  H   LIG    1        7.835  -6.578   2.552  0.00  0.00    +0.144 HD
ATOM     37  H   LIG    1        7.392  -4.969   2.359  0.00  0.00    +0.144 HD
ENDBRANCH   8  35
TORSDOF 8
