REMARK  Name = ZINC03989258
REMARK                            x       y       z     vdW  Elec       q    Type
REMARK                         _______ _______ _______ _____ _____    ______ ____
ROOT
ATOM      1  C   LIG    1       -0.307   1.092   0.158  0.00  0.00    +0.047 C 
ATOM      2  C   LIG    1       -0.883   1.401   1.516  0.00  0.00    -0.013 A 
ATOM      3  C   LIG    1       -0.173   1.679   2.667  0.00  0.00    +0.044 A 
ATOM      4  N   LIG    1       -1.080   1.905   3.683  0.00  0.00    -0.358 N 
ATOM      5  C   LIG    1       -2.327   1.776   3.200  0.00  0.00    +0.026 A 
ATOM      6  C   LIG    1       -3.598   1.946   3.992  0.00  0.00    +0.064 C 
ATOM      7  H   LIG    1       -0.853   2.122   4.600  0.00  0.00    +0.166 HD
ATOM      8  C   LIG    1       -2.252   1.469   1.853  0.00  0.00    +0.060 A 
ENDROOT
BRANCH   3   9
ATOM      9  C   LIG    1        1.233   1.724   2.785  0.00  0.00    +0.039 C 
ATOM     10  C   LIG    1        1.825   2.616   3.657  0.00  0.00    +0.048 C 
ATOM     11  C   LIG    1        3.255   2.700   4.026  0.00  0.00    +0.011 A 
ATOM     12  C   LIG    1        4.382   1.980   3.642  0.00  0.00    +0.048 A 
ATOM     13  C   LIG    1        5.617   2.307   4.170  0.00  0.00    +0.124 A 
ATOM     14  F   LIG    1        6.714   1.608   3.805  0.00  0.00    -0.205 F 
ATOM     15  C   LIG    1        5.730   3.353   5.074  0.00  0.00    +0.040 A 
ATOM     16  C   LIG    1        4.618   4.075   5.455  0.00  0.00    +0.027 A 
ATOM     17  C   LIG    1        3.368   3.760   4.935  0.00  0.00    +0.042 A 
ATOM     18  N   LIG    1        2.110   4.315   5.146  0.00  0.00    -0.281 N 
ATOM     19  H   LIG    1        1.935   5.062   5.740  0.00  0.00    +0.155 HD
ATOM     20  C   LIG    1        1.169   3.684   4.423  0.00  0.00    +0.249 C 
ATOM     21  O   LIG    1       -0.019   3.952   4.407  0.00  0.00    -0.270 OA
ENDBRANCH   3   9
BRANCH   8  22
ATOM     22  C   LIG    1       -3.389   1.249   0.941  0.00  0.00    +0.246 C 
ATOM     23  N   LIG    1       -3.918   2.286   0.262  0.00  0.00    -0.313 N 
ATOM     24  H   LIG    1       -3.550   3.177   0.373  0.00  0.00    +0.149 HD
ATOM     25  O   LIG    1       -3.850   0.133   0.802  0.00  0.00    -0.270 OA
BRANCH  23  26
ATOM     26  C   LIG    1       -5.048   2.068  -0.644  0.00  0.00    +0.086 C 
BRANCH  26  27
ATOM     27  C   LIG    1       -5.452   3.398  -1.284  0.00  0.00    -0.060 C 
BRANCH  27  28
ATOM     28  N   LIG    1       -6.612   3.183  -2.201  0.00  0.00    +0.381 N 
ATOM     29  H   LIG    1       -6.302   2.637  -3.014  0.00  0.00    -0.082 HD
ATOM     30  C   LIG    1       -7.157   4.466  -2.646  0.00  0.00    -0.079 C 
ATOM     31  C   LIG    1       -8.675   4.256  -2.804  0.00  0.00    -0.020 C 
ATOM     32  C   LIG    1       -8.925   2.789  -2.383  0.00  0.00    -0.020 C 
ATOM     33  C   LIG    1       -7.691   2.466  -1.503  0.00  0.00    -0.079 C 
ENDBRANCH  27  28
ENDBRANCH  26  27
ENDBRANCH  23  26
ENDBRANCH   8  22
TORSDOF 5
