REMARK  Name = ZINC03973106
REMARK                            x       y       z     vdW  Elec       q    Type
REMARK                         _______ _______ _______ _____ _____    ______ ____
ROOT
ATOM      1  C   LIG    1       -0.017   1.378   0.010  0.00  0.00    +0.005 A 
ATOM      2  C   LIG    1        0.002  -0.004   0.002  0.00  0.00    +0.022 A 
ATOM      3  C   LIG    1        1.209  -0.679  -0.013  0.00  0.00    +0.059 A 
ATOM      4 CL   LIG    1        1.233  -2.415  -0.022  0.00  0.00    -0.082 Cl
ATOM      5  C   LIG    1        2.398   0.030  -0.021  0.00  0.00    +0.060 A 
ATOM      6 CL   LIG    1        3.914  -0.816  -0.040  0.00  0.00    -0.082 Cl
ATOM      7  C   LIG    1        2.378   1.413  -0.013  0.00  0.00    +0.025 A 
ATOM      8  C   LIG    1        1.170   2.086   0.002  0.00  0.00    -0.041 A 
ENDROOT
BRANCH   8   9
ATOM      9  C   LIG    1        1.148   3.593   0.010  0.00  0.00    -0.018 C 
ATOM     10  C   LIG    1        1.578   4.361  -1.242  0.00  0.00    +0.012 C 
ATOM     11  C   LIG    1        0.185   4.289   0.996  0.00  0.00    -0.071 C 
ATOM     12  N   LIG    1        0.699   5.657   1.076  0.00  0.00    +0.380 N 
ATOM     13  H   LIG    1        0.374   6.108   1.939  0.00  0.00    -0.086 HD
ATOM     14  H   LIG    1        0.383   6.203   0.265  0.00  0.00    -0.086 HD
ATOM     15  C   LIG    1        2.159   5.553   1.078  0.00  0.00    -0.078 C 
ATOM     16  C   LIG    1        2.447   4.425   0.065  0.00  0.00    -0.019 C 
ENDBRANCH   8   9
TORSDOF 1
