REMARK  Name = ZINC03928290
REMARK                            x       y       z     vdW  Elec       q    Type
REMARK                         _______ _______ _______ _____ _____    ______ ____
ROOT
ATOM      1  CA  ASP A  1        8.731   1.610   2.917  0.00  0.00    +0.159 C 
ENDROOT
BRANCH   1   4
ATOM      2  N   ASP A  1        6.427   2.115   2.171  0.00  0.00    -0.302 N 
ATOM      3  H   ASP A  1        6.808   2.556   1.396  0.00  0.00    +0.150 HD
ATOM      4  C   ASP A  1        7.235   1.553   3.092  0.00  0.00    +0.234 C 
ATOM      5  O   ASP A  1        6.758   1.002   4.061  0.00  0.00    -0.274 OA
BRANCH   2   6
ATOM      6  CA  ASP A  1        4.973   2.060   2.341  0.00  0.00    +0.161 C 
BRANCH   6   7
ATOM      7  C   ASP A  1        4.305   2.171   0.995  0.00  0.00    +0.234 C 
ATOM      8  N   ASP A  2        3.037   1.742   0.834  0.00  0.00    -0.304 N 
ATOM      9  H   ASP A  2        2.578   1.302   1.566  0.00  0.00    +0.149 HD
ATOM     10  O   ASP A  1        4.909   2.645   0.056  0.00  0.00    -0.274 OA
BRANCH   8  11
ATOM     11  CA  ASP A  2        2.353   1.942  -0.446  0.00  0.00    +0.146 C 
BRANCH  11  12
ATOM     12  C   ASP A  2        1.740   3.318  -0.479  0.00  0.00    +0.246 C 
ATOM     13  O   ASP A  2        1.861   4.056   0.469  0.00  0.00    -0.299 OA
ENDBRANCH  11  12
BRANCH  11  14
ATOM     14  CB  ASP A  2        1.255   0.889  -0.606  0.00  0.00    +0.150 C 
BRANCH  14  15
ATOM     15  CG  ASP A  2        1.879  -0.479  -0.697  0.00  0.00    +0.307 C 
ATOM     16  OD1 ASP A  2        3.080  -0.600  -0.639  0.00  0.00    -0.251 OA
BRANCH  15  17
ATOM     17  OD2 ASP A  2        1.101  -1.564  -0.841  0.00  0.00    -0.481 OA
ATOM     18  HD2 ASP A  2        0.170  -1.470  -0.886  0.00  0.00    +0.295 HD
ENDBRANCH  15  17
ENDBRANCH  14  15
ENDBRANCH  11  14
ENDBRANCH   8  11
ENDBRANCH   6   7
BRANCH   6  20
ATOM     19  CG1 ASP A  1        3.022   3.088   3.516  0.00  0.00    +0.009 C 
ATOM     20  CB  ASP A  1        4.520   3.219   3.232  0.00  0.00    +0.012 C 
ATOM     21  CG2 ASP A  1        5.294   3.181   4.551  0.00  0.00    +0.009 C 
ENDBRANCH   6  20
ENDBRANCH   2   6
ENDBRANCH   1   4
BRANCH   1  22
ATOM     22  N   ASP A  1        9.380   0.933   4.043  0.00  0.00    -0.302 N 
ATOM     23  H   ASP A  1        8.903   0.248   4.537  0.00  0.00    +0.150 HD
ATOM     24  C   ASP A  1       10.639   1.262   4.391  0.00  0.00    +0.234 C 
ATOM     25  O   ASP A  1       11.235   2.119   3.773  0.00  0.00    -0.274 OA
BRANCH  24  26
ATOM     26  CA  ASP A  1       11.307   0.566   5.549  0.00  0.00    +0.169 C 
BRANCH  26  27
ATOM     27  N   ASP A  1       12.661   1.099   5.724  0.00  0.00    -0.304 N 
ATOM     28  H   ASP A  1       12.814   1.849   6.321  0.00  0.00    +0.149 HD
ATOM     29  C   UNK A  0       13.694   0.548   5.056  0.00  0.00    +0.211 C 
ATOM     30  C   UNK A  0       15.100   1.020   5.321  0.00  0.00    +0.109 C 
ATOM     31  O   UNK A  0       13.491  -0.329   4.243  0.00  0.00    -0.276 OA
ENDBRANCH  26  27
BRANCH  26  32
ATOM     32  CB  ASP A  1       10.496   0.805   6.824  0.00  0.00    +0.152 C 
BRANCH  32  33
ATOM     33  CG  ASP A  1       11.077  -0.012   7.949  0.00  0.00    +0.307 C 
ATOM     34  OD1 ASP A  1       12.088  -0.650   7.774  0.00  0.00    -0.251 OA
BRANCH  33  35
ATOM     35  OD2 ASP A  1       10.470  -0.033   9.146  0.00  0.00    -0.481 OA
ATOM     36  HD2 ASP A  1        9.686   0.461   9.283  0.00  0.00    +0.295 HD
ENDBRANCH  33  35
ENDBRANCH  32  33
ENDBRANCH  26  32
ENDBRANCH  24  26
ENDBRANCH   1  22
BRANCH   1  37
ATOM     37  CB  ASP A  1        9.118   0.913   1.611  0.00  0.00    +0.043 C 
BRANCH  37  38
ATOM     38  CG  ASP A  1       10.620   1.078   1.371  0.00  0.00    +0.123 C 
BRANCH  38  39
ATOM     39  CD  ASP A  1       11.002   0.392   0.085  0.00  0.00    +0.305 C 
ATOM     40  OE1 ASP A  1       10.159  -0.171  -0.573  0.00  0.00    -0.251 OA
BRANCH  39  41
ATOM     41  OE2 ASP A  1       12.278   0.407  -0.331  0.00  0.00    -0.481 OA
ATOM     42  HE2 ASP A  1       12.931   0.844   0.179  0.00  0.00    +0.295 HD
ENDBRANCH  39  41
ENDBRANCH  38  39
ENDBRANCH  37  38
ENDBRANCH   1  37
TORSDOF 19
