REMARK  Name = ZINC04015433
REMARK                            x       y       z     vdW  Elec       q    Type
REMARK                         _______ _______ _______ _____ _____    ______ ____
ROOT
ATOM      1  C   LIG    1       -0.018   1.503   0.010  0.00  0.00    +0.045 C 
ATOM      2  C   LIG    1        0.002  -0.004   0.002  0.00  0.00    -0.029 A 
ATOM      3  C   LIG    1       -1.199  -0.742   0.004  0.00  0.00    +0.025 A 
ATOM      4  C   LIG    1       -2.437  -0.071   0.013  0.00  0.00    +0.061 A 
ATOM      5  C   LIG    1       -3.598  -0.788   0.014  0.00  0.00    +0.159 A 
ATOM      6  C   LIG    1       -3.566  -2.188   0.006  0.00  0.00    +0.162 A 
ATOM      7  C   LIG    1       -2.358  -2.863  -0.003  0.00  0.00    +0.096 A 
ATOM      8  C   LIG    1       -1.164  -2.153  -0.004  0.00  0.00    +0.140 A 
ATOM      9  O   LIG    1        0.009  -2.820  -0.014  0.00  0.00    -0.455 OA
ATOM     10  C   LIG    1        1.187  -2.165  -0.016  0.00  0.00    +0.140 A 
ATOM     11  C   LIG    1        2.382  -2.854  -0.026  0.00  0.00    +0.101 A 
ATOM     12  C   LIG    1        3.590  -2.147  -0.028  0.00  0.00    +0.224 A 
ATOM     13  C   LIG    1        3.606  -0.732  -0.020  0.00  0.00    +0.164 A 
ATOM     14  C   LIG    1        2.449  -0.022  -0.009  0.00  0.00    +0.061 A 
ATOM     15  O   LIG    1        4.649  -2.762  -0.038  0.00  0.00    -0.284 OA
ATOM     16  C   LIG    1        1.210  -0.702  -0.013  0.00  0.00    +0.025 A 
ENDROOT
BRANCH   5  17
ATOM     17  O   LIG    1       -4.794  -0.139   0.023  0.00  0.00    -0.503 OA
ATOM     18  H   LIG    1       -5.143   0.054  -0.858  0.00  0.00    +0.292 HD
ENDBRANCH   5  17
BRANCH   6  19
ATOM     19  O   LIG    1       -4.728  -2.889   0.009  0.00  0.00    -0.503 OA
ATOM     20  H   LIG    1       -5.069  -3.087  -0.874  0.00  0.00    +0.292 HD
ENDBRANCH   6  19
BRANCH  13  21
ATOM     21  O   LIG    1        4.796  -0.075  -0.022  0.00  0.00    -0.503 OA
ATOM     22  H   LIG    1        5.567  -0.658  -0.029  0.00  0.00    +0.292 HD
ENDBRANCH  13  21
TORSDOF 3
