REMARK  Name = ZINC03875992
REMARK                            x       y       z     vdW  Elec       q    Type
REMARK                         _______ _______ _______ _____ _____    ______ ____
ROOT
ATOM      1  N   LIG    1       -1.318  -1.702  -1.129  0.00  0.00    +0.384 N 
ATOM      2  H   LIG    1       -1.263  -1.171  -1.985  0.00  0.00    -0.081 HD
ATOM      3  C   LIG    1       -0.154  -2.588  -1.047  0.00  0.00    -0.077 C 
ATOM      4  C   LIG    1       -0.168  -3.571  -2.225  0.00  0.00    -0.007 C 
ATOM      5  C   LIG    1       -1.456  -4.401  -2.118  0.00  0.00    -0.004 C 
ATOM      6  C   LIG    1       -1.495  -5.460  -3.212  0.00  0.00    +0.012 C 
ATOM      7  C   LIG    1       -2.800  -6.254  -3.111  0.00  0.00    +0.001 C 
ATOM      8  C   LIG    1       -3.988  -5.302  -3.264  0.00  0.00    +0.000 C 
ATOM      9  C   LIG    1       -3.948  -4.250  -2.153  0.00  0.00    +0.003 C 
ATOM     10  C   LIG    1       -1.478  -5.048  -0.756  0.00  0.00    -0.034 A 
ATOM     11  C   LIG    1       -0.848  -6.272  -0.602  0.00  0.00    +0.049 A 
ATOM     12  C   LIG    1       -0.827  -6.899   0.633  0.00  0.00    +0.117 A 
ATOM     13  C   LIG    1       -1.441  -6.292   1.719  0.00  0.00    +0.045 A 
ATOM     14  C   LIG    1       -2.073  -5.077   1.559  0.00  0.00    +0.007 A 
ATOM     15  C   LIG    1       -2.101  -4.451   0.319  0.00  0.00    -0.045 A 
ATOM     16  C   LIG    1       -2.825  -3.136   0.215  0.00  0.00    +0.020 C 
ATOM     17  C   LIG    1       -2.648  -3.451  -2.255  0.00  0.00    -0.014 C 
ATOM     18  C   LIG    1       -2.572  -2.441  -1.110  0.00  0.00    -0.060 C 
ENDROOT
BRANCH  12  19
ATOM     19  O   LIG    1       -0.209  -8.100   0.780  0.00  0.00    -0.507 OA
ATOM     20  H   LIG    1        0.726  -8.035   1.020  0.00  0.00    +0.292 HD
ENDBRANCH  12  19
BRANCH   1  21
ATOM     21  C   LIG    1       -1.293  -0.775   0.010  0.00  0.00    -0.051 C 
BRANCH  21  23
ATOM     22  C   LIG    1       -0.208   1.411  -0.072  0.00  0.00    +0.002 C 
ATOM     23  C   LIG    1       -0.075   0.108  -0.087  0.00  0.00    -0.053 C 
ENDBRANCH  21  23
ENDBRANCH   1  21
TORSDOF 3
