REMARK  Name = ZINC03873285
REMARK                            x       y       z     vdW  Elec       q    Type
REMARK                         _______ _______ _______ _____ _____    ______ ____
ROOT
ATOM      1  C   LIG    1       -0.013   1.076   0.008  0.00  0.00    +0.199 A 
ATOM      2  N   LIG    1       -1.088   1.808   0.028  0.00  0.00    -0.229 NA
ATOM      3  C   LIG    1       -0.742   3.119   0.030  0.00  0.00    +0.169 A 
ATOM      4  C   LIG    1       -1.457   4.326   0.048  0.00  0.00    +0.248 A 
ATOM      5  N   LIG    1       -0.779   5.466   0.045  0.00  0.00    -0.178 NA
ATOM      6  C   LIG    1        0.548   5.476   0.025  0.00  0.00    +0.218 A 
ATOM      7  N   LIG    1        1.262   4.362   0.009  0.00  0.00    -0.195 NA
ATOM      8  C   LIG    1        0.662   3.176   0.010  0.00  0.00    +0.166 A 
ATOM      9  N   LIG    1        1.094   1.874   0.002  0.00  0.00    -0.329 N 
ATOM     10  H   LIG    1        2.017   1.575  -0.009  0.00  0.00    +0.168 HD
ENDROOT
BRANCH   6  11
ATOM     11  N   LIG    1        1.209   6.693   0.023  0.00  0.00    -0.327 N 
ATOM     12  H   LIG    1        0.702   7.520   0.035  0.00  0.00    +0.145 HD
ATOM     13  H   LIG    1        2.178   6.719   0.010  0.00  0.00    +0.145 HD
ENDBRANCH   6  11
BRANCH   4  14
ATOM     14  O   LIG    1       -2.811   4.327   0.068  0.00  0.00    -0.475 OA
BRANCH  14  15
ATOM     15  C   LIG    1       -3.459   5.601   0.085  0.00  0.00    +0.234 C 
BRANCH  15  16
ATOM     16  C   LIG    1       -4.976   5.402   0.106  0.00  0.00    +0.027 C 
ATOM     17  C   LIG    1       -5.421   4.739  -1.199  0.00  0.00    +0.007 C 
ATOM     18  C   LIG    1       -6.938   4.540  -1.177  0.00  0.00    +0.000 C 
ATOM     19  C   LIG    1       -7.629   5.897  -1.034  0.00  0.00    +0.000 C 
ATOM     20  C   LIG    1       -7.183   6.561   0.271  0.00  0.00    +0.000 C 
ATOM     21  C   LIG    1       -5.666   6.760   0.250  0.00  0.00    +0.007 C 
ENDBRANCH  15  16
ENDBRANCH  14  15
ENDBRANCH   4  14
TORSDOF 4
