REMARK  Name = ZINC03973984
REMARK                            x       y       z     vdW  Elec       q    Type
REMARK                         _______ _______ _______ _____ _____    ______ ____
ROOT
ATOM      1  C   LIG    1        2.662  -0.200   3.957  0.00  0.00    +0.219 A 
ATOM      2  N   LIG    1        3.147  -0.931   4.941  0.00  0.00    -0.214 NA
ATOM      3  C   LIG    1        3.487  -2.212   4.748  0.00  0.00    +0.077 A 
ATOM      4  C   LIG    1        4.005  -3.009   5.778  0.00  0.00    +0.028 A 
ATOM      5  C   LIG    1        4.333  -4.308   5.524  0.00  0.00    +0.002 A 
ATOM      6  C   LIG    1        4.163  -4.856   4.255  0.00  0.00    +0.001 A 
ATOM      7  C   LIG    1        3.662  -4.108   3.230  0.00  0.00    +0.012 A 
ATOM      8  C   LIG    1        3.311  -2.776   3.459  0.00  0.00    +0.027 A 
ATOM      9  C   LIG    1        2.773  -1.916   2.404  0.00  0.00    +0.089 A 
ATOM     10  N   LIG    1        2.474  -0.658   2.725  0.00  0.00    -0.214 NA
ENDROOT
BRANCH   1  16
ATOM     11  C   LIG    1        2.503   5.204   5.275  0.00  0.00    -0.096 C 
ATOM     12  N   LIG    1        2.883   3.803   4.997  0.00  0.00    +0.380 N 
ATOM     13  H   LIG    1        3.891   3.691   5.162  0.00  0.00    -0.082 HD
ATOM     14  C   LIG    1        2.586   3.468   3.589  0.00  0.00    -0.060 C 
ATOM     15  C   LIG    1        3.039   2.031   3.317  0.00  0.00    +0.089 C 
ATOM     16  N   LIG    1        2.330   1.117   4.222  0.00  0.00    -0.303 N 
ATOM     17  C   LIG    1        2.599   1.455   5.626  0.00  0.00    +0.089 C 
ATOM     18  C   LIG    1        2.146   2.892   5.898  0.00  0.00    -0.060 C 
ENDBRANCH   1  16
BRANCH   9  19
ATOM     19  C   LIG    1        2.565  -2.424   1.039  0.00  0.00    +0.076 C 
ATOM     20  C   LIG    1        3.180  -1.969  -0.128  0.00  0.00    +0.060 C 
ATOM     21  C   LIG    1        2.636  -2.808  -1.228  0.00  0.00    +0.252 C 
ATOM     22  N   LIG    1        1.760  -3.681  -0.701  0.00  0.00    -0.248 N 
ATOM     23  H   LIG    1        1.266  -4.343  -1.211  0.00  0.00    +0.158 HD
ATOM     24  O   LIG    1        2.933  -2.720  -2.401  0.00  0.00    -0.270 OA
ATOM     25  C   LIG    1        1.663  -3.513   0.628  0.00  0.00    +0.253 C 
ATOM     26  O   LIG    1        0.951  -4.159   1.371  0.00  0.00    -0.270 OA
BRANCH  20  27
ATOM     27  C   LIG    1        4.163  -0.891  -0.244  0.00  0.00    +0.013 A 
ATOM     28  C   LIG    1        5.497  -0.940   0.120  0.00  0.00    +0.092 A 
ATOM     29  N   LIG    1        6.078   0.248  -0.138  0.00  0.00    -0.360 N 
ATOM     30  C   LIG    1        5.165   1.131  -0.680  0.00  0.00    +0.047 A 
ATOM     31  C   LIG    1        5.260   2.451  -1.105  0.00  0.00    +0.026 A 
ATOM     32  C   LIG    1        4.152   3.091  -1.618  0.00  0.00    +0.002 A 
ATOM     33  C   LIG    1        2.935   2.433  -1.708  0.00  0.00    +0.001 A 
ATOM     34  C   LIG    1        2.819   1.125  -1.288  0.00  0.00    +0.010 A 
ATOM     35  H   LIG    1        7.010   0.454   0.033  0.00  0.00    +0.165 HD
ATOM     36  C   LIG    1        3.931   0.467  -0.772  0.00  0.00    +0.008 A 
ENDBRANCH  20  27
ENDBRANCH   9  19
TORSDOF 3
