REMARK  Name = ZINC03875332
REMARK                            x       y       z     vdW  Elec       q    Type
REMARK                         _______ _______ _______ _____ _____    ______ ____
ROOT
ATOM      1  C   LIG    1        1.717   1.231   1.519  0.00  0.00    +0.011 C 
ATOM      2  C   LIG    1        1.345  -0.187   1.079  0.00  0.00    +0.026 C 
ATOM      3  C   LIG    1       -0.004  -0.170   0.310  0.00  0.00    +0.011 C 
ATOM      4  C   LIG    1       -1.025  -0.508   1.401  0.00  0.00    +0.005 C 
ATOM      5  C   LIG    1       -2.349  -1.070   0.916  0.00  0.00    +0.034 C 
ATOM      6  C   LIG    1       -3.071  -0.030   0.056  0.00  0.00    +0.011 C 
ATOM      7  C   LIG    1       -4.387  -0.615  -0.465  0.00  0.00    +0.032 C 
ATOM      8  C   LIG    1       -5.193  -1.097   0.727  0.00  0.00    -0.053 C 
ATOM      9  C   LIG    1       -6.451  -0.698   0.856  0.00  0.00    +0.051 C 
ATOM     10  C   LIG    1       -7.257  -1.128   2.009  0.00  0.00    +0.179 C 
ATOM     11  C   LIG    1       -6.622  -1.971   3.036  0.00  0.00    +0.047 C 
ATOM     12  C   LIG    1       -5.367  -2.363   2.883  0.00  0.00    -0.009 C 
ATOM     13  O   LIG    1       -8.423  -0.795   2.111  0.00  0.00    -0.288 OA
ATOM     14  C   LIG    1       -4.521  -2.013   1.707  0.00  0.00    +0.044 C 
ATOM     15  C   LIG    1       -4.178  -3.312   0.974  0.00  0.00    +0.023 C 
ATOM     16  C   LIG    1       -3.188  -1.412   2.158  0.00  0.00    +0.153 C 
ATOM     17  F   LIG    1       -3.451  -0.238   2.872  0.00  0.00    -0.238 F 
ATOM     18  C   LIG    1       -2.459  -2.385   3.080  0.00  0.00    +0.154 C 
ATOM     19  C   LIG    1       -1.063  -1.867   3.463  0.00  0.00    +0.044 C 
ATOM     20  C   LIG    1       -0.291  -1.629   2.184  0.00  0.00    +0.010 C 
ATOM     21  C   LIG    1       -0.283  -2.918   1.360  0.00  0.00    +0.015 C 
ATOM     22  C   LIG    1        1.131  -1.089   2.320  0.00  0.00    +0.134 C 
ENDROOT
BRANCH  18  23
ATOM     23  O   LIG    1       -2.322  -3.643   2.416  0.00  0.00    -0.389 OA
ATOM     24  H   LIG    1       -1.867  -4.316   2.939  0.00  0.00    +0.210 HD
ENDBRANCH  18  23
BRANCH  22  25
ATOM     25  O   LIG    1        1.256  -0.321   3.519  0.00  0.00    -0.380 OA
ATOM     26  H   LIG    1        2.127   0.083   3.638  0.00  0.00    +0.211 HD
ENDBRANCH  22  25
BRANCH  22  27
ATOM     27  C   LIG    1        2.123  -2.223   2.319  0.00  0.00    +0.190 C 
ATOM     28  O   LIG    1        2.542  -2.658   1.274  0.00  0.00    -0.292 OA
BRANCH  27  29
ATOM     29  C   LIG    1        2.594  -2.813   3.624  0.00  0.00    +0.233 C 
BRANCH  29  30
ATOM     30  O   LIG    1        3.525  -3.866   3.362  0.00  0.00    -0.387 OA
ATOM     31  H   LIG    1        3.870  -4.292   4.158  0.00  0.00    +0.210 HD
ENDBRANCH  29  30
ENDBRANCH  27  29
ENDBRANCH  22  27
TORSDOF 5
