REMARK  Name = ZINC03938693
REMARK                            x       y       z     vdW  Elec       q    Type
REMARK                         _______ _______ _______ _____ _____    ______ ____
ROOT
ATOM      1  C   LIG    1       -2.906   2.189  -5.333  0.00  0.00    +0.026 A 
ATOM      2  C   LIG    1       -3.535   2.641  -6.489  0.00  0.00    +0.012 A 
ATOM      3  C   LIG    1       -3.743   3.994  -6.692  0.00  0.00    +0.002 A 
ATOM      4  C   LIG    1       -3.329   4.914  -5.751  0.00  0.00    +0.015 A 
ATOM      5  C   LIG    1       -2.697   4.479  -4.588  0.00  0.00    +0.065 A 
ATOM      6  C   LIG    1       -2.240   5.436  -3.558  0.00  0.00    +0.194 A 
ATOM      7  O   LIG    1       -2.402   6.638  -3.694  0.00  0.00    -0.287 OA
ATOM      8  C   LIG    1       -1.618   4.906  -2.412  0.00  0.00    +0.114 A 
ATOM      9  C   LIG    1       -1.452   3.558  -2.299  0.00  0.00    +0.193 A 
ATOM     10  O   LIG    1       -1.870   2.700  -3.240  0.00  0.00    -0.440 OA
ATOM     11  C   LIG    1       -2.481   3.112  -4.370  0.00  0.00    +0.149 A 
ENDROOT
BRANCH   1  21
ATOM     12  C   LIG    1       -4.647  -3.575  -1.175  0.00  0.00    +0.001 A 
ATOM     13  C   LIG    1       -5.428  -2.658  -0.487  0.00  0.00    +0.001 A 
ATOM     14  C   LIG    1       -5.450  -1.340  -0.901  0.00  0.00    +0.015 A 
ATOM     15  C   LIG    1       -4.697  -0.954  -1.990  0.00  0.00    +0.020 A 
ATOM     16  C   LIG    1       -3.898  -1.859  -2.705  0.00  0.00    -0.003 A 
ATOM     17  C   LIG    1       -3.149  -1.294  -3.850  0.00  0.00    -0.003 A 
ATOM     18  C   LIG    1       -2.281  -1.984  -4.726  0.00  0.00    +0.009 A 
ATOM     19  C   LIG    1       -1.650  -1.328  -5.753  0.00  0.00    +0.001 A 
ATOM     20  C   LIG    1       -1.839   0.026  -5.968  0.00  0.00    +0.010 A 
ATOM     21  C   LIG    1       -2.688   0.738  -5.123  0.00  0.00    -0.000 A 
ATOM     22  C   LIG    1       -3.324   0.077  -4.078  0.00  0.00    +0.028 A 
ATOM     23  S   LIG    1       -4.458   0.598  -2.817  0.00  0.00    -0.088 S 
ATOM     24  C   LIG    1       -3.895  -3.198  -2.259  0.00  0.00    +0.009 A 
ENDBRANCH   1  21
BRANCH   9  25
ATOM     25  N   LIG    1       -0.839   3.061  -1.178  0.00  0.00    -0.297 N 
ATOM     26  C   LIG    1       -0.755   1.594  -1.231  0.00  0.00    +0.136 C 
ATOM     27  C   LIG    1       -0.013   1.086   0.008  0.00  0.00    +0.179 C 
ATOM     28  O   LIG    1       -0.684   1.548   1.183  0.00  0.00    -0.377 OA
ATOM     29  C   LIG    1       -0.784   2.972   1.267  0.00  0.00    +0.179 C 
ATOM     30  C   LIG    1       -1.534   3.499   0.041  0.00  0.00    +0.136 C 
ENDBRANCH   9  25
TORSDOF 2
