REMARK  Name = ZINC03936850
REMARK                            x       y       z     vdW  Elec       q    Type
REMARK                         _______ _______ _______ _____ _____    ______ ____
ROOT
ATOM      1  N   LIG    1        1.236  -2.082  -0.039  0.00  0.00    -0.268 N 
ATOM      2  H   LIG    1        2.078  -2.554  -0.138  0.00  0.00    +0.156 HD
ATOM      3  C   LIG    1        0.086  -2.773   0.084  0.00  0.00    +0.308 C 
ATOM      4  N   LIG    1        0.115  -4.117   0.182  0.00  0.00    -0.266 N 
ATOM      5  H   LIG    1        0.965  -4.581   0.246  0.00  0.00    +0.156 HD
ATOM      6  O   LIG    1       -0.978  -2.185   0.105  0.00  0.00    -0.252 OA
ENDROOT
BRANCH   1  12
ATOM      7  C   LIG    1        0.163   1.373   0.623  0.00  0.00    +0.002 A 
ATOM      8  C   LIG    1        1.177   2.085   0.010  0.00  0.00    +0.001 A 
ATOM      9  C   LIG    1        2.212   1.417  -0.619  0.00  0.00    +0.017 A 
ATOM     10  C   LIG    1        2.235   0.036  -0.637  0.00  0.00    +0.039 A 
ATOM     11 BR   LIG    1        3.649  -0.876  -1.499  0.00  0.00    -0.048 Br
ATOM     12  C   LIG    1        1.217  -0.682  -0.022  0.00  0.00    +0.049 A 
ATOM     13  C   LIG    1        0.179  -0.009   0.609  0.00  0.00    +0.024 A 
ENDBRANCH   1  12
BRANCH   4  14
ATOM     14  C   LIG    1       -1.083  -4.845   0.190  0.00  0.00    +0.077 A 
ATOM     15  C   LIG    1       -2.223  -4.315  -0.395  0.00  0.00    +0.029 A 
ATOM     16  C   LIG    1       -3.403  -5.034  -0.386  0.00  0.00    +0.034 A 
ATOM     17  C   LIG    1       -3.450  -6.283   0.206  0.00  0.00    +0.125 A 
ATOM     18  C   LIG    1       -2.318  -6.818   0.791  0.00  0.00    +0.079 A 
ATOM     19  C   LIG    1       -1.130  -6.106   0.780  0.00  0.00    +0.140 A 
BRANCH  17  20
ATOM     20  N   LIG    1       -4.717  -7.048   0.214  0.00  0.00    +0.006 N 
ATOM     21  O   LIG    1       -5.708  -6.582  -0.297  0.00  0.00    -0.130 OA
BRANCH  20  22
ATOM     22  O   LIG    1       -4.761  -8.140   0.731  0.00  0.00    -0.396 OA
ATOM     23  H   LIG    1       -3.992  -8.502   1.127  0.00  0.00    +0.329 HD
ENDBRANCH  20  22
ENDBRANCH  17  20
BRANCH  19  24
ATOM     24  O   LIG    1       -0.013  -6.633   1.351  0.00  0.00    -0.505 OA
ATOM     25  H   LIG    1        0.090  -6.416   2.287  0.00  0.00    +0.292 HD
ENDBRANCH  19  24
ENDBRANCH   4  14
TORSDOF 5
