REMARK  Name = ZINC03872738
REMARK                            x       y       z     vdW  Elec       q    Type
REMARK                         _______ _______ _______ _____ _____    ______ ____
ROOT
ATOM      1  C   LIG    1        4.172  -0.940   1.401  0.00  0.00    +0.314 C 
ATOM      2  O   LIG    1        3.538  -0.508   2.344  0.00  0.00    -0.254 OA
ENDROOT
BRANCH   1   3
ATOM      3  N   LIG    1        5.312  -1.595   1.610  0.00  0.00    -0.005 NA
ATOM      4  C   LIG    1        5.342  -2.625   2.446  0.00  0.00    +0.375 C 
BRANCH   4   5
ATOM      5  N   LIG    1        6.529  -3.220   2.752  0.00  0.00    -0.291 N 
ATOM      6  H   LIG    1        6.551  -3.973   3.364  0.00  0.00    +0.254 HD
ATOM      7  H   LIG    1        7.352  -2.890   2.359  0.00  0.00    +0.254 HD
ENDBRANCH   4   5
BRANCH   4   8
ATOM      8  N   LIG    1        4.186  -3.088   2.999  0.00  0.00    -0.291 N 
ATOM      9  H   LIG    1        4.215  -3.789   3.669  0.00  0.00    +0.254 HD
ATOM     10  H   LIG    1        3.333  -2.716   2.722  0.00  0.00    +0.254 HD
ENDBRANCH   4   8
ENDBRANCH   1   3
BRANCH   1  11
ATOM     11  C   LIG    1        3.667  -0.734  -0.004  0.00  0.00    +0.155 C 
BRANCH  11  16
ATOM     12  C   LIG    1       -0.014   1.433   0.107  0.00  0.00    +0.003 A 
ATOM     13  C   LIG    1        1.186   2.114   0.024  0.00  0.00    +0.020 A 
ATOM     14  C   LIG    1        2.378   1.413  -0.012  0.00  0.00    +0.046 A 
ATOM     15 CL   LIG    1        3.885   2.268  -0.117  0.00  0.00    -0.083 Cl
ATOM     16  C   LIG    1        2.369   0.030   0.036  0.00  0.00    -0.000 A 
ATOM     17  C   LIG    1        1.168  -0.651   0.119  0.00  0.00    +0.046 A 
ATOM     18 CL   LIG    1        1.156  -2.386   0.178  0.00  0.00    -0.083 Cl
ATOM     19  C   LIG    1       -0.024   0.051   0.154  0.00  0.00    +0.020 A 
ENDBRANCH  11  16
ENDBRANCH   1  11
TORSDOF 5
