REMARK  Name = ZINC03872809
REMARK                            x       y       z     vdW  Elec       q    Type
REMARK                         _______ _______ _______ _____ _____    ______ ____
ROOT
ATOM      1  C   LIG    1       -1.412  -0.526   0.013  0.00  0.00    -0.041 A 
ATOM      2  C   LIG    1       -2.185  -0.146   1.107  0.00  0.00    +0.004 A 
ATOM      3  C   LIG    1       -3.497  -0.461   1.394  0.00  0.00    +0.004 A 
ATOM      4  C   LIG    1       -4.390  -1.241   0.663  0.00  0.00    +0.049 A 
ATOM      5  C   LIG    1       -4.180  -1.895  -0.536  0.00  0.00    +0.164 A 
ATOM      6  C   LIG    1       -2.999  -1.932  -1.321  0.00  0.00    +0.220 A 
ATOM      7  O   LIG    1       -3.063  -2.587  -2.353  0.00  0.00    -0.284 OA
ATOM      8  C   LIG    1       -1.766  -1.308  -1.063  0.00  0.00    +0.058 A 
ENDROOT
BRANCH   1  10
ATOM      9  C   LIG    1       -0.019   1.526   0.010  0.00  0.00    +0.012 C 
ATOM     10  C   LIG    1        0.002  -0.004   0.002  0.00  0.00    +0.013 C 
ATOM     11  C   LIG    1        0.742  -0.511   1.242  0.00  0.00    +0.012 C 
ENDBRANCH   1  10
BRANCH   5  12
ATOM     12  O   LIG    1       -5.237  -2.588  -1.024  0.00  0.00    -0.503 OA
ATOM     13  H   LIG    1       -6.027  -2.544  -0.469  0.00  0.00    +0.292 HD
ENDBRANCH   5  12
TORSDOF 2
