REMARK  Name = ZINC03982657
REMARK                            x       y       z     vdW  Elec       q    Type
REMARK                         _______ _______ _______ _____ _____    ______ ____
ROOT
ATOM      1  C   LIG    1       -5.907   8.546  -5.632  0.00  0.00    -0.010 C 
ATOM      2  C   LIG    1       -7.141   8.011  -4.899  0.00  0.00    -0.015 C 
ATOM      3  C   LIG    1       -6.820   7.863  -3.410  0.00  0.00    -0.079 C 
ATOM      4  N   LIG    1       -5.697   6.914  -3.254  0.00  0.00    +0.380 N 
ATOM      5  H   LIG    1       -5.947   6.026  -3.707  0.00  0.00    -0.082 HD
ATOM      6  C   LIG    1       -4.481   7.455  -3.897  0.00  0.00    -0.079 C 
ATOM      7  C   LIG    1       -4.733   7.591  -5.400  0.00  0.00    -0.015 C 
ENDROOT
BRANCH   1   8
ATOM      8  C   LIG    1       -6.203   8.640  -7.130  0.00  0.00    +0.038 C 
BRANCH   8  15
ATOM      9  C   LIG    1       -4.993  10.652  -7.996  0.00  0.00    +0.006 A 
ATOM     10  C   LIG    1       -3.918  11.241  -8.636  0.00  0.00    +0.038 A 
ATOM     11  C   LIG    1       -2.889  10.454  -9.125  0.00  0.00    +0.123 A 
ATOM     12  F   LIG    1       -1.842  11.028  -9.757  0.00  0.00    -0.205 F 
ATOM     13  C   LIG    1       -2.935   9.080  -8.967  0.00  0.00    +0.038 A 
ATOM     14  C   LIG    1       -4.007   8.494  -8.321  0.00  0.00    +0.006 A 
ATOM     15  C   LIG    1       -5.034   9.280  -7.834  0.00  0.00    -0.047 A 
ENDBRANCH   8  15
ENDBRANCH   1   8
BRANCH   4  16
ATOM     16  C   LIG    1       -5.442   6.666  -1.820  0.00  0.00    -0.065 C 
BRANCH  16  17
ATOM     17  C   LIG    1       -4.435   5.521  -1.689  0.00  0.00    +0.090 C 
BRANCH  17  18
ATOM     18  S   LIG    1       -4.129   5.183   0.066  0.00  0.00    +0.052 S 
ATOM     19  O   LIG    1       -5.292   4.610   0.648  0.00  0.00    -0.252 OA
BRANCH  18  20
ATOM     20  C   LIG    1       -2.966   3.860   0.049  0.00  0.00    +0.042 A 
ATOM     21  C   LIG    1       -3.413   2.550   0.046  0.00  0.00    +0.019 A 
ATOM     22  C   LIG    1       -2.507   1.507   0.033  0.00  0.00    +0.030 A 
ATOM     23  C   LIG    1       -1.147   1.775   0.016  0.00  0.00    +0.087 A 
ATOM     24  C   LIG    1       -0.696   3.095   0.024  0.00  0.00    +0.158 A 
ATOM     25  O   LIG    1        0.659   3.057   0.011  0.00  0.00    -0.408 OA
ATOM     26  C   LIG    1        1.065   1.778   0.001  0.00  0.00    +0.419 A 
ATOM     27  O   LIG    1        2.223   1.408  -0.011  0.00  0.00    -0.223 OA
ATOM     28  N   LIG    1       -0.011   0.966   0.007  0.00  0.00    -0.288 N 
ATOM     29  H   LIG    1        0.002  -0.004   0.002  0.00  0.00    +0.172 HD
ATOM     30  C   LIG    1       -1.612   4.135   0.037  0.00  0.00    +0.065 A 
ENDBRANCH  18  20
ENDBRANCH  17  18
ENDBRANCH  16  17
ENDBRANCH   4  16
TORSDOF 6
