REMARK  Name = ZINC03985980
REMARK                            x       y       z     vdW  Elec       q    Type
REMARK                         _______ _______ _______ _____ _____    ______ ____
ROOT
ATOM      1  C   LIG    1        1.700  -5.168   2.705  0.00  0.00    +0.225 C 
ATOM      2  C   LIG    1        0.676  -5.533   3.803  0.00  0.00    +0.089 C 
ATOM      3  C   LIG    1        0.796  -7.068   3.934  0.00  0.00    +0.165 C 
ATOM      4  C   LIG    1        1.879  -7.449   2.900  0.00  0.00    +0.176 C 
ATOM      5  O   LIG    1        1.861  -6.377   1.931  0.00  0.00    -0.348 OA
ENDROOT
BRANCH   1   9
ATOM      6  C   LIG    1        0.621  -0.693   1.030  0.00  0.00    +0.149 A 
ATOM      7  C   LIG    1        0.654  -2.098   1.036  0.00  0.00    +0.147 A 
ATOM      8  C   LIG    1        1.297  -2.742   2.107  0.00  0.00    +0.167 A 
ATOM      9  N   LIG    1        1.182  -4.087   1.863  0.00  0.00    -0.288 N 
ATOM     10  C   LIG    1        0.498  -4.234   0.693  0.00  0.00    +0.203 A 
ATOM     11  N   LIG    1        1.845  -2.006   3.068  0.00  0.00    -0.216 NA
ATOM     12  C   LIG    1        1.789  -0.692   3.021  0.00  0.00    +0.225 A 
ATOM     13  N   LIG    1        0.190  -3.066   0.209  0.00  0.00    -0.231 NA
ATOM     14  N   LIG    1        1.201  -0.042   2.033  0.00  0.00    -0.219 NA
BRANCH   6  16
ATOM     15  C   LIG    1       -0.018   1.461   0.010  0.00  0.00    +0.127 C 
ATOM     16  N   LIG    1        0.002  -0.004   0.002  0.00  0.00    -0.330 N 
ATOM     17  H   LIG    1       -0.418  -0.491  -0.724  0.00  0.00    +0.147 HD
ENDBRANCH   6  16
ENDBRANCH   1   9
BRANCH   3  18
ATOM     18  O   LIG    1        1.211  -7.427   5.253  0.00  0.00    -0.281 OA
BRANCH  18  19
ATOM     19  P   LIG    1        0.346  -8.386   6.214  0.00  0.00    +0.473 P 
ATOM     20  O   LIG    1        0.058  -9.719   5.487  0.00  0.00    -0.228 OA
BRANCH  19  21
ATOM     21  O   LIG    1       -0.989  -7.693   6.567  0.00  0.00    -0.303 OA
ATOM     22  H   LIG    1       -1.487  -7.517   5.753  0.00  0.00    +0.222 HD
ENDBRANCH  19  21
BRANCH  19  23
ATOM     23  O   LIG    1        1.172  -8.680   7.564  0.00  0.00    -0.303 OA
ATOM     24  H   LIG    1        0.710  -9.253   8.191  0.00  0.00    +0.222 HD
ENDBRANCH  19  23
ENDBRANCH  18  19
ENDBRANCH   3  18
BRANCH   4  25
ATOM     25  C   LIG    1        1.532  -8.781   2.231  0.00  0.00    +0.206 C 
BRANCH  25  26
ATOM     26  O   LIG    1        2.600  -9.172   1.366  0.00  0.00    -0.284 OA
BRANCH  26  27
ATOM     27  P   LIG    1        2.573 -10.528   0.499  0.00  0.00    +0.472 P 
ATOM     28  O   LIG    1        2.323 -11.750   1.447  0.00  0.00    -0.228 OA
BRANCH  27  29
ATOM     29  O   LIG    1        3.947 -10.707  -0.233  0.00  0.00    -0.303 OA
ATOM     30  H   LIG    1        4.659 -10.757   0.424  0.00  0.00    +0.222 HD
ENDBRANCH  27  29
BRANCH  27  31
ATOM     31  O   LIG    1        1.423 -10.447  -0.562  0.00  0.00    -0.303 OA
ATOM     32  H   LIG    1        0.573 -10.336  -0.109  0.00  0.00    +0.222 HD
ENDBRANCH  27  31
ENDBRANCH  26  27
ENDBRANCH  25  26
ENDBRANCH   4  25
TORSDOF 11
