REMARK  Name = ZINC03927570
REMARK                            x       y       z     vdW  Elec       q    Type
REMARK                         _______ _______ _______ _____ _____    ______ ____
ROOT
ATOM      1  CA  GLY A  2       -1.493  -4.200  -1.400  0.00  0.00    +0.200 C 
ENDROOT
BRANCH   1   3
ATOM      2  C   ARG A  1       -1.743  -2.229   0.011  0.00  0.00    +0.199 C 
ATOM      3  N   GLY A  2       -1.479  -2.748  -1.204  0.00  0.00    -0.308 N 
ATOM      4  H   GLY A  2       -1.279  -2.161  -1.950  0.00  0.00    +0.149 HD
ATOM      5  O   ARG A  1       -1.993  -2.964   0.943  0.00  0.00    -0.278 OA
BRANCH   2   6
ATOM      6  CA  ARG A  1       -1.729  -0.736   0.212  0.00  0.00    +0.013 C 
BRANCH   6   7
ATOM      7  N   ARG A  1       -2.487  -0.397   1.424  0.00  0.00    +0.386 N 
ATOM      8  H1  ARG A  1       -3.440  -0.714   1.324  0.00  0.00    -0.089 HD
ATOM      9  H2  ARG A  1       -2.477   0.603   1.558  0.00  0.00    -0.089 HD
ATOM     10  H3  ARG A  1       -2.065  -0.848   2.222  0.00  0.00    -0.089 HD
ENDBRANCH   6   7
BRANCH   6  11
ATOM     11  CB  ARG A  1       -0.284  -0.256   0.364  0.00  0.00    -0.004 C 
BRANCH  11  12
ATOM     12  CG  ARG A  1       -0.260   1.272   0.443  0.00  0.00    +0.036 C 
BRANCH  12  13
ATOM     13  CD  ARG A  1        1.185   1.752   0.594  0.00  0.00    +0.195 C 
BRANCH  13  14
ATOM     14  NE  ARG A  1        1.208   3.215   0.670  0.00  0.00    -0.279 N 
ATOM     15  HE  ARG A  1        0.379   3.716   0.622  0.00  0.00    +0.258 HD
BRANCH  14  16
ATOM     16  CZ  ARG A  1        2.399   3.874   0.808  0.00  0.00    +0.341 C 
ATOM     17  NH1 ARG A  1        2.420   5.204   0.877  0.00  0.00    -0.292 N 
ATOM     18 HH11 ARG A  1        3.264   5.671   0.975  0.00  0.00    +0.255 HD
ATOM     19 HH12 ARG A  1        1.591   5.705   0.829  0.00  0.00    +0.255 HD
BRANCH  16  20
ATOM     20  NH2 ARG A  1        3.537   3.185   0.874  0.00  0.00    -0.292 N 
ATOM     21 HH21 ARG A  1        4.382   3.652   0.972  0.00  0.00    +0.255 HD
ATOM     22 HH22 ARG A  1        3.522   2.217   0.824  0.00  0.00    +0.255 HD
ENDBRANCH  16  20
ENDBRANCH  14  16
ENDBRANCH  13  14
ENDBRANCH  12  13
ENDBRANCH  11  12
ENDBRANCH   6  11
ENDBRANCH   2   6
ENDBRANCH   1   3
BRANCH   1  23
ATOM     23  C   GLY A  2       -1.168  -4.517  -2.837  0.00  0.00    +0.231 C 
ATOM     24  N   ASP A  3       -1.124  -5.799  -3.251  0.00  0.00    -0.302 N 
ATOM     25  H   ASP A  3       -1.231  -6.519  -2.610  0.00  0.00    +0.150 HD
ATOM     26  O   GLY A  2       -0.946  -3.619  -3.620  0.00  0.00    -0.274 OA
BRANCH  24  27
ATOM     27  CA  ASP A  3       -0.914  -6.104  -4.668  0.00  0.00    +0.169 C 
BRANCH  27  28
ATOM     28  C   ASP A  3       -2.222  -5.987  -5.406  0.00  0.00    +0.235 C 
ATOM     29  N   SER A  4       -2.272  -6.225  -6.732  0.00  0.00    -0.299 N 
ATOM     30  H   SER A  4       -1.465  -6.471  -7.211  0.00  0.00    +0.150 HD
ATOM     31  O   ASP A  3       -3.231  -5.679  -4.807  0.00  0.00    -0.274 OA
BRANCH  29  32
ATOM     32  CA  SER A  4       -3.544  -6.111  -7.450  0.00  0.00    +0.207 C 
BRANCH  32  33
ATOM     33  C   SER A  4       -4.303  -7.408  -7.335  0.00  0.00    +0.328 C 
ATOM     34  O   SER A  4       -3.825  -8.341  -6.712  0.00  0.00    -0.249 OA
BRANCH  33  35
ATOM     35  OXT SER A  4       -5.394  -7.525  -7.866  0.00  0.00    -0.479 OA
ATOM     36  HXT SER A  4       -5.761  -6.808  -8.345  0.00  0.00    +0.295 HD
ENDBRANCH  33  35
ENDBRANCH  32  33
BRANCH  32  37
ATOM     37  CB  SER A  4       -3.272  -5.807  -8.924  0.00  0.00    +0.189 C 
BRANCH  37  38
ATOM     38  OG  SER A  4       -2.599  -6.916  -9.523  0.00  0.00    -0.393 OA
ATOM     39  H   SER A  4       -2.394  -6.793 -10.460  0.00  0.00    +0.209 HD
ENDBRANCH  37  38
ENDBRANCH  32  37
ENDBRANCH  29  32
ENDBRANCH  27  28
BRANCH  27  40
ATOM     40  CB  ASP A  3       -0.374  -7.529  -4.809  0.00  0.00    +0.152 C 
BRANCH  40  41
ATOM     41  CG  ASP A  3        0.997  -7.610  -4.190  0.00  0.00    +0.307 C 
ATOM     42  OD1 ASP A  3        1.539  -6.600  -3.774  0.00  0.00    -0.251 OA
BRANCH  41  43
ATOM     43  OD2 ASP A  3        1.565  -8.686  -4.104  0.00  0.00    -0.481 OA
ATOM     44  HD2 ASP A  3        1.148  -9.462  -4.424  0.00  0.00    +0.295 HD
ENDBRANCH  41  43
ENDBRANCH  40  41
ENDBRANCH  27  40
ENDBRANCH  24  27
ENDBRANCH   1  23
TORSDOF 20
