REMARK  Name = ZINC03875283
REMARK                            x       y       z     vdW  Elec       q    Type
REMARK                         _______ _______ _______ _____ _____    ______ ____
ROOT
ATOM      1  C   UNK A  0       -1.338   4.979  -2.650  0.00  0.00    +0.026 C 
ATOM      2  C   UNK A  0       -0.813   3.542  -2.666  0.00  0.00    -0.037 C 
ATOM      3  C   UNK A  0        0.548   3.505  -3.364  0.00  0.00    +0.132 C 
ATOM      4  C   UNK A  0        0.399   4.009  -4.800  0.00  0.00    +0.173 C 
ATOM      5  C   UNK A  0       -0.126   5.446  -4.785  0.00  0.00    +0.179 C 
ATOM      6  C   UNK A  0       -1.488   5.484  -4.087  0.00  0.00    +0.116 C 
ENDROOT
BRANCH   2   7
ATOM      7  N   SER A  1       -0.668   3.065  -1.278  0.00  0.00    +0.388 N 
ATOM      8  H1  SER A  1        0.243   3.363  -0.910  0.00  0.00    -0.085 HD
ATOM      9  H2  SER A  1       -1.418   3.465  -0.702  0.00  0.00    -0.085 HD
BRANCH   7  10
ATOM     10  CA  SER A  1       -0.753   1.593  -1.232  0.00  0.00    -0.020 C 
BRANCH  10  11
ATOM     11  CB  SER A  1       -2.221   1.167  -1.159  0.00  0.00    +0.142 C 
BRANCH  11  12
ATOM     12  OG  SER A  1       -2.788   1.625   0.071  0.00  0.00    -0.397 OA
ATOM     13  H   SER A  1       -3.720   1.390   0.185  0.00  0.00    +0.209 HD
ENDBRANCH  11  12
ENDBRANCH  10  11
BRANCH  10  14
ATOM     14  C   SER A  1       -0.013   1.086   0.008  0.00  0.00    +0.142 C 
BRANCH  14  15
ATOM     15  O   SER A  1       -0.682   1.547   1.184  0.00  0.00    -0.397 OA
ATOM     16  H   SER A  1       -0.266   1.262   2.009  0.00  0.00    +0.209 HD
ENDBRANCH  14  15
ENDBRANCH  10  14
ENDBRANCH   7  10
ENDBRANCH   2   7
BRANCH   3  17
ATOM     17  O   UNK A  0        1.039   2.163  -3.378  0.00  0.00    -0.391 OA
ATOM     18  H   UNK A  0        1.900   2.063  -3.807  0.00  0.00    +0.210 HD
ENDBRANCH   3  17
BRANCH   4  19
ATOM     19  O   UNK A  0        1.670   3.974  -5.452  0.00  0.00    -0.387 OA
ATOM     20  H   UNK A  0        2.064   3.092  -5.499  0.00  0.00    +0.210 HD
ENDBRANCH   4  19
BRANCH   5  21
ATOM     21  O   UNK A  0        0.794   6.282  -4.080  0.00  0.00    -0.386 OA
ATOM     22  H   UNK A  0        1.679   6.306  -4.467  0.00  0.00    +0.210 HD
ENDBRANCH   5  21
BRANCH   6  23
ATOM     23  O   UNK A  0       -2.408   4.648  -4.792  0.00  0.00    -0.384 OA
ATOM     24  H   UNK A  0       -2.551   4.910  -5.711  0.00  0.00    +0.210 HD
ENDBRANCH   6  23
BRANCH   6  25
ATOM     25  C   UNK A  0       -2.013   6.921  -4.071  0.00  0.00    +0.193 C 
BRANCH  25  26
ATOM     26  O   UNK A  0       -2.152   7.392  -5.413  0.00  0.00    -0.392 OA
ATOM     27  H   UNK A  0       -2.482   8.298  -5.479  0.00  0.00    +0.210 HD
ENDBRANCH  25  26
ENDBRANCH   6  25
TORSDOF 12
