REMARK  Name = ZINC03874923
REMARK                            x       y       z     vdW  Elec       q    Type
REMARK                         _______ _______ _______ _____ _____    ______ ____
ROOT
ATOM      1  C   UNK A  1       -1.549   3.806   2.677  0.00  0.00    +0.169 C 
ENDROOT
BRANCH   1   2
ATOM      2  C   UNK A  1       -3.035   3.838   2.430  0.00  0.00    +0.235 C 
ATOM      3  N   GLY A  2       -3.872   4.243   3.406  0.00  0.00    -0.303 N 
ATOM      4  H   GLY A  2       -3.518   4.514   4.267  0.00  0.00    +0.149 HD
ATOM      5  O   UNK A  1       -3.478   3.500   1.353  0.00  0.00    -0.274 OA
BRANCH   3   6
ATOM      6  CA  GLY A  2       -5.317   4.274   3.165  0.00  0.00    +0.224 C 
BRANCH   6   7
ATOM      7  C   GLY A  2       -6.022   4.760   4.405  0.00  0.00    +0.322 C 
ATOM      8  O   GLY A  2       -5.384   5.051   5.389  0.00  0.00    -0.249 OA
BRANCH   7   9
ATOM      9  OXT GLY A  2       -7.360   4.870   4.417  0.00  0.00    -0.480 OA
ATOM     10  HXT GLY A  2       -7.855   4.645   3.654  0.00  0.00    +0.295 HD
ENDBRANCH   7   9
ENDBRANCH   6   7
ENDBRANCH   3   6
ENDBRANCH   1   2
BRANCH   1  11
ATOM     11  N   UNK A  1       -0.863   3.334   1.472  0.00  0.00    -0.303 N 
ATOM     12  H   UNK A  1       -0.509   3.973   0.834  0.00  0.00    +0.149 HD
ATOM     13  C   UNK A  1       -0.724   2.012   1.250  0.00  0.00    +0.214 C 
ATOM     14  O   UNK A  1       -1.167   1.213   2.049  0.00  0.00    -0.276 OA
BRANCH  13  15
ATOM     15  C   UNK A  1       -0.019   1.526   0.010  0.00  0.00    +0.095 C 
BRANCH  15  16
ATOM     16  C   UNK A  1        0.002  -0.004   0.002  0.00  0.00    +0.004 C 
BRANCH  16  17
ATOM     17  C   UNK A  1        0.718  -0.497  -1.257  0.00  0.00    +0.036 C 
BRANCH  17  18
ATOM     18  N   UNK A  1       -0.043  -0.123  -2.462  0.00  0.00    +0.387 N 
ATOM     19  H   UNK A  1        0.437  -0.492  -3.292  0.00  0.00    -0.089 HD
ATOM     20  H   UNK A  1       -0.103   0.891  -2.536  0.00  0.00    -0.089 HD
ATOM     21  H   UNK A  1       -0.982  -0.516  -2.418  0.00  0.00    -0.089 HD
ENDBRANCH  17  18
BRANCH  17  22
ATOM     22  C   UNK A  1        0.847  -1.998  -1.206  0.00  0.00    +0.290 C 
ATOM     23  O   UNK A  1        0.076  -2.692  -1.825  0.00  0.00    -0.253 OA
BRANCH  22  24
ATOM     24  O   UNK A  1        1.819  -2.564  -0.472  0.00  0.00    -0.482 OA
ATOM     25  H   UNK A  1        2.417  -2.025   0.008  0.00  0.00    +0.295 HD
ENDBRANCH  22  24
ENDBRANCH  17  22
ENDBRANCH  16  17
ENDBRANCH  15  16
ENDBRANCH  13  15
ENDBRANCH   1  11
BRANCH   1  26
ATOM     26  C   UNK A  1       -1.059   5.214   3.024  0.00  0.00    +0.100 C 
BRANCH  26  27
ATOM     27  S   UNK A  1        0.730   5.175   3.322  0.00  0.00    -0.158 S 
BRANCH  27  28
ATOM     28  C   UNK A  1        1.146   6.897   3.715  0.00  0.00    +0.069 C 
BRANCH  28  29
ATOM     29  C   UNK A  1        2.647   7.008   3.992  0.00  0.00    +0.011 C 
BRANCH  29  30
ATOM     30  C   UNK A  1        2.998   8.460   4.323  0.00  0.00    +0.001 C 
BRANCH  30  31
ATOM     31  C   UNK A  1        4.499   8.571   4.600  0.00  0.00    -0.000 C 
BRANCH  31  33
ATOM     32  C   UNK A  1        6.351  10.134   5.208  0.00  0.00    +0.004 C 
ATOM     33  C   UNK A  1        4.850  10.023   4.931  0.00  0.00    -0.003 C 
ENDBRANCH  31  33
ENDBRANCH  30  31
ENDBRANCH  29  30
ENDBRANCH  28  29
ENDBRANCH  27  28
ENDBRANCH  26  27
ENDBRANCH   1  26
TORSDOF 18
