REMARK  Name = ZINC03918138
REMARK                            x       y       z     vdW  Elec       q    Type
REMARK                         _______ _______ _______ _____ _____    ______ ____
ROOT
ATOM      1  C   LIG    1       -1.759   4.548   2.258  0.00  0.00    +0.157 C 
ATOM      2  C   LIG    1       -3.240   4.178   2.125  0.00  0.00    +0.195 C 
ATOM      3  C   LIG    1       -4.041   4.944   3.142  0.00  0.00    +0.068 C 
ATOM      4  C   LIG    1       -3.567   6.020   3.752  0.00  0.00    +0.204 C 
ATOM      5  O   LIG    1       -2.326   6.514   3.519  0.00  0.00    -0.477 OA
ATOM      6  C   LIG    1       -1.650   6.076   2.337  0.00  0.00    +0.228 C 
ENDROOT
BRANCH   1   9
ATOM      7  C   LIG    1        0.203   2.294  -0.135  0.00  0.00    +0.109 C 
ATOM      8  C   LIG    1       -0.556   2.795   1.067  0.00  0.00    +0.210 C 
ATOM      9  N   LIG    1       -1.021   4.060   1.090  0.00  0.00    -0.305 N 
ATOM     10  H   LIG    1       -0.868   4.647   0.333  0.00  0.00    +0.149 HD
ATOM     11  O   LIG    1       -0.748   2.061   2.013  0.00  0.00    -0.276 OA
ENDBRANCH   1   9
BRANCH   2  12
ATOM     12  N   LIG    1       -3.407   2.740   2.353  0.00  0.00    -0.270 N 
ATOM     13  H   LIG    1       -2.759   2.256   2.888  0.00  0.00    +0.258 HD
BRANCH  12  14
ATOM     14  C   LIG    1       -4.483   2.078   1.810  0.00  0.00    +0.341 C 
ATOM     15  N   LIG    1       -5.332   2.796   1.090  0.00  0.00    -0.292 N 
ATOM     16  H   LIG    1       -5.171   3.802   0.959  0.00  0.00    +0.255 HD
ATOM     17  H   LIG    1       -6.146   2.350   0.666  0.00  0.00    +0.255 HD
BRANCH  14  18
ATOM     18  N   LIG    1       -4.639   0.729   2.024  0.00  0.00    -0.292 N 
ATOM     19  H   LIG    1       -5.398   0.262   1.641  0.00  0.00    +0.255 HD
ATOM     20  H   LIG    1       -3.991   0.244   2.559  0.00  0.00    +0.255 HD
ENDBRANCH  14  18
ENDBRANCH  12  14
ENDBRANCH   2  12
BRANCH   4  21
ATOM     21  C   LIG    1       -4.427   6.711   4.729  0.00  0.00    +0.372 C 
ATOM     22  O   LIG    1       -5.544   6.292   4.958  0.00  0.00    -0.242 OA
BRANCH  21  23
ATOM     23  O   LIG    1       -3.974   7.809   5.367  0.00  0.00    -0.475 OA
ATOM     24  H   LIG    1       -3.113   8.132   5.190  0.00  0.00    +0.296 HD
ENDBRANCH  21  23
ENDBRANCH   4  21
BRANCH   6  25
ATOM     25  C   LIG    1       -0.178   6.485   2.404  0.00  0.00    +0.187 C 
BRANCH  25  26
ATOM     26  O   LIG    1        0.454   5.814   3.496  0.00  0.00    -0.385 OA
ATOM     27  H   LIG    1        0.064   6.012   4.359  0.00  0.00    +0.210 HD
ENDBRANCH  25  26
BRANCH  25  28
ATOM     28  C   LIG    1       -0.077   7.998   2.609  0.00  0.00    +0.172 C 
BRANCH  28  29
ATOM     29  O   LIG    1       -0.709   8.670   1.517  0.00  0.00    -0.387 OA
ATOM     30  H   LIG    1       -0.318   8.472   0.655  0.00  0.00    +0.210 HD
ENDBRANCH  28  29
BRANCH  28  31
ATOM     31  C   LIG    1        1.396   8.407   2.676  0.00  0.00    +0.189 C 
BRANCH  31  32
ATOM     32  O   LIG    1        1.490   9.800   2.983  0.00  0.00    -0.392 OA
ATOM     33  H   LIG    1        2.397  10.129   3.041  0.00  0.00    +0.210 HD
ENDBRANCH  31  32
ENDBRANCH  28  31
ENDBRANCH  25  28
ENDBRANCH   6  25
TORSDOF 12
