REMARK  Name = ZINC03931527
REMARK                            x       y       z     vdW  Elec       q    Type
REMARK                         _______ _______ _______ _____ _____    ______ ____
ROOT
ATOM      1  N   LIG    1        3.880  -3.917  -2.938  0.00  0.00    -0.187 N 
ATOM      2  C   LIG    1        3.967  -2.808  -3.781  0.00  0.00    +0.059 A 
ATOM      3  C   LIG    1        2.959  -1.942  -4.210  0.00  0.00    +0.026 A 
ATOM      4  C   LIG    1        3.256  -0.892  -5.053  0.00  0.00    +0.022 A 
ATOM      5  C   LIG    1        4.557  -0.689  -5.480  0.00  0.00    +0.041 A 
ATOM      6 CL   LIG    1        4.928   0.633  -6.542  0.00  0.00    -0.084 Cl
ATOM      7  C   LIG    1        5.560  -1.542  -5.059  0.00  0.00    +0.028 A 
ATOM      8  C   LIG    1        5.266  -2.595  -4.214  0.00  0.00    +0.015 A 
ATOM      9  C   LIG    1        6.154  -3.660  -3.610  0.00  0.00    +0.148 C 
ATOM     10  C   LIG    1        5.204  -4.521  -2.761  0.00  0.00    +0.224 C 
ENDROOT
BRANCH   9  11
ATOM     11  C   LIG    1        6.794  -4.488  -4.695  0.00  0.00    +0.009 A 
ATOM     12  C   LIG    1        6.122  -4.711  -5.882  0.00  0.00    +0.008 A 
ATOM     13  C   LIG    1        6.708  -5.470  -6.877  0.00  0.00    +0.000 A 
ATOM     14  C   LIG    1        7.967  -6.007  -6.686  0.00  0.00    +0.001 A 
ATOM     15  C   LIG    1        8.640  -5.786  -5.499  0.00  0.00    +0.020 A 
ATOM     16  C   LIG    1        8.056  -5.021  -4.505  0.00  0.00    +0.047 A 
ATOM     17 CL   LIG    1        8.904  -4.737  -3.017  0.00  0.00    -0.083 Cl
ENDBRANCH   9  11
BRANCH  10  18
ATOM     18  C   LIG    1        5.202  -5.942  -3.263  0.00  0.00    +0.242 C 
ATOM     19  N   LIG    1        5.934  -6.880  -2.631  0.00  0.00    -0.288 N 
ATOM     20  C   LIG    1        6.773  -6.657  -1.439  0.00  0.00    +0.109 C 
ATOM     21  C   LIG    1        6.876  -8.046  -0.761  0.00  0.00    +0.021 C 
ATOM     22  C   LIG    1        6.952  -8.989  -1.991  0.00  0.00    +0.033 C 
ATOM     23  C   LIG    1        6.022  -8.298  -3.011  0.00  0.00    +0.162 C 
ATOM     24  O   LIG    1        4.541  -6.241  -4.235  0.00  0.00    -0.273 OA
BRANCH  23  25
ATOM     25  C   LIG    1        4.654  -8.926  -2.969  0.00  0.00    +0.231 C 
ATOM     26  N   LIG    1        4.500 -10.228  -3.283  0.00  0.00    -0.328 N 
ATOM     27  H   LIG    1        3.619 -10.633  -3.256  0.00  0.00    +0.145 HD
ATOM     28  H   LIG    1        5.270 -10.760  -3.536  0.00  0.00    +0.145 HD
ATOM     29  O   LIG    1        3.690  -8.261  -2.652  0.00  0.00    -0.274 OA
ENDBRANCH  23  25
ENDBRANCH  10  18
BRANCH   1  30
ATOM     30  S   LIG    1        2.485  -4.467  -2.234  0.00  0.00    +0.076 S 
ATOM     31  O   LIG    1        1.413  -4.014  -3.048  0.00  0.00    -0.150 OA
ATOM     32  O   LIG    1        2.692  -5.843  -1.943  0.00  0.00    -0.150 OA
BRANCH  30  36
ATOM     33  C   LIG    1        2.067  -2.345   1.748  0.00  0.00    +0.162 A 
ATOM     34  C   LIG    1        1.516  -1.792   0.604  0.00  0.00    +0.051 A 
ATOM     35  C   LIG    1        1.646  -2.442  -0.609  0.00  0.00    +0.032 A 
ATOM     36  C   LIG    1        2.324  -3.644  -0.684  0.00  0.00    +0.112 A 
ATOM     37  C   LIG    1        2.876  -4.202   0.454  0.00  0.00    +0.078 A 
ATOM     38  C   LIG    1        2.755  -3.553   1.672  0.00  0.00    +0.163 A 
BRANCH  33  40
ATOM     39  C   LIG    1        1.222  -0.472   2.946  0.00  0.00    +0.277 C 
ATOM     40  O   LIG    1        1.941  -1.707   2.943  0.00  0.00    -0.491 OA
ENDBRANCH  33  40
BRANCH  38  41
ATOM     41  O   LIG    1        3.302  -4.097   2.792  0.00  0.00    -0.491 OA
ATOM     42  C   LIG    1        3.994  -5.338   2.638  0.00  0.00    +0.277 C 
ENDBRANCH  38  41
ENDBRANCH  30  36
ENDBRANCH   1  30
BRANCH   9  43
ATOM     43  O   LIG    1        7.154  -3.065  -2.781  0.00  0.00    -0.377 OA
ATOM     44  H   LIG    1        7.794  -2.523  -3.263  0.00  0.00    +0.211 HD
ENDBRANCH   9  43
TORSDOF 8
