REMARK  Name = ZINC03949168
REMARK                            x       y       z     vdW  Elec       q    Type
REMARK                         _______ _______ _______ _____ _____    ______ ____
ROOT
ATOM      1  C   LIG    1       -4.982  -0.605  -3.657  0.00  0.00    +0.130 A 
ATOM      2  C   LIG    1       -5.476  -1.894  -3.600  0.00  0.00    +0.067 A 
ATOM      3  C   LIG    1       -6.834  -1.841  -3.900  0.00  0.00    +0.166 A 
ATOM      4  N   LIG    1       -7.166  -0.596  -4.139  0.00  0.00    -0.162 NA
ATOM      5  N   LIG    1       -6.029   0.210  -3.996  0.00  0.00    -0.224 N 
ENDROOT
BRANCH   5   6
ATOM      6  C   LIG    1       -5.974   1.598  -4.168  0.00  0.00    +0.102 A 
ATOM      7  C   LIG    1       -5.609   2.401  -3.111  0.00  0.00    +0.039 A 
ATOM      8  C   LIG    1       -5.549   3.793  -3.288  0.00  0.00    -0.016 A 
ATOM      9  C   LIG    1       -5.176   4.646  -2.234  0.00  0.00    +0.008 A 
ATOM     10  C   LIG    1       -5.133   5.990  -2.438  0.00  0.00    +0.001 A 
ATOM     11  C   LIG    1       -5.453   6.538  -3.678  0.00  0.00    +0.001 A 
ATOM     12  C   LIG    1       -5.819   5.745  -4.722  0.00  0.00    +0.008 A 
ATOM     13  C   LIG    1       -5.875   4.351  -4.550  0.00  0.00    -0.015 A 
ATOM     14  C   LIG    1       -6.249   3.503  -5.607  0.00  0.00    +0.049 A 
ATOM     15  C   LIG    1       -6.295   2.156  -5.413  0.00  0.00    +0.149 A 
ATOM     16  F   LIG    1       -6.655   1.348  -6.433  0.00  0.00    -0.203 F 
ENDBRANCH   5   6
BRANCH   1  19
ATOM     17  N   LIG    1       -3.228   1.092  -3.615  0.00  0.00    -0.278 N 
ATOM     18  H   LIG    1       -3.894   1.753  -3.860  0.00  0.00    +0.155 HD
ATOM     19  C   LIG    1       -3.595  -0.188  -3.407  0.00  0.00    +0.267 C 
ATOM     20  O   LIG    1       -2.778  -0.999  -3.012  0.00  0.00    -0.268 OA
BRANCH  17  24
ATOM     21  C   LIG    1        0.769   2.207  -3.219  0.00  0.00    +0.064 A 
ATOM     22  C   LIG    1        0.434   0.873  -3.459  0.00  0.00    +0.018 A 
ATOM     23  C   LIG    1       -0.888   0.507  -3.586  0.00  0.00    +0.027 A 
ATOM     24  C   LIG    1       -1.889   1.465  -3.481  0.00  0.00    +0.069 A 
ATOM     25  C   LIG    1       -1.560   2.796  -3.235  0.00  0.00    +0.145 A 
ATOM     26  F   LIG    1       -2.536   3.724  -3.128  0.00  0.00    -0.204 F 
ATOM     27  C   LIG    1       -0.238   3.167  -3.108  0.00  0.00    +0.056 A 
BRANCH  21  28
ATOM     28  C   LIG    1        2.188   2.602  -3.082  0.00  0.00    +0.270 C 
ATOM     29  N   LIG    1        2.575   3.693  -3.726  0.00  0.00    -0.288 N 
ATOM     30  H   LIG    1        1.899   4.223  -4.289  0.00  0.00    +0.301 HD
ATOM     31  H   LIG    1        3.543   4.006  -3.663  0.00  0.00    +0.301 HD
BRANCH  28  33
ATOM     32  C   LIG    1        4.478   2.139  -2.303  0.00  0.00    +0.276 C 
ATOM     33  N   LIG    1        3.042   1.844  -2.311  0.00  0.00    -0.229 N 
ATOM     34  C   LIG    1        2.516   0.745  -1.498  0.00  0.00    +0.276 C 
ENDBRANCH  28  33
ENDBRANCH  21  28
ENDBRANCH  17  24
ENDBRANCH   1  19
BRANCH   3  35
ATOM     35  C   LIG    1       -7.769  -3.022  -3.949  0.00  0.00    +0.436 C 
ATOM     36  F   LIG    1       -7.891  -3.572  -2.669  0.00  0.00    -0.164 F 
ATOM     37  F   LIG    1       -7.256  -3.986  -4.824  0.00  0.00    -0.164 F 
ATOM     38  F   LIG    1       -9.025  -2.604  -4.399  0.00  0.00    -0.164 F 
ENDBRANCH   3  35
TORSDOF 6
