REMARK  Name = ZINC04011612
REMARK                            x       y       z     vdW  Elec       q    Type
REMARK                         _______ _______ _______ _____ _____    ______ ____
ROOT
ATOM      1  C   LIG    1       -0.830   2.539  -1.859  0.00  0.00    +0.014 C 
ATOM      2  C   LIG    1       -0.880   1.049  -1.520  0.00  0.00    -0.003 C 
ATOM      3  C   LIG    1       -2.204   0.439  -1.897  0.00  0.00    +0.010 C 
ATOM      4  C   LIG    1       -3.284   0.745  -0.854  0.00  0.00    +0.005 C 
ATOM      5  C   LIG    1       -2.852   1.775   0.174  0.00  0.00    +0.005 C 
ATOM      6  C   LIG    1       -1.567   1.356   0.897  0.00  0.00    +0.000 C 
ATOM      7  C   LIG    1       -1.042   2.597   1.629  0.00  0.00    +0.031 C 
ATOM      8  C   LIG    1       -2.122   3.045   2.580  0.00  0.00    -0.027 C 
ATOM      9  C   LIG    1       -3.379   2.780   2.405  0.00  0.00    -0.062 C 
ATOM     10  C   LIG    1       -4.381   3.217   3.460  0.00  0.00    +0.062 C 
ATOM     11  C   LIG    1       -5.238   1.995   3.812  0.00  0.00    +0.119 C 
ATOM     12  C   LIG    1       -4.604   0.725   3.257  0.00  0.00    +0.032 C 
ATOM     13  C   LIG    1       -4.550   0.725   1.729  0.00  0.00    +0.016 C 
ATOM     14  C   LIG    1       -3.935   2.024   1.222  0.00  0.00    +0.018 C 
ATOM     15  C   LIG    1        0.343   0.407  -2.209  0.00  0.00    +0.121 C 
ATOM     16  C   LIG    1        1.521   0.739  -1.259  0.00  0.00    +0.032 C 
ATOM     17  C   LIG    1        0.890   1.225   0.075  0.00  0.00    +0.007 C 
ATOM     18  C   LIG    1       -0.567   0.755  -0.039  0.00  0.00    +0.001 C 
ENDROOT
BRANCH  11  19
ATOM     19  O   LIG    1       -6.554   2.154   3.278  0.00  0.00    -0.391 OA
ATOM     20  H   LIG    1       -7.022   2.931   3.611  0.00  0.00    +0.210 HD
ENDBRANCH  11  19
BRANCH  15  21
ATOM     21  O   LIG    1        0.545   1.008  -3.486  0.00  0.00    -0.391 OA
ATOM     22  H   LIG    1        1.339   0.701  -3.944  0.00  0.00    +0.210 HD
ENDBRANCH  15  21
BRANCH  14  23
ATOM     23  C   LIG    1       -5.031   2.872   0.570  0.00  0.00    +0.167 C 
BRANCH  23  24
ATOM     24  O   LIG    1       -4.501   4.154   0.228  0.00  0.00    -0.394 OA
ATOM     25  H   LIG    1       -5.141   4.746  -0.190  0.00  0.00    +0.209 HD
ENDBRANCH  23  24
ENDBRANCH  14  23
TORSDOF 4
