REMARK  Name = ZINC04014016
REMARK                            x       y       z     vdW  Elec       q    Type
REMARK                         _______ _______ _______ _____ _____    ______ ____
ROOT
ATOM      1  N   LIG    1       -1.191   1.870   0.018  0.00  0.00    -0.281 N 
ATOM      2  H   LIG    1       -1.205   2.836   0.098  0.00  0.00    +0.155 HD
ATOM      3  C   LIG    1       -0.014   1.212   0.007  0.00  0.00    +0.252 C 
ATOM      4  O   LIG    1        0.002  -0.004  -0.009  0.00  0.00    -0.270 OA
ENDROOT
BRANCH   3   5
ATOM      5  C   LIG    1        1.253   1.967   0.007  0.00  0.00    +0.080 A 
ATOM      6  C   LIG    1        1.238   3.364   0.024  0.00  0.00    +0.031 A 
ATOM      7  C   LIG    1        2.426   4.064   0.025  0.00  0.00    +0.015 A 
ATOM      8  I   LIG    1        2.402   6.159   0.051  0.00  0.00    -0.044 I 
ATOM      9  C   LIG    1        3.636   3.388   0.009  0.00  0.00    +0.032 A 
ATOM     10  C   LIG    1        3.664   2.007  -0.008  0.00  0.00    +0.056 A 
ATOM     11  I   LIG    1        5.500   0.999  -0.032  0.00  0.00    -0.040 I 
ATOM     12  C   LIG    1        2.478   1.287  -0.005  0.00  0.00    +0.142 A 
BRANCH  12  13
ATOM     13  O   LIG    1        2.505  -0.069  -0.016  0.00  0.00    -0.505 OA
ATOM     14  H   LIG    1        2.508  -0.455  -0.903  0.00  0.00    +0.292 HD
ENDBRANCH  12  13
ENDBRANCH   3   5
BRANCH   1  18
ATOM     15  C   LIG    1       -4.768  -0.250  -0.291  0.00  0.00    +0.120 A 
ATOM     16  C   LIG    1       -3.694  -0.797   0.397  0.00  0.00    +0.047 A 
ATOM     17  C   LIG    1       -2.509  -0.096   0.499  0.00  0.00    +0.027 A 
ATOM     18  C   LIG    1       -2.392   1.158  -0.086  0.00  0.00    +0.034 A 
ATOM     19  C   LIG    1       -3.469   1.708  -0.770  0.00  0.00    +0.027 A 
ATOM     20  C   LIG    1       -4.651   1.003  -0.876  0.00  0.00    +0.047 A 
BRANCH  15  22
ATOM     21  C   LIG    1       -6.997  -0.317  -1.114  0.00  0.00    +0.277 C 
ATOM     22  O   LIG    1       -5.934  -0.941  -0.392  0.00  0.00    -0.495 OA
ENDBRANCH  15  22
ENDBRANCH   1  18
TORSDOF 4
