REMARK  Name = ZINC04095645
REMARK                            x       y       z     vdW  Elec       q    Type
REMARK                         _______ _______ _______ _____ _____    ______ ____
ROOT
ATOM      1  C   LIG    1       -3.599  -0.295  -1.050  0.00  0.00    +0.233 C 
ATOM      2  N   LIG    1       -4.045  -1.565  -1.104  0.00  0.00    -0.314 N 
ATOM      3  H   LIG    1       -3.413  -2.301  -1.127  0.00  0.00    +0.149 HD
ATOM      4  O   LIG    1       -4.387   0.620  -0.933  0.00  0.00    -0.274 OA
ENDROOT
BRANCH   1   5
ATOM      5  C   LIG    1       -2.122  -0.010  -1.135  0.00  0.00    +0.159 C 
BRANCH   5   6
ATOM      6  N   LIG    1       -1.915   1.390  -1.512  0.00  0.00    -0.302 N 
ATOM      7  H   LIG    1       -2.575   2.060  -1.272  0.00  0.00    +0.150 HD
ATOM      8  C   LIG    1       -0.808   1.748  -2.192  0.00  0.00    +0.246 C 
ATOM      9  O   LIG    1       -0.028   0.900  -2.572  0.00  0.00    -0.273 OA
BRANCH   8  10
ATOM     10  C   LIG    1       -0.539   3.203  -2.482  0.00  0.00    +0.244 C 
ATOM     11  C   LIG    1       -0.246   4.124  -1.296  0.00  0.00    +0.265 C 
ATOM     12  O   LIG    1        0.771   3.705  -2.210  0.00  0.00    -0.347 OA
BRANCH  11  13
ATOM     13  C   LIG    1       -0.723   5.551  -1.380  0.00  0.00    +0.337 C 
ATOM     14  O   LIG    1       -1.918   5.793  -1.416  0.00  0.00    -0.248 OA
BRANCH  13  15
ATOM     15  O   LIG    1        0.085   6.463  -1.412  0.00  0.00    -0.479 OA
ATOM     16  H   LIG    1        1.003   6.276  -1.384  0.00  0.00    +0.295 HD
ENDBRANCH  13  15
ENDBRANCH  11  13
ENDBRANCH   8  10
ENDBRANCH   5   6
BRANCH   5  17
ATOM     17  C   LIG    1       -1.473  -0.273   0.226  0.00  0.00    +0.034 C 
BRANCH  17  19
ATOM     18  C   LIG    1       -0.714  -2.564  -0.421  0.00  0.00    +0.007 C 
ATOM     19  C   LIG    1       -1.573  -1.763   0.559  0.00  0.00    -0.015 C 
ATOM     20  C   LIG    1       -1.075  -2.001   1.986  0.00  0.00    +0.007 C 
ENDBRANCH  17  19
ENDBRANCH   5  17
ENDBRANCH   1   5
BRANCH   2  21
ATOM     21  C   LIG    1       -5.484  -1.836  -1.129  0.00  0.00    +0.104 C 
BRANCH  21  22
ATOM     22  C   LIG    1       -5.718  -3.347  -1.191  0.00  0.00    +0.022 C 
BRANCH  22  23
ATOM     23  C   LIG    1       -7.221  -3.630  -1.216  0.00  0.00    +0.038 C 
BRANCH  23  24
ATOM     24  C   LIG    1       -7.455  -5.141  -1.278  0.00  0.00    +0.196 C 
BRANCH  24  25
ATOM     25  N   LIG    1       -8.895  -5.412  -1.303  0.00  0.00    -0.279 N 
ATOM     26  H   LIG    1       -9.527  -4.677  -1.280  0.00  0.00    +0.258 HD
BRANCH  25  27
ATOM     27  C   LIG    1       -9.347  -6.702  -1.358  0.00  0.00    +0.341 C 
ATOM     28  N   LIG    1      -10.656  -6.948  -1.381  0.00  0.00    -0.292 N 
ATOM     29  H   LIG    1      -10.976  -7.862  -1.419  0.00  0.00    +0.255 HD
ATOM     30  H   LIG    1      -11.288  -6.213  -1.358  0.00  0.00    +0.255 HD
BRANCH  27  31
ATOM     31  N   LIG    1       -8.479  -7.711  -1.389  0.00  0.00    -0.292 N 
ATOM     32  H   LIG    1       -8.799  -8.626  -1.428  0.00  0.00    +0.255 HD
ATOM     33  H   LIG    1       -7.526  -7.532  -1.372  0.00  0.00    +0.255 HD
ENDBRANCH  27  31
ENDBRANCH  25  27
ENDBRANCH  24  25
ENDBRANCH  23  24
ENDBRANCH  22  23
ENDBRANCH  21  22
ENDBRANCH   2  21
TORSDOF 14
