REMARK  Name = ZINC03941496
REMARK                            x       y       z     vdW  Elec       q    Type
REMARK                         _______ _______ _______ _____ _____    ______ ____
ROOT
ATOM      1  N   LIG    1        1.513   3.107  -1.289  0.00  0.00    -0.220 NA
ENDROOT
BRANCH   1   2
ATOM      2  N   LIG    1        1.054   3.617  -2.470  0.00  0.00    -0.246 N 
ATOM      3  H   LIG    1        0.955   4.576  -2.578  0.00  0.00    +0.169 HD
ATOM      4  C   LIG    1        0.738   2.788  -3.484  0.00  0.00    +0.248 C 
ATOM      5  O   LIG    1        0.960   1.600  -3.388  0.00  0.00    -0.272 OA
BRANCH   4   6
ATOM      6  C   LIG    1        0.109   3.338  -4.739  0.00  0.00    +0.169 C 
BRANCH   6   7
ATOM      7  C   LIG    1        1.161   3.412  -5.847  0.00  0.00    -0.011 C 
ATOM      8  C   LIG    1        2.366   4.215  -5.353  0.00  0.00    +0.013 C 
ATOM      9  C   LIG    1        0.560   4.098  -7.075  0.00  0.00    +0.013 C 
ATOM     10  C   LIG    1        1.609   1.998  -6.221  0.00  0.00    +0.013 C 
ENDBRANCH   6   7
BRANCH   6  11
ATOM     11  N   LIG    1       -0.417   4.679  -4.474  0.00  0.00    -0.269 N 
ATOM     12  H   LIG    1        0.113   5.318  -3.971  0.00  0.00    +0.153 HD
ATOM     13  C   LIG    1       -1.638   5.027  -4.928  0.00  0.00    +0.401 C 
ATOM     14  O   LIG    1       -2.302   4.227  -5.557  0.00  0.00    -0.226 OA
BRANCH  13  15
ATOM     15  O   LIG    1       -2.121   6.260  -4.684  0.00  0.00    -0.454 OA
ATOM     16  C   LIG    1       -3.442   6.564  -5.204  0.00  0.00    +0.282 C 
ENDBRANCH  13  15
ENDBRANCH   6  11
ENDBRANCH   4   6
ENDBRANCH   1   2
BRANCH   1  17
ATOM     17  C   LIG    1        2.835   3.656  -0.957  0.00  0.00    +0.139 C 
BRANCH  17  18
ATOM     18  C   LIG    1        3.834   3.278  -2.052  0.00  0.00    +0.151 C 
BRANCH  18  19
ATOM     19  O   LIG    1        3.920   1.855  -2.147  0.00  0.00    -0.389 OA
ATOM     20  H   LIG    1        4.212   1.423  -1.333  0.00  0.00    +0.210 HD
ENDBRANCH  18  19
BRANCH  18  21
ATOM     21  C   LIG    1        5.210   3.850  -1.706  0.00  0.00    +0.107 C 
BRANCH  21  23
ATOM     22  C   LIG    1        6.545   3.984   0.328  0.00  0.00    +0.234 C 
ATOM     23  N   LIG    1        5.659   3.301  -0.424  0.00  0.00    -0.308 N 
ATOM     24  H   LIG    1        5.319   2.446  -0.117  0.00  0.00    +0.149 HD
ATOM     25  O   LIG    1        6.911   5.087  -0.017  0.00  0.00    -0.274 OA
BRANCH  22  26
ATOM     26  C   LIG    1        7.081   3.376   1.599  0.00  0.00    +0.167 C 
BRANCH  26  27
ATOM     27  N   LIG    1        8.433   3.880   1.849  0.00  0.00    -0.269 N 
ATOM     28  H   LIG    1        8.707   4.735   1.483  0.00  0.00    +0.153 HD
ATOM     29  C   LIG    1        9.297   3.155   2.587  0.00  0.00    +0.401 C 
ATOM     30  O   LIG    1        8.953   2.083   3.046  0.00  0.00    -0.226 OA
BRANCH  29  31
ATOM     31  O   LIG    1       10.540   3.618   2.817  0.00  0.00    -0.454 OA
ATOM     32  C   LIG    1       11.416   2.784   3.620  0.00  0.00    +0.282 C 
ENDBRANCH  29  31
ENDBRANCH  26  27
BRANCH  26  34
ATOM     33  C   LIG    1        4.784   3.146   2.555  0.00  0.00    +0.013 C 
ATOM     34  C   LIG    1        6.171   3.756   2.769  0.00  0.00    -0.011 C 
ATOM     35  C   LIG    1        6.052   5.279   2.849  0.00  0.00    +0.013 C 
ATOM     36  C   LIG    1        6.767   3.221   4.073  0.00  0.00    +0.013 C 
ENDBRANCH  26  34
ENDBRANCH  22  26
ENDBRANCH  21  23
BRANCH  21  37
ATOM     37  C   LIG    1        6.210   3.472  -2.801  0.00  0.00    +0.060 C 
BRANCH  37  38
ATOM     38  C   LIG    1        7.534   4.136  -2.524  0.00  0.00    -0.046 A 
ATOM     39  C   LIG    1        7.800   5.389  -3.044  0.00  0.00    +0.004 A 
ATOM     40  C   LIG    1        9.012   6.001  -2.786  0.00  0.00    +0.000 A 
ATOM     41  C   LIG    1        9.963   5.355  -2.017  0.00  0.00    +0.000 A 
ATOM     42  C   LIG    1        9.698   4.100  -1.502  0.00  0.00    +0.000 A 
ATOM     43  C   LIG    1        8.484   3.491  -1.756  0.00  0.00    +0.004 A 
ENDBRANCH  37  38
ENDBRANCH  21  37
ENDBRANCH  18  21
ENDBRANCH  17  18
ENDBRANCH   1  17
BRANCH   1  44
ATOM     44  C   LIG    1        0.554   3.349  -0.202  0.00  0.00    +0.140 C 
BRANCH  44  45
ATOM     45  C   LIG    1       -0.720   2.594  -0.480  0.00  0.00    -0.032 A 
ATOM     46  C   LIG    1       -0.825   1.263  -0.120  0.00  0.00    +0.005 A 
ATOM     47  C   LIG    1       -1.989   0.567  -0.372  0.00  0.00    +0.010 A 
ATOM     48  C   LIG    1       -3.059   1.206  -0.995  0.00  0.00    +0.000 A 
ATOM     49  C   LIG    1       -2.950   2.549  -1.351  0.00  0.00    +0.010 A 
ATOM     50  C   LIG    1       -1.781   3.236  -1.094  0.00  0.00    +0.005 A 
BRANCH  48  51
ATOM     51  C   LIG    1       -4.312   0.461  -1.273  0.00  0.00    +0.071 A 
ATOM     52  C   LIG    1       -5.377   1.109  -1.897  0.00  0.00    +0.028 A 
ATOM     53  C   LIG    1       -6.538   0.401  -2.150  0.00  0.00    +0.004 A 
ATOM     54  C   LIG    1       -6.597  -0.933  -1.772  0.00  0.00    +0.020 A 
ATOM     55  C   LIG    1       -5.503  -1.512  -1.157  0.00  0.00    +0.111 A 
ATOM     56  N   LIG    1       -4.407  -0.817  -0.932  0.00  0.00    -0.255 NA
ENDBRANCH  48  51
ENDBRANCH  44  45
ENDBRANCH   1  44
TORSDOF 19
