REMARK  Name = ZINC03954010
REMARK                            x       y       z     vdW  Elec       q    Type
REMARK                         _______ _______ _______ _____ _____    ______ ____
ROOT
ATOM      1  C   LIG    1        1.208   3.157   0.007  0.00  0.00    +0.094 A 
ATOM      2  C   LIG    1        1.191   1.766   0.000  0.00  0.00    +0.030 A 
ATOM      3  C   LIG    1       -0.013   1.076   0.008  0.00  0.00    +0.003 A 
ATOM      4  C   LIG    1       -1.212   1.721   0.017  0.00  0.00    +0.009 A 
ATOM      5  C   LIG    1       -1.270   3.125   0.031  0.00  0.00    -0.014 A 
ATOM      6  C   LIG    1       -2.501   3.805   0.046  0.00  0.00    +0.038 A 
ATOM      7  C   LIG    1       -2.517   5.166   0.053  0.00  0.00    +0.117 A 
ATOM      8  C   LIG    1       -1.332   5.898   0.045  0.00  0.00    +0.030 A 
ATOM      9  C   LIG    1       -0.122   5.271   0.031  0.00  0.00    +0.012 A 
ATOM     10  C   LIG    1       -0.068   3.873   0.023  0.00  0.00    +0.009 A 
ENDROOT
BRANCH   7  11
ATOM     11  S   LIG    1       -4.061   6.015   0.072  0.00  0.00    +0.110 S 
ATOM     12  O   LIG    1       -3.812   7.299   0.627  0.00  0.00    -0.142 OA
ATOM     13  O   LIG    1       -5.012   5.117   0.627  0.00  0.00    -0.142 OA
BRANCH  11  14
ATOM     14  O   LIG    1       -4.469   6.239  -1.377  0.00  0.00    -0.250 OA
ATOM     15  H   LIG    1       -4.650   5.384  -1.798  0.00  0.00    +0.245 HD
ENDBRANCH  11  14
ENDBRANCH   7  11
BRANCH   1  17
ATOM     16  N   LIG    1        3.504   3.194  -0.013  0.00  0.00    -0.145 NA
ATOM     17  N   LIG    1        2.387   3.838   0.000  0.00  0.00    -0.149 NA
BRANCH  16  26
ATOM     18  C   LIG    1        8.405   1.863  -0.064  0.00  0.00    +0.001 A 
ATOM     19  C   LIG    1        7.220   1.132  -0.058  0.00  0.00    +0.001 A 
ATOM     20  C   LIG    1        6.010   1.760  -0.044  0.00  0.00    +0.011 A 
ATOM     21  C   LIG    1        5.956   3.158  -0.030  0.00  0.00    +0.013 A 
ATOM     22  C   LIG    1        7.159   3.905  -0.042  0.00  0.00    -0.016 A 
ATOM     23  C   LIG    1        7.103   5.311  -0.034  0.00  0.00    +0.012 A 
ATOM     24  C   LIG    1        5.909   5.960  -0.020  0.00  0.00    +0.048 A 
ATOM     25  C   LIG    1        4.698   5.271  -0.013  0.00  0.00    +0.144 A 
ATOM     26  C   LIG    1        4.680   3.873  -0.021  0.00  0.00    +0.135 A 
ATOM     27  C   LIG    1        8.389   3.225  -0.057  0.00  0.00    +0.008 A 
BRANCH  25  28
ATOM     28  O   LIG    1        3.530   5.960   0.000  0.00  0.00    -0.505 OA
ATOM     29  H   LIG    1        3.198   6.155   0.887  0.00  0.00    +0.292 HD
ENDBRANCH  25  28
ENDBRANCH  16  26
ENDBRANCH   1  17
TORSDOF 5
