REMARK  Name = ZINC03947932
REMARK                            x       y       z     vdW  Elec       q    Type
REMARK                         _______ _______ _______ _____ _____    ______ ____
ROOT
ATOM      1  C   LIG    1        0.112  -4.959  -1.360  0.00  0.00    +0.220 A 
ATOM      2  N   LIG    1       -0.227  -4.307  -0.255  0.00  0.00    -0.222 NA
ATOM      3  C   LIG    1       -0.084  -2.998  -0.170  0.00  0.00    +0.129 A 
ATOM      4  C   LIG    1        0.434  -2.298  -1.267  0.00  0.00    +0.085 A 
ATOM      5  C   LIG    1        0.774  -3.024  -2.417  0.00  0.00    +0.161 A 
ATOM      6  N   LIG    1        0.606  -4.333  -2.420  0.00  0.00    -0.209 NA
ENDROOT
BRANCH   4   7
ATOM      7  C   LIG    1        0.612  -0.834  -1.216  0.00  0.00    +0.248 C 
ATOM      8  N   LIG    1       -0.234  -0.078  -0.489  0.00  0.00    -0.311 N 
ATOM      9  H   LIG    1       -0.959  -0.496   0.002  0.00  0.00    +0.149 HD
ATOM     10  O   LIG    1        1.521  -0.310  -1.831  0.00  0.00    -0.270 OA
BRANCH   8  11
ATOM     11  C   LIG    1       -0.058   1.376  -0.438  0.00  0.00    +0.108 C 
BRANCH  11  12
ATOM     12  C   LIG    1       -1.142   1.990   0.450  0.00  0.00    +0.010 C 
ATOM     13  C   LIG    1       -2.514   1.781  -0.198  0.00  0.00    +0.033 C 
ATOM     14  C   LIG    1       -3.583   2.467   0.657  0.00  0.00    +0.160 C 
ATOM     15  O   LIG    1       -3.268   3.855   0.788  0.00  0.00    -0.380 OA
ATOM     16  C   LIG    1       -2.018   4.112   1.429  0.00  0.00    +0.160 C 
ATOM     17  C   LIG    1       -0.886   3.492   0.605  0.00  0.00    +0.033 C 
ENDBRANCH  11  12
ENDBRANCH   8  11
ENDBRANCH   4   7
BRANCH   5  18
ATOM     18  C   LIG    1        1.329  -2.321  -3.628  0.00  0.00    +0.435 C 
ATOM     19  F   LIG    1        0.465  -1.287  -4.005  0.00  0.00    -0.164 F 
ATOM     20  F   LIG    1        1.452  -3.233  -4.681  0.00  0.00    -0.164 F 
ATOM     21  F   LIG    1        2.587  -1.789  -3.324  0.00  0.00    -0.164 F 
ENDBRANCH   5  18
BRANCH   1  22
ATOM     22  N   LIG    1       -0.055  -6.328  -1.408  0.00  0.00    -0.282 N 
ATOM     23  H   LIG    1        0.255  -6.828  -2.180  0.00  0.00    +0.155 HD
BRANCH  22  26
ATOM     24  C   LIG    1       -2.156  -6.979   1.539  0.00  0.00    +0.022 A 
ATOM     25  C   LIG    1       -1.550  -6.317   0.488  0.00  0.00    +0.026 A 
ATOM     26  C   LIG    1       -0.670  -6.996  -0.343  0.00  0.00    +0.052 A 
ATOM     27  C   LIG    1       -0.405  -8.342  -0.119  0.00  0.00    +0.064 A 
ATOM     28 CL   LIG    1        0.690  -9.197  -1.161  0.00  0.00    -0.082 Cl
ATOM     29  C   LIG    1       -1.010  -8.998   0.936  0.00  0.00    +0.041 A 
ATOM     30  C   LIG    1       -1.887  -8.317   1.763  0.00  0.00    +0.042 A 
ATOM     31 CL   LIG    1       -2.651  -9.145   3.083  0.00  0.00    -0.083 Cl
ENDBRANCH  22  26
ENDBRANCH   1  22
TORSDOF 6
