REMARK  Name = ZINC03985980
REMARK                            x       y       z     vdW  Elec       q    Type
REMARK                         _______ _______ _______ _____ _____    ______ ____
ROOT
ATOM      1  C   LIG    1        1.624  -5.139  -2.802  0.00  0.00    +0.225 C 
ATOM      2  C   LIG    1        3.095  -5.465  -2.462  0.00  0.00    +0.089 C 
ATOM      3  C   LIG    1        3.187  -6.999  -2.627  0.00  0.00    +0.165 C 
ATOM      4  C   LIG    1        1.760  -7.418  -3.046  0.00  0.00    +0.176 C 
ATOM      5  O   LIG    1        0.903  -6.365  -2.550  0.00  0.00    -0.348 OA
ENDROOT
BRANCH   1   9
ATOM      6  C   LIG    1        0.601  -0.682  -1.045  0.00  0.00    +0.149 A 
ATOM      7  C   LIG    1        0.624  -2.087  -1.072  0.00  0.00    +0.147 A 
ATOM      8  C   LIG    1        1.246  -2.719  -2.162  0.00  0.00    +0.167 A 
ATOM      9  N   LIG    1        1.126  -4.067  -1.936  0.00  0.00    -0.288 N 
ATOM     10  C   LIG    1        0.459  -4.226  -0.758  0.00  0.00    +0.203 A 
ATOM     11  N   LIG    1        1.786  -1.973  -3.120  0.00  0.00    -0.216 NA
ATOM     12  C   LIG    1        1.740  -0.659  -3.053  0.00  0.00    +0.225 A 
ATOM     13  N   LIG    1        0.165  -3.064  -0.253  0.00  0.00    -0.231 NA
ATOM     14  N   LIG    1        1.162  -0.020  -2.051  0.00  0.00    -0.219 NA
BRANCH   6  16
ATOM     15  C   LIG    1       -0.018   1.461   0.010  0.00  0.00    +0.127 C 
ATOM     16  N   LIG    1        0.002  -0.004   0.002  0.00  0.00    -0.330 N 
ATOM     17  H   LIG    1       -0.404  -0.499   0.731  0.00  0.00    +0.147 HD
ENDBRANCH   6  16
ENDBRANCH   1   9
BRANCH   3  18
ATOM     18  O   LIG    1        4.131  -7.338  -3.644  0.00  0.00    -0.281 OA
BRANCH  18  19
ATOM     19  P   LIG    1        5.419  -8.265  -3.372  0.00  0.00    +0.473 P 
ATOM     20  O   LIG    1        6.259  -7.659  -2.197  0.00  0.00    -0.228 OA
BRANCH  19  21
ATOM     21  O   LIG    1        6.300  -8.327  -4.666  0.00  0.00    -0.303 OA
ATOM     22  H   LIG    1        6.590  -7.432  -4.903  0.00  0.00    +0.222 HD
ENDBRANCH  19  21
BRANCH  19  23
ATOM     23  O   LIG    1        4.951  -9.710  -2.989  0.00  0.00    -0.303 OA
ATOM     24  H   LIG    1        4.405  -9.671  -2.188  0.00  0.00    +0.222 HD
ENDBRANCH  19  23
ENDBRANCH  18  19
ENDBRANCH   3  18
BRANCH   4  25
ATOM     25  C   LIG    1        1.388  -8.757  -2.406  0.00  0.00    +0.206 C 
BRANCH  25  26
ATOM     26  O   LIG    1        0.115  -9.182  -2.897  0.00  0.00    -0.284 OA
BRANCH  26  27
ATOM     27  P   LIG    1       -0.589 -10.555  -2.436  0.00  0.00    +0.472 P 
ATOM     28  O   LIG    1       -0.702 -10.583  -0.896  0.00  0.00    -0.228 OA
BRANCH  27  29
ATOM     29  O   LIG    1        0.261 -11.754  -2.912  0.00  0.00    -0.303 OA
ATOM     30  H   LIG    1        1.147 -11.698  -2.522  0.00  0.00    +0.222 HD
ENDBRANCH  27  29
BRANCH  27  31
ATOM     31  O   LIG    1       -2.059 -10.648  -3.084  0.00  0.00    -0.303 OA
ATOM     32  H   LIG    1       -2.543 -11.451  -2.848  0.00  0.00    +0.222 HD
ENDBRANCH  27  31
ENDBRANCH  26  27
ENDBRANCH  25  26
ENDBRANCH   4  25
TORSDOF 11
