REMARK  Name = ZINC03953867
REMARK                            x       y       z     vdW  Elec       q    Type
REMARK                         _______ _______ _______ _____ _____    ______ ____
ROOT
ATOM      1  C   LIG    1       -1.722  -0.019  -1.203  0.00  0.00    -0.066 C 
ATOM      2  C   LIG    1       -2.373  -0.808  -2.061  0.00  0.00    -0.019 C 
ATOM      3  C   LIG    1       -3.810  -1.120  -1.562  0.00  0.00    +0.006 C 
ATOM      4  C   LIG    1       -4.463  -2.068  -2.536  0.00  0.00    +0.012 C 
ATOM      5  C   LIG    1       -5.637  -2.860  -1.978  0.00  0.00    +0.006 C 
ATOM      6  C   LIG    1       -5.808  -2.749  -0.474  0.00  0.00    +0.012 C 
ATOM      7  C   LIG    1       -4.488  -2.820   0.264  0.00  0.00    -0.025 C 
ATOM      8  C   LIG    1       -3.801  -4.182   0.038  0.00  0.00    +0.012 C 
ATOM      9  C   LIG    1       -4.716  -2.652   1.771  0.00  0.00    +0.007 C 
ATOM     10  C   LIG    1       -5.681  -3.727   2.270  0.00  0.00    +0.002 C 
ATOM     11  C   LIG    1       -7.025  -3.576   1.571  0.00  0.00    +0.018 C 
ATOM     12  C   LIG    1       -6.891  -3.681   0.051  0.00  0.00    +0.068 C 
ATOM     13  C   LIG    1       -6.709  -5.138  -0.360  0.00  0.00    +0.023 C 
ATOM     14  C   LIG    1       -4.453   0.257  -1.558  0.00  0.00    +0.122 C 
ATOM     15  C   LIG    1       -3.740   1.210  -0.598  0.00  0.00    +0.119 C 
ATOM     16  C   LIG    1       -3.515  -1.773  -0.231  0.00  0.00    +0.007 C 
ATOM     17  C   LIG    1       -3.047  -0.742   0.784  0.00  0.00    +0.013 C 
ATOM     18  C   LIG    1       -2.531   0.474  -0.006  0.00  0.00    +0.030 C 
ENDROOT
BRANCH   1  20
ATOM     19  C   LIG    1       -0.227   1.930  -1.572  0.00  0.00    +0.012 C 
ATOM     20  C   LIG    1       -0.289   0.408  -1.426  0.00  0.00    +0.009 C 
ATOM     21  C   LIG    1        0.564  -0.025  -0.233  0.00  0.00    +0.012 C 
ENDBRANCH   1  20
BRANCH  12  22
ATOM     22  C   LIG    1       -8.224  -3.218  -0.531  0.00  0.00    +0.311 C 
ATOM     23  O   LIG    1       -9.113  -4.027  -0.736  0.00  0.00    -0.250 OA
BRANCH  22  24
ATOM     24  O   LIG    1       -8.400  -2.040  -0.790  0.00  0.00    -0.480 OA
ATOM     25  H   LIG    1       -7.717  -1.418  -0.632  0.00  0.00    +0.295 HD
ENDBRANCH  22  24
ENDBRANCH  12  22
BRANCH  14  26
ATOM     26  C   LIG    1       -5.932   0.305  -1.371  0.00  0.00    +0.309 C 
ATOM     27  O   LIG    1       -6.406   0.163  -0.268  0.00  0.00    -0.251 OA
BRANCH  26  28
ATOM     28  O   LIG    1       -6.736   0.507  -2.426  0.00  0.00    -0.480 OA
ATOM     29  H   LIG    1       -7.677   0.523  -2.206  0.00  0.00    +0.295 HD
ENDBRANCH  26  28
ENDBRANCH  14  26
BRANCH  15  30
ATOM     30  C   LIG    1       -4.673   1.695   0.471  0.00  0.00    +0.309 C 
ATOM     31  O   LIG    1       -5.440   2.614   0.240  0.00  0.00    -0.251 OA
BRANCH  30  32
ATOM     32  O   LIG    1       -4.663   1.170   1.572  0.00  0.00    -0.480 OA
ATOM     33  H   LIG    1       -4.074   0.464   1.749  0.00  0.00    +0.295 HD
ENDBRANCH  30  32
ENDBRANCH  15  30
TORSDOF 7
