REMARK  Name = ZINC03953823
REMARK                            x       y       z     vdW  Elec       q    Type
REMARK                         _______ _______ _______ _____ _____    ______ ____
ROOT
ATOM      1  C   LIG    1        1.075   3.379  -0.003  0.00  0.00    +0.135 A 
ATOM      2  C   LIG    1        2.290   4.140   0.283  0.00  0.00    +0.015 A 
ATOM      3  C   LIG    1        3.507   3.501   0.548  0.00  0.00    +0.013 A 
ATOM      4  C   LIG    1        4.617   4.247   0.811  0.00  0.00    +0.033 A 
ATOM      5  C   LIG    1        4.558   5.638   0.820  0.00  0.00    +0.122 A 
ATOM      6  C   LIG    1        3.393   6.292   0.553  0.00  0.00    +0.043 A 
ATOM      7  C   LIG    1        2.228   5.554   0.285  0.00  0.00    +0.014 A 
ATOM      8  C   LIG    1        1.002   6.195   0.026  0.00  0.00    +0.128 A 
ATOM      9  C   LIG    1       -0.120   5.473  -0.233  0.00  0.00    +0.077 A 
ATOM     10  C   LIG    1       -0.108   4.079  -0.253  0.00  0.00    +0.146 A 
ENDROOT
BRANCH   8  11
ATOM     11  S   LIG    1        0.921   7.955   0.036  0.00  0.00    +0.110 S 
ATOM     12  O   LIG    1       -0.295   8.309  -0.608  0.00  0.00    -0.142 OA
ATOM     13  O   LIG    1        2.185   8.422  -0.414  0.00  0.00    -0.142 OA
BRANCH  11  14
ATOM     14  O   LIG    1        0.788   8.391   1.488  0.00  0.00    -0.250 OA
ATOM     15  H   LIG    1        1.601   8.168   1.968  0.00  0.00    +0.245 HD
ENDBRANCH  11  14
ENDBRANCH   8  11
BRANCH   1  17
ATOM     16  N   LIG    1        0.013   1.362  -0.270  0.00  0.00    -0.145 NA
ATOM     17  N   LIG    1        1.094   2.019  -0.021  0.00  0.00    -0.145 NA
BRANCH  16  25
ATOM     18  C   LIG    1       -0.999  -4.886  -0.595  0.00  0.00    +0.001 A 
ATOM     19  C   LIG    1       -2.199  -4.226  -0.849  0.00  0.00    +0.001 A 
ATOM     20  C   LIG    1       -2.264  -2.865  -0.841  0.00  0.00    +0.012 A 
ATOM     21  C   LIG    1       -1.106  -2.115  -0.572  0.00  0.00    +0.026 A 
ATOM     22  C   LIG    1        0.115  -2.788  -0.314  0.00  0.00    -0.014 A 
ATOM     23  C   LIG    1        1.279  -2.043  -0.044  0.00  0.00    +0.011 A 
ATOM     24  C   LIG    1        1.236  -0.687  -0.039  0.00  0.00    +0.034 A 
ATOM     25  C   LIG    1        0.032  -0.001  -0.287  0.00  0.00    +0.128 A 
ATOM     26  C   LIG    1       -1.139  -0.708  -0.557  0.00  0.00    +0.152 A 
ATOM     27  C   LIG    1        0.142  -4.192  -0.331  0.00  0.00    +0.008 A 
BRANCH  26  28
ATOM     28  O   LIG    1       -2.298  -0.047  -0.801  0.00  0.00    -0.504 OA
ATOM     29  H   LIG    1       -2.444   0.159  -1.735  0.00  0.00    +0.292 HD
ENDBRANCH  26  28
ENDBRANCH  16  25
ENDBRANCH   1  17
BRANCH   5  30
ATOM     30  N   LIG    1        5.782   6.419   1.109  0.00  0.00    +0.006 N 
ATOM     31  O   LIG    1        6.831   5.843   1.337  0.00  0.00    -0.130 OA
BRANCH  30  32
ATOM     32  O   LIG    1        5.740   7.636   1.119  0.00  0.00    -0.396 OA
ATOM     33  H   LIG    1        4.933   8.078   0.944  0.00  0.00    +0.329 HD
ENDBRANCH  30  32
ENDBRANCH   5  30
BRANCH  10  34
ATOM     34  O   LIG    1       -1.252   3.398  -0.516  0.00  0.00    -0.505 OA
ATOM     35  H   LIG    1       -1.774   3.187   0.270  0.00  0.00    +0.292 HD
ENDBRANCH  10  34
TORSDOF 8
