REMARK  Name = ZINC03938686
REMARK                            x       y       z     vdW  Elec       q    Type
REMARK                         _______ _______ _______ _____ _____    ______ ____
ROOT
ATOM      1  C   LIG    1       -2.384  -0.341   0.047  0.00  0.00    +0.045 C 
ATOM      2  C   LIG    1       -2.567   1.154   0.003  0.00  0.00    -0.023 A 
ATOM      3  C   LIG    1       -1.451   2.011  -0.042  0.00  0.00    +0.040 A 
ATOM      4  C   LIG    1       -0.141   1.500  -0.047  0.00  0.00    +0.126 A 
ATOM      5  N   LIG    1        0.867   2.348  -0.095  0.00  0.00    -0.222 NA
ATOM      6  C   LIG    1        0.661   3.661  -0.134  0.00  0.00    +0.222 A 
ATOM      7  N   LIG    1       -0.553   4.191  -0.126  0.00  0.00    -0.196 NA
ATOM      8  C   LIG    1       -1.629   3.413  -0.078  0.00  0.00    +0.149 A 
ATOM      9  N   LIG    1       -2.888   3.958  -0.070  0.00  0.00    -0.289 N 
ATOM     10  C   LIG    1       -3.981   3.173  -0.039  0.00  0.00    +0.264 A 
ATOM     11  O   LIG    1       -5.090   3.676  -0.036  0.00  0.00    -0.267 OA
ATOM     12  C   LIG    1       -3.841   1.712   0.005  0.00  0.00    +0.085 A 
ENDROOT
BRANCH   9  13
ATOM     13  C   LIG    1       -3.045   5.414  -0.114  0.00  0.00    +0.092 C 
ATOM     14  C   LIG    1       -3.842   5.896   1.116  0.00  0.00    +0.025 C 
ATOM     15  C   LIG    1       -4.723   7.048   0.568  0.00  0.00    +0.002 C 
ATOM     16  C   LIG    1       -5.125   6.533  -0.836  0.00  0.00    +0.002 C 
ATOM     17  C   LIG    1       -3.860   5.819  -1.354  0.00  0.00    +0.025 C 
ENDBRANCH   9  13
BRANCH  12  18
ATOM     18  C   LIG    1       -5.026   0.855   0.051  0.00  0.00    +0.166 C 
ATOM     19  C   LIG    1       -6.401   1.463  -0.059  0.00  0.00    +0.092 C 
ATOM     20  O   LIG    1       -4.902  -0.346   0.176  0.00  0.00    -0.292 OA
ENDBRANCH  12  18
BRANCH   6  21
ATOM     21  N   LIG    1        1.752   4.503  -0.183  0.00  0.00    -0.268 N 
ATOM     22  H   LIG    1        1.623   5.459  -0.285  0.00  0.00    +0.156 HD
BRANCH  21  23
ATOM     23  C   LIG    1        3.042   3.980  -0.086  0.00  0.00    +0.125 A 
ATOM     24  C   LIG    1        4.131   4.843  -0.031  0.00  0.00    +0.045 A 
ATOM     25  C   LIG    1        5.405   4.315   0.070  0.00  0.00    +0.028 A 
ATOM     26  C   LIG    1        5.548   2.929   0.102  0.00  0.00    +0.048 A 
ATOM     27  C   LIG    1        4.416   2.130   0.037  0.00  0.00    +0.136 A 
ATOM     28  N   LIG    1        3.215   2.669  -0.054  0.00  0.00    -0.238 NA
BRANCH  26  29
ATOM     29  N   LIG    1        6.819   2.349   0.198  0.00  0.00    -0.332 N 
ATOM     30  C   LIG    1        7.535   2.844   1.381  0.00  0.00    +0.086 C 
ATOM     31  C   LIG    1        8.945   2.250   1.407  0.00  0.00    -0.063 C 
ATOM     32  N   LIG    1        8.860   0.777   1.431  0.00  0.00    +0.381 N 
ATOM     33  H   LIG    1        9.807   0.383   1.440  0.00  0.00    -0.086 HD
ATOM     34  H   LIG    1        8.357   0.481   2.276  0.00  0.00    -0.086 HD
ATOM     35  C   LIG    1        8.140   0.288   0.239  0.00  0.00    -0.063 C 
ATOM     36  C   LIG    1        6.729   0.883   0.214  0.00  0.00    +0.086 C 
ENDBRANCH  26  29
ENDBRANCH  21  23
ENDBRANCH   6  21
TORSDOF 5
