REMARK  Name = ZINC04097286
REMARK                            x       y       z     vdW  Elec       q    Type
REMARK                         _______ _______ _______ _____ _____    ______ ____
ROOT
ATOM      1  C   LIG    1        1.871  -1.819  -2.730  0.00  0.00    +0.252 C 
ATOM      2  O   LIG    1        0.545  -1.935  -3.288  0.00  0.00    -0.345 OA
ATOM      3  C   LIG    1        0.327  -3.363  -3.352  0.00  0.00    +0.161 C 
ATOM      4  C   LIG    1        0.005  -3.866  -1.924  0.00  0.00    +0.039 C 
ATOM      5  C   LIG    1        1.271  -4.569  -1.446  0.00  0.00    +0.004 C 
ATOM      6  C   LIG    1        1.077  -5.750  -0.515  0.00  0.00    -0.000 C 
ATOM      7  C   LIG    1        0.366  -5.298   0.762  0.00  0.00    +0.008 C 
ATOM      8  C   LIG    1        0.132  -6.505   1.675  0.00  0.00    +0.032 C 
ATOM      9  C   LIG    1        1.469  -7.180   1.919  0.00  0.00    -0.056 C 
ATOM     10  C   LIG    1        1.842  -7.433   3.165  0.00  0.00    +0.051 C 
ATOM     11  C   LIG    1        3.141  -8.067   3.443  0.00  0.00    +0.179 C 
ATOM     12  C   LIG    1        4.032  -8.367   2.310  0.00  0.00    +0.047 C 
ATOM     13  C   LIG    1        3.635  -8.112   1.073  0.00  0.00    -0.012 C 
ATOM     14  O   LIG    1        3.470  -8.337   4.583  0.00  0.00    -0.288 OA
ATOM     15  C   LIG    1        2.307  -7.532   0.726  0.00  0.00    +0.013 C 
ATOM     16  C   LIG    1        1.541  -8.574  -0.092  0.00  0.00    +0.020 C 
ATOM     17  C   LIG    1        2.469  -6.309  -0.180  0.00  0.00    +0.035 C 
ATOM     18  C   LIG    1        3.240  -6.691  -1.439  0.00  0.00    +0.120 C 
ATOM     19  C   LIG    1        3.322  -5.521  -2.432  0.00  0.00    +0.042 C 
ATOM     20  C   LIG    1        1.898  -5.108  -2.759  0.00  0.00    +0.012 C 
ATOM     21  C   LIG    1        1.103  -6.309  -3.275  0.00  0.00    +0.015 C 
ATOM     22  C   LIG    1        1.745  -3.909  -3.717  0.00  0.00    +0.164 C 
ATOM     23  O   LIG    1        2.652  -2.864  -3.333  0.00  0.00    -0.334 OA
ENDROOT
BRANCH  18  24
ATOM     24  O   LIG    1        2.584  -7.792  -2.072  0.00  0.00    -0.391 OA
ATOM     25  H   LIG    1        3.016  -8.094  -2.883  0.00  0.00    +0.210 HD
ENDBRANCH  18  24
BRANCH  22  26
ATOM     26  C   LIG    1        1.866  -4.290  -5.170  0.00  0.00    +0.193 C 
ATOM     27  O   LIG    1        1.645  -5.425  -5.518  0.00  0.00    -0.292 OA
BRANCH  26  28
ATOM     28  C   LIG    1        2.264  -3.254  -6.190  0.00  0.00    +0.233 C 
BRANCH  28  29
ATOM     29  O   LIG    1        2.310  -3.854  -7.486  0.00  0.00    -0.387 OA
ATOM     30  H   LIG    1        2.560  -3.244  -8.194  0.00  0.00    +0.210 HD
ENDBRANCH  28  29
ENDBRANCH  26  28
ENDBRANCH  22  26
BRANCH   1  31
ATOM     31  C   LIG    1        2.467  -0.452  -3.070  0.00  0.00    +0.061 C 
BRANCH  31  33
ATOM     32  C   LIG    1        2.283   2.009  -2.678  0.00  0.00    +0.004 C 
ATOM     33  C   LIG    1        1.686   0.641  -2.338  0.00  0.00    +0.002 C 
ENDBRANCH  31  33
ENDBRANCH   1  31
TORSDOF 6
