REMARK  Name = ZINC03875881
REMARK                            x       y       z     vdW  Elec       q    Type
REMARK                         _______ _______ _______ _____ _____    ______ ____
ROOT
ATOM      1  C   LIG    1       -0.160  -4.069   1.394  0.00  0.00    +0.226 C 
ATOM      2  C   LIG    1       -1.494  -4.488   0.747  0.00  0.00    +0.088 C 
ATOM      3  C   LIG    1       -2.070  -3.169   0.177  0.00  0.00    +0.150 C 
ATOM      4  C   LIG    1       -0.804  -2.281   0.071  0.00  0.00    +0.175 C 
ATOM      5  O   LIG    1       -0.038  -2.646   1.240  0.00  0.00    -0.348 OA
ENDROOT
BRANCH   1  15
ATOM      6  C   LIG    1        0.724  -5.347   3.292  0.00  0.00    +0.137 A 
ATOM      7  C   LIG    1        0.719  -5.667   4.604  0.00  0.00    +0.204 A 
ATOM      8  F   LIG    1        1.588  -6.580   5.089  0.00  0.00    -0.198 F 
ATOM      9  C   LIG    1       -0.211  -5.032   5.464  0.00  0.00    +0.289 A 
ATOM     10  N   LIG    1       -1.069  -4.124   4.957  0.00  0.00    -0.273 N 
ATOM     11  C   LIG    1       -1.046  -3.827   3.644  0.00  0.00    +0.331 A 
ATOM     12  O   LIG    1       -1.829  -3.009   3.201  0.00  0.00    -0.246 OA
ATOM     13  H   LIG    1       -1.725  -3.668   5.559  0.00  0.00    +0.174 HD
ATOM     14  O   LIG    1       -0.236  -5.304   6.651  0.00  0.00    -0.265 OA
ATOM     15  N   LIG    1       -0.165  -4.418   2.817  0.00  0.00    -0.271 N 
ENDBRANCH   1  15
BRANCH   3  16
ATOM     16  O   LIG    1       -2.653  -3.382  -1.111  0.00  0.00    -0.389 OA
ATOM     17  H   LIG    1       -3.448  -3.932  -1.096  0.00  0.00    +0.210 HD
ENDBRANCH   3  16
BRANCH   4  18
ATOM     18  C   LIG    1       -1.180  -0.799   0.114  0.00  0.00    +0.206 C 
BRANCH  18  19
ATOM     19  O   LIG    1        0.002  -0.004   0.002  0.00  0.00    -0.284 OA
BRANCH  19  20
ATOM     20  P   LIG    1       -0.020   1.606   0.011  0.00  0.00    +0.472 P 
ATOM     21  O   LIG    1       -0.713   2.083   1.228  0.00  0.00    -0.228 OA
BRANCH  20  22
ATOM     22  O   LIG    1       -0.798   2.139  -1.294  0.00  0.00    -0.303 OA
ATOM     23  H   LIG    1       -1.708   1.803  -1.287  0.00  0.00    +0.222 HD
ENDBRANCH  20  22
BRANCH  20  24
ATOM     24  O   LIG    1        1.491   2.163  -0.001  0.00  0.00    -0.303 OA
ATOM     25  H   LIG    1        1.960   1.842   0.785  0.00  0.00    +0.222 HD
ENDBRANCH  20  24
ENDBRANCH  19  20
ENDBRANCH  18  19
ENDBRANCH   4  18
TORSDOF 7
