REMARK  Name = ZINC03877501
REMARK                            x       y       z     vdW  Elec       q    Type
REMARK                         _______ _______ _______ _____ _____    ______ ____
ROOT
ATOM      1  C   LIG    1       -1.256  -0.288   2.539  0.00  0.00    +0.017 C 
ATOM      2  C   LIG    1       -0.000   0.319   2.445  0.00  0.00    +0.040 A 
ATOM      3  C   LIG    1        0.610   0.446   1.177  0.00  0.00    +0.026 A 
ATOM      4  C   LIG    1        1.829   1.032   1.066  0.00  0.00    +0.012 A 
ATOM      5  C   LIG    1        2.477   1.519   2.282  0.00  0.00    -0.001 A 
ATOM      6  C   LIG    1        3.733   2.134   2.237  0.00  0.00    +0.010 A 
ATOM      7  C   LIG    1        4.309   2.577   3.394  0.00  0.00    +0.001 A 
ATOM      8  C   LIG    1        3.660   2.425   4.613  0.00  0.00    +0.002 A 
ATOM      9  C   LIG    1        2.434   1.829   4.686  0.00  0.00    +0.026 A 
ATOM     10  C   LIG    1        1.817   1.364   3.521  0.00  0.00    +0.049 A 
ATOM     11  N   LIG    1        0.595   0.772   3.564  0.00  0.00    -0.341 N 
ENDROOT
BRANCH   1  13
ATOM     12  N   LIG    1       -2.371   0.301   0.537  0.00  0.00    -0.293 NA
ATOM     13  C   LIG    1       -1.942  -0.658   1.379  0.00  0.00    +0.082 C 
ATOM     14  C   LIG    1       -2.168  -2.028   1.119  0.00  0.00    +0.023 C 
ATOM     15  C   LIG    1       -2.833  -2.406  -0.002  0.00  0.00    +0.007 C 
ATOM     16  C   LIG    1       -3.299  -1.364  -0.916  0.00  0.00    +0.006 C 
ATOM     17  C   LIG    1       -3.989  -1.685  -2.089  0.00  0.00    +0.005 C 
ATOM     18  C   LIG    1       -4.423  -0.685  -2.912  0.00  0.00    +0.000 C 
ATOM     19  C   LIG    1       -4.170   0.646  -2.604  0.00  0.00    +0.002 C 
ATOM     20  C   LIG    1       -3.494   0.988  -1.468  0.00  0.00    +0.019 C 
ATOM     21  C   LIG    1       -3.046  -0.011  -0.599  0.00  0.00    +0.060 C 
BRANCH  12  23
ATOM     22  C   LIG    1       -3.217   2.239   1.766  0.00  0.00    +0.020 C 
ATOM     23  C   LIG    1       -2.109   1.707   0.855  0.00  0.00    +0.082 C 
ENDBRANCH  12  23
ENDBRANCH   1  13
BRANCH  11  24
ATOM     24  C   LIG    1       -0.085   0.620   4.853  0.00  0.00    +0.119 C 
ATOM     25  C   LIG    1        0.311  -0.715   5.484  0.00  0.00    +0.027 C 
ENDBRANCH  11  24
TORSDOF 3
