REMARK  Name = ZINC03932194
REMARK                            x       y       z     vdW  Elec       q    Type
REMARK                         _______ _______ _______ _____ _____    ______ ____
ROOT
ATOM      1  C   LIG    1       -0.448  -2.093   0.532  0.00  0.00    +0.035 A 
ATOM      2  C   LIG    1        0.444  -2.185  -0.500  0.00  0.00    +0.066 A 
ATOM      3  C   LIG    1        0.776  -0.803  -0.884  0.00  0.00    +0.020 A 
ATOM      4  C   LIG    1        0.045   0.009  -0.038  0.00  0.00    +0.058 A 
ATOM      5  N   LIG    1       -0.676  -0.794   0.806  0.00  0.00    -0.342 N 
ENDROOT
BRANCH   4   6
ATOM      6  C   LIG    1        0.046   1.485  -0.040  0.00  0.00    -0.001 A 
ATOM      7  C   LIG    1       -1.161   2.187  -0.077  0.00  0.00    +0.013 A 
ATOM      8  C   LIG    1       -1.154   3.566  -0.073  0.00  0.00    +0.039 A 
ATOM      9  C   LIG    1        0.048   4.256  -0.043  0.00  0.00    +0.123 A 
ATOM     10  F   LIG    1        0.049   5.607  -0.046  0.00  0.00    -0.205 F 
ATOM     11  C   LIG    1        1.249   3.564  -0.011  0.00  0.00    +0.039 A 
ATOM     12  C   LIG    1        1.254   2.186  -0.010  0.00  0.00    +0.013 A 
ENDBRANCH   4   6
BRANCH   3  13
ATOM     13  C   LIG    1        1.702  -0.373  -1.956  0.00  0.00    -0.015 A 
ATOM     14  C   LIG    1        1.215   0.314  -3.068  0.00  0.00    +0.008 A 
ATOM     15  C   LIG    1        2.084   0.716  -4.062  0.00  0.00    +0.001 A 
ATOM     16  C   LIG    1        3.434   0.431  -3.961  0.00  0.00    +0.000 A 
ATOM     17  C   LIG    1        3.923  -0.254  -2.863  0.00  0.00    +0.001 A 
ATOM     18  C   LIG    1        3.065  -0.657  -1.860  0.00  0.00    +0.008 A 
ENDBRANCH   3  13
BRANCH   2  19
ATOM     19  C   LIG    1        0.967  -3.419  -1.106  0.00  0.00    +0.251 C 
ATOM     20  N   LIG    1        0.324  -3.985  -2.147  0.00  0.00    -0.278 N 
ATOM     21  H   LIG    1       -0.453  -3.549  -2.531  0.00  0.00    +0.155 HD
ATOM     22  O   LIG    1        1.981  -3.929  -0.668  0.00  0.00    -0.270 OA
BRANCH  20  23
ATOM     23  C   LIG    1        0.776  -5.202  -2.672  0.00  0.00    +0.076 A 
ATOM     24  C   LIG    1        2.107  -5.568  -2.532  0.00  0.00    +0.027 A 
ATOM     25  C   LIG    1        2.550  -6.771  -3.048  0.00  0.00    +0.002 A 
ATOM     26  C   LIG    1        1.672  -7.607  -3.713  0.00  0.00    +0.004 A 
ATOM     27  C   LIG    1        0.346  -7.247  -3.861  0.00  0.00    +0.047 A 
ATOM     28  C   LIG    1       -0.108  -6.045  -3.342  0.00  0.00    +0.138 A 
BRANCH  28  29
ATOM     29  O   LIG    1       -1.412  -5.688  -3.487  0.00  0.00    -0.505 OA
ATOM     30  H   LIG    1       -1.595  -5.183  -4.292  0.00  0.00    +0.292 HD
ENDBRANCH  28  29
ENDBRANCH  20  23
ENDBRANCH   2  19
BRANCH   1  32
ATOM     31  C   LIG    1       -1.861  -4.112   0.259  0.00  0.00    +0.014 C 
ATOM     32  C   LIG    1       -1.070  -3.260   1.254  0.00  0.00    +0.030 C 
ATOM     33  C   LIG    1        0.030  -4.111   1.892  0.00  0.00    +0.014 C 
ENDBRANCH   1  32
BRANCH   5  34
ATOM     34  C   LIG    1       -1.574  -0.308   1.857  0.00  0.00    +0.124 C 
BRANCH  34  35
ATOM     35  C   LIG    1       -0.821  -0.257   3.187  0.00  0.00    +0.053 C 
BRANCH  35  36
ATOM     36  C   LIG    1       -1.789   0.132   4.307  0.00  0.00    +0.119 C 
BRANCH  36  37
ATOM     37  O   LIG    1       -2.769  -0.896   4.466  0.00  0.00    -0.392 OA
ATOM     38  H   LIG    1       -2.400  -1.760   4.696  0.00  0.00    +0.210 HD
ENDBRANCH  36  37
BRANCH  36  39
ATOM     39  C   LIG    1       -1.014   0.305   5.614  0.00  0.00    +0.063 C 
BRANCH  39  40
ATOM     40  C   LIG    1       -1.960   0.814   6.704  0.00  0.00    +0.128 C 
BRANCH  40  41
ATOM     41  O   LIG    1       -2.948  -0.181   6.980  0.00  0.00    -0.391 OA
ATOM     42  H   LIG    1       -2.584  -1.022   7.287  0.00  0.00    +0.210 HD
ENDBRANCH  40  41
BRANCH  40  43
ATOM     43  C   LIG    1       -1.161   1.106   7.976  0.00  0.00    +0.151 C 
BRANCH  43  44
ATOM     44  C   LIG    1       -2.070   1.721   9.009  0.00  0.00    +0.307 C 
ATOM     45  O   LIG    1       -3.236   1.908   8.754  0.00  0.00    -0.251 OA
BRANCH  44  46
ATOM     46  O   LIG    1       -1.583   2.063  10.213  0.00  0.00    -0.481 OA
ATOM     47  H   LIG    1       -0.679   1.918  10.411  0.00  0.00    +0.295 HD
ENDBRANCH  44  46
ENDBRANCH  43  44
ENDBRANCH  40  43
ENDBRANCH  39  40
ENDBRANCH  36  39
ENDBRANCH  35  36
ENDBRANCH  34  35
ENDBRANCH   5  34
TORSDOF 16
