REMARK  Name = ZINC03872882
REMARK                            x       y       z     vdW  Elec       q    Type
REMARK                         _______ _______ _______ _____ _____    ______ ____
ROOT
ATOM      1  C   LIG    1        0.085  -0.539   1.472  0.00  0.00    +0.089 C 
ENDROOT
BRANCH   1   2
ATOM      2  C   LIG    1       -0.956   0.177   2.292  0.00  0.00    -0.025 A 
ATOM      3  C   LIG    1       -0.991   1.559   2.311  0.00  0.00    +0.005 A 
ATOM      4  C   LIG    1       -1.945   2.219   3.062  0.00  0.00    +0.004 A 
ATOM      5  C   LIG    1       -2.867   1.499   3.797  0.00  0.00    +0.045 A 
ATOM      6  C   LIG    1       -2.834   0.112   3.780  0.00  0.00    +0.122 A 
ATOM      7  C   LIG    1       -1.879  -0.548   3.021  0.00  0.00    +0.051 A 
BRANCH   6   8
ATOM      8  O   LIG    1       -3.740  -0.598   4.503  0.00  0.00    -0.481 OA
BRANCH   8   9
ATOM      9  C   LIG    1       -4.698   0.147   5.257  0.00  0.00    +0.349 C 
BRANCH   9  10
ATOM     10  C   LIG    1       -5.612  -0.802   5.987  0.00  0.00    +0.343 C 
ATOM     11  O   LIG    1       -5.457  -2.006   5.873  0.00  0.00    -0.247 OA
BRANCH  10  12
ATOM     12  O   LIG    1       -6.505  -0.367   6.693  0.00  0.00    -0.478 OA
ATOM     13  H   LIG    1       -6.624   0.559   6.781  0.00  0.00    +0.295 HD
ENDBRANCH  10  12
ENDBRANCH   9  10
ENDBRANCH   8   9
ENDBRANCH   6   8
ENDBRANCH   1   2
BRANCH   1  15
ATOM     14  C   LIG    1        0.407   0.129  -0.955  0.00  0.00    +0.132 C 
ATOM     15  N   LIG    1        0.635   0.378   0.471  0.00  0.00    -0.299 N 
ATOM     16  C   LIG    1        1.350   1.452   0.861  0.00  0.00    +0.220 C 
ATOM     17  O   LIG    1        1.608   1.614   2.035  0.00  0.00    -0.275 OA
BRANCH  16  18
ATOM     18  C   LIG    1        1.829   2.451  -0.161  0.00  0.00    +0.131 C 
BRANCH  18  19
ATOM     19  C   LIG    1        2.598   3.547   0.530  0.00  0.00    -0.037 A 
ATOM     20  C   LIG    1        1.938   4.672   0.988  0.00  0.00    +0.005 A 
ATOM     21  C   LIG    1        2.642   5.678   1.622  0.00  0.00    +0.022 A 
ATOM     22  C   LIG    1        4.009   5.560   1.798  0.00  0.00    +0.059 A 
ATOM     23 CL   LIG    1        4.895   6.824   2.593  0.00  0.00    -0.082 Cl
ATOM     24  C   LIG    1        4.671   4.433   1.340  0.00  0.00    +0.060 A 
ATOM     25 CL   LIG    1        6.386   4.283   1.560  0.00  0.00    -0.082 Cl
ATOM     26  C   LIG    1        3.963   3.425   0.711  0.00  0.00    +0.025 A 
ENDBRANCH  18  19
ENDBRANCH  16  18
ENDBRANCH   1  15
BRANCH   1  27
ATOM     27  C   LIG    1        1.210  -1.027   2.388  0.00  0.00    -0.051 C 
BRANCH  27  28
ATOM     28  N   LIG    1        2.187  -1.790   1.601  0.00  0.00    +0.381 N 
ATOM     29  H   LIG    1        1.718  -2.498   1.056  0.00  0.00    -0.082 HD
ATOM     30  C   LIG    1        2.952  -0.880   0.711  0.00  0.00    -0.079 C 
ATOM     31  C   LIG    1        4.243  -1.681   0.409  0.00  0.00    -0.020 C 
ATOM     32  C   LIG    1        4.536  -2.384   1.754  0.00  0.00    -0.020 C 
ATOM     33  C   LIG    1        3.186  -2.414   2.495  0.00  0.00    -0.079 C 
ENDBRANCH  27  28
ENDBRANCH   1  27
TORSDOF 10
