REMARK  Name = ZINC03986698
REMARK                            x       y       z     vdW  Elec       q    Type
REMARK                         _______ _______ _______ _____ _____    ______ ____
ROOT
ATOM      1  C   LIG    1        0.434   9.541   0.042  0.00  0.00    +0.095 A 
ATOM      2  C   LIG    1       -0.002   8.203   0.035  0.00  0.00    +0.074 A 
ATOM      3  C   LIG    1        1.100   7.407   0.026  0.00  0.00    +0.129 A 
ATOM      4  N   LIG    1        2.195   8.217   0.019  0.00  0.00    -0.218 N 
ATOM      5  N   LIG    1        1.751   9.545   0.029  0.00  0.00    -0.165 NA
ENDROOT
BRANCH   1   9
ATOM      6  C   LIG    1       -2.069  12.979   0.081  0.00  0.00    +0.000 A 
ATOM      7  C   LIG    1       -0.694  13.128   0.069  0.00  0.00    +0.001 A 
ATOM      8  C   LIG    1        0.123  12.016   0.056  0.00  0.00    +0.010 A 
ATOM      9  C   LIG    1       -0.439  10.741   0.056  0.00  0.00    +0.002 A 
ATOM     10  C   LIG    1       -1.825  10.597   0.064  0.00  0.00    +0.010 A 
ATOM     11  C   LIG    1       -2.633  11.716   0.081  0.00  0.00    +0.001 A 
ENDBRANCH   1   9
BRANCH   4  12
ATOM     12  C   LIG    1        3.531   7.795   0.005  0.00  0.00    +0.067 A 
ATOM     13  C   LIG    1        3.906   6.647   0.690  0.00  0.00    +0.028 A 
ATOM     14  C   LIG    1        5.222   6.231   0.669  0.00  0.00    +0.002 A 
ATOM     15  C   LIG    1        6.169   6.963  -0.024  0.00  0.00    +0.000 A 
ATOM     16  C   LIG    1        5.800   8.109  -0.703  0.00  0.00    +0.002 A 
ATOM     17  C   LIG    1        4.484   8.527  -0.691  0.00  0.00    +0.028 A 
ENDBRANCH   4  12
BRANCH   3  18
ATOM     18  N   LIG    1        1.107   6.013   0.020  0.00  0.00    -0.266 N 
ATOM     19  H   LIG    1        1.950   5.533   0.010  0.00  0.00    +0.157 HD
ATOM     20  C   LIG    1       -0.056   5.333   0.028  0.00  0.00    +0.249 C 
ATOM     21  O   LIG    1       -1.112   5.935   0.041  0.00  0.00    -0.270 OA
BRANCH  20  22
ATOM     22  C   LIG    1       -0.048   3.855   0.022  0.00  0.00    +0.038 A 
ATOM     23  C   LIG    1        1.165   3.162   0.007  0.00  0.00    +0.013 A 
ATOM     24  C   LIG    1        1.175   1.781   0.000  0.00  0.00    +0.002 A 
ATOM     25  C   LIG    1       -0.013   1.076   0.008  0.00  0.00    +0.019 A 
ATOM     26  C   LIG    1       -1.233   1.756   0.017  0.00  0.00    +0.052 A 
ATOM     27  C   LIG    1       -1.250   3.150   0.030  0.00  0.00    +0.032 A 
BRANCH  26  28
ATOM     28  C   LIG    1       -2.463   1.024   0.020  0.00  0.00    +0.099 C 
ATOM     29  N   LIG    1       -3.439   0.443   0.022  0.00  0.00    -0.191 NA
ENDBRANCH  26  28
ENDBRANCH  20  22
ENDBRANCH   3  18
TORSDOF 5
