REMARK  Name = ZINC03977779
REMARK                            x       y       z     vdW  Elec       q    Type
REMARK                         _______ _______ _______ _____ _____    ______ ____
ROOT
ATOM      1  C   LIG    1       -1.235  -2.473   0.149  0.00  0.00    +0.240 C 
ATOM      2  C   LIG    1       -1.129  -3.026   1.570  0.00  0.00    +0.162 C 
ATOM      3  C   LIG    1       -1.083  -4.546   1.557  0.00  0.00    +0.039 C 
ATOM      4  C   LIG    1       -2.318  -5.144   0.891  0.00  0.00    +0.038 C 
ATOM      5  C   LIG    1       -3.592  -4.862   1.691  0.00  0.00    +0.017 C 
ATOM      6  C   LIG    1       -2.409  -4.591  -0.519  0.00  0.00    +0.164 C 
ATOM      7  C   LIG    1       -3.614  -5.066  -1.298  0.00  0.00    +0.171 C 
ATOM      8  O   LIG    1       -4.525  -5.691  -0.824  0.00  0.00    -0.294 OA
ATOM      9  C   LIG    1       -3.597  -4.709  -2.773  0.00  0.00    +0.116 C 
ATOM     10  C   LIG    1       -3.094  -3.289  -3.005  0.00  0.00    +0.092 C 
ATOM     11  C   LIG    1       -4.301  -2.375  -3.282  0.00  0.00    +0.046 C 
ATOM     12  O   LIG    1       -2.274  -2.740  -2.002  0.00  0.00    -0.356 OA
ATOM     13  C   LIG    1       -2.162  -6.673   0.827  0.00  0.00    +0.124 C 
ATOM     14  C   LIG    1       -1.980  -7.228   2.241  0.00  0.00    +0.032 C 
ATOM     15  C   LIG    1       -0.681  -6.689   2.829  0.00  0.00    +0.009 C 
ATOM     16  C   LIG    1       -0.678  -5.159   2.878  0.00  0.00    -0.029 C 
ATOM     17  C   LIG    1       -1.526  -4.694   4.061  0.00  0.00    +0.011 C 
ATOM     18  C   LIG    1        0.784  -4.742   3.178  0.00  0.00    +0.011 C 
ATOM     19  C   LIG    1       -2.414  -3.067  -0.618  0.00  0.00    +0.143 C 
ATOM     20  C   LIG    1       -3.714  -2.438  -0.124  0.00  0.00    +0.049 C 
ENDROOT
BRANCH   2  21
ATOM     21  O   LIG    1       -2.169  -2.498   2.382  0.00  0.00    -0.388 OA
ATOM     22  H   LIG    1       -2.159  -1.534   2.457  0.00  0.00    +0.210 HD
ENDBRANCH   2  21
BRANCH   6  23
ATOM     23  O   LIG    1       -1.241  -5.032  -1.258  0.00  0.00    -0.377 OA
ATOM     24  H   LIG    1       -1.216  -4.723  -2.174  0.00  0.00    +0.211 HD
ENDBRANCH   6  23
BRANCH  10  25
ATOM     25  C   LIG    1       -2.278  -3.313  -4.296  0.00  0.00    -0.000 C 
ATOM     26  C   LIG    1       -1.047  -2.866  -4.301  0.00  0.00    +0.007 C 
ENDBRANCH  10  25
BRANCH  13  27
ATOM     27  O   LIG    1       -1.022  -7.035   0.049  0.00  0.00    -0.391 OA
ATOM     28  H   LIG    1       -0.880  -7.989  -0.022  0.00  0.00    +0.210 HD
ENDBRANCH  13  27
BRANCH   1  29
ATOM     29  O   LIG    1       -1.387  -1.049   0.208  0.00  0.00    -0.456 OA
BRANCH  29  31
ATOM     30  C   LIG    1       -0.342   1.187   0.286  0.00  0.00    +0.136 C 
ATOM     31  C   LIG    1       -0.262  -0.317   0.224  0.00  0.00    +0.304 C 
ATOM     32  O   LIG    1        0.815  -0.863   0.187  0.00  0.00    -0.251 OA
ENDBRANCH  29  31
ENDBRANCH   1  29
TORSDOF 6
