REMARK  Name = ZINC03872828
REMARK                            x       y       z     vdW  Elec       q    Type
REMARK                         _______ _______ _______ _____ _____    ______ ____
ROOT
ATOM      1  C   LIG    1        4.484   1.029   2.213  0.00  0.00    +0.038 C 
ATOM      2  C   LIG    1        3.425   1.683   1.364  0.00  0.00    -0.077 C 
ATOM      3  C   LIG    1        3.699   2.823   0.815  0.00  0.00    -0.024 C 
ATOM      4  C   LIG    1        2.751   3.584  -0.060  0.00  0.00    +0.019 C 
ATOM      5  C   LIG    1        3.130   3.391  -1.529  0.00  0.00    +0.061 C 
ATOM      6  C   LIG    1        2.862   1.971  -1.960  0.00  0.00    +0.021 A 
ATOM      7  C   LIG    1        2.054   1.141  -1.270  0.00  0.00    -0.038 A 
ATOM      8  C   LIG    1        1.352   1.550  -0.003  0.00  0.00    -0.033 C 
ATOM      9  N   LIG    1       -0.017   0.994   0.019  0.00  0.00    +0.386 N 
ATOM     10  H   LIG    1        0.033  -0.029  -0.059  0.00  0.00    -0.085 HD
ATOM     11  H   LIG    1       -0.470   1.248   0.905  0.00  0.00    -0.085 HD
ATOM     12  C   LIG    1       -0.816   1.526  -1.103  0.00  0.00    -0.081 C 
ATOM     13  C   LIG    1       -0.945   3.045  -0.957  0.00  0.00    -0.019 C 
ATOM     14  C   LIG    1        0.453   3.666  -0.997  0.00  0.00    +0.001 C 
ATOM     15  C   LIG    1        1.841  -0.172  -1.736  0.00  0.00    +0.009 A 
ATOM     16  C   LIG    1        2.454  -0.596  -2.875  0.00  0.00    +0.070 A 
ATOM     17  C   LIG    1        3.294   0.292  -3.567  0.00  0.00    +0.249 A 
ATOM     18  O   LIG    1        3.855  -0.067  -4.590  0.00  0.00    -0.268 OA
ATOM     19  N   LIG    1        3.477   1.538  -3.100  0.00  0.00    -0.326 N 
ATOM     20  H   LIG    1        4.078   2.163  -3.599  0.00  0.00    +0.169 HD
ATOM     21  C   LIG    1        1.314   3.074   0.123  0.00  0.00    -0.010 C 
ATOM     22  C   LIG    1        2.111   0.979   1.202  0.00  0.00    +0.022 C 
ENDROOT
TORSDOF 0
