REMARK  Name = ZINC03938493
REMARK                            x       y       z     vdW  Elec       q    Type
REMARK                         _______ _______ _______ _____ _____    ______ ____
ROOT
ATOM      1  C   LIG    1        2.434   3.733   0.076  0.00  0.00    +0.309 C 
ATOM      2  O   LIG    1        3.293   3.278   1.138  0.00  0.00    -0.440 OA
ATOM      3  C   LIG    1        4.566   3.490   0.691  0.00  0.00    +0.168 A 
ATOM      4  C   LIG    1        5.771   3.547   1.362  0.00  0.00    +0.065 A 
ATOM      5  C   LIG    1        6.954   3.782   0.654  0.00  0.00    +0.076 A 
ATOM      6  C   LIG    1        6.910   3.959  -0.734  0.00  0.00    +0.139 A 
ATOM      7  F   LIG    1        8.050   4.187  -1.423  0.00  0.00    -0.205 F 
ATOM      8  C   LIG    1        5.701   3.900  -1.398  0.00  0.00    +0.088 A 
ATOM      9  C   LIG    1        4.528   3.667  -0.694  0.00  0.00    +0.170 A 
ATOM     10  O   LIG    1        3.232   3.568  -1.111  0.00  0.00    -0.440 OA
ENDROOT
BRANCH   1  11
ATOM     11  C   LIG    1        1.191   2.885   0.001  0.00  0.00    +0.059 A 
ATOM     12  C   LIG    1       -0.056   3.474   0.110  0.00  0.00    +0.014 A 
ATOM     13  C   LIG    1       -1.196   2.696   0.041  0.00  0.00    +0.020 A 
ATOM     14  C   LIG    1       -1.091   1.329  -0.144  0.00  0.00    +0.042 A 
ATOM     15 CL   LIG    1       -2.524   0.353  -0.237  0.00  0.00    -0.083 Cl
ATOM     16  C   LIG    1        0.155   0.739  -0.248  0.00  0.00    +0.040 A 
ATOM     17  C   LIG    1        1.296   1.518  -0.179  0.00  0.00    +0.053 A 
ATOM     18 CL   LIG    1        2.861   0.778  -0.316  0.00  0.00    -0.083 Cl
ENDBRANCH   1  11
BRANCH   5  19
ATOM     19  C   LIG    1        8.243   3.844   1.367  0.00  0.00    +0.250 C 
ATOM     20  N   LIG    1        8.556   2.899   2.276  0.00  0.00    -0.293 N 
ATOM     21  C   LIG    1        7.682   1.735   2.490  0.00  0.00    +0.136 C 
ATOM     22  C   LIG    1        8.546   0.466   2.419  0.00  0.00    +0.179 C 
ATOM     23  O   LIG    1        9.653   0.602   3.313  0.00  0.00    -0.377 OA
ATOM     24  C   LIG    1       10.539   1.676   2.990  0.00  0.00    +0.179 C 
ATOM     25  C   LIG    1        9.780   3.004   3.087  0.00  0.00    +0.136 C 
ATOM     26  O   LIG    1        9.024   4.747   1.135  0.00  0.00    -0.270 OA
ENDBRANCH   5  19
BRANCH   1  33
ATOM     27  C   LIG    1        1.880   6.002  -0.824  0.00  0.00    +0.014 A 
ATOM     28  C   LIG    1        1.544   7.330  -0.645  0.00  0.00    +0.039 A 
ATOM     29  C   LIG    1        1.410   7.844   0.634  0.00  0.00    +0.123 A 
ATOM     30  F   LIG    1        1.086   9.143   0.810  0.00  0.00    -0.205 F 
ATOM     31  C   LIG    1        1.608   7.024   1.732  0.00  0.00    +0.039 A 
ATOM     32  C   LIG    1        1.939   5.695   1.550  0.00  0.00    +0.014 A 
ATOM     33  C   LIG    1        2.072   5.183   0.273  0.00  0.00    +0.041 A 
ENDBRANCH   1  33
TORSDOF 3
