REMARK  Name = ZINC03923061
REMARK                            x       y       z     vdW  Elec       q    Type
REMARK                         _______ _______ _______ _____ _____    ______ ____
ROOT
ATOM      1  C   LIG    1        2.420   0.805  -0.477  0.00  0.00    +0.015 C 
ATOM      2  C   LIG    1        2.268  -0.498   0.370  0.00  0.00    +0.011 C 
ATOM      3  C   LIG    1        2.655  -0.079   1.807  0.00  0.00    +0.005 C 
ATOM      4  C   LIG    1        3.004   1.437   1.695  0.00  0.00    -0.003 C 
ATOM      5  C   LIG    1        1.634   2.135   1.436  0.00  0.00    +0.027 C 
ATOM      6  C   LIG    1        1.248   1.716  -0.001  0.00  0.00    +0.081 C 
ATOM      7  C   LIG    1        3.631   1.485   0.257  0.00  0.00    -0.023 C 
ATOM      8  C   LIG    1        4.906   0.645   0.158  0.00  0.00    +0.012 C 
ATOM      9  C   LIG    1        3.857   2.920  -0.223  0.00  0.00    +0.012 C 
ENDROOT
BRANCH   6  10
ATOM     10  N   LIG    1       -0.011   0.966   0.007  0.00  0.00    -0.313 N 
ATOM     11  H   LIG    1       -0.004   0.005  -0.124  0.00  0.00    +0.149 HD
ATOM     12  C   LIG    1       -1.179   1.612   0.192  0.00  0.00    +0.199 C 
ATOM     13  O   LIG    1       -1.188   2.814   0.355  0.00  0.00    -0.278 OA
BRANCH  12  14
ATOM     14  C   LIG    1       -2.474   0.842   0.194  0.00  0.00    +0.014 C 
BRANCH  14  15
ATOM     15  N   LIG    1       -3.503   1.636   0.889  0.00  0.00    +0.386 N 
ATOM     16  H   LIG    1       -3.182   1.843   1.842  0.00  0.00    -0.089 HD
ATOM     17  H   LIG    1       -4.375   1.112   0.938  0.00  0.00    -0.089 HD
ATOM     18  H   LIG    1       -3.661   2.512   0.394  0.00  0.00    -0.089 HD
ENDBRANCH  14  15
BRANCH  14  19
ATOM     19  C   LIG    1       -2.902   0.559  -1.248  0.00  0.00    +0.015 C 
BRANCH  19  20
ATOM     20  C   LIG    1       -4.148  -0.328  -1.246  0.00  0.00    +0.164 C 
BRANCH  20  21
ATOM     21  S   LIG    1       -4.655  -0.663  -2.955  0.00  0.00    -0.034 S 
ATOM     22  C   LIG    1       -6.121  -1.710  -2.740  0.00  0.00    +0.194 C 
ATOM     23  O   LIG    1       -3.640  -1.435  -3.582  0.00  0.00    -0.175 OA
ATOM     24  O   LIG    1       -5.061   0.561  -3.552  0.00  0.00    -0.175 OA
ENDBRANCH  20  21
ENDBRANCH  19  20
ENDBRANCH  14  19
ENDBRANCH  12  14
ENDBRANCH   6  10
BRANCH   1  25
ATOM     25  C   LIG    1        2.545   0.613  -1.990  0.00  0.00    +0.194 C 
BRANCH  25  26
ATOM     26  S   LIG    1        1.038  -0.171  -2.627  0.00  0.00    +0.033 S 
ATOM     27  O   LIG    1       -0.063   0.722  -2.514  0.00  0.00    -0.158 OA
ATOM     28  O   LIG    1        0.940  -1.505  -2.149  0.00  0.00    -0.158 OA
BRANCH  26  32
ATOM     29  N   LIG    1        2.588  -0.144  -6.716  0.00  0.00    -0.327 N 
ATOM     30  C   LIG    1        3.080  -1.103  -5.719  0.00  0.00    +0.122 C 
ATOM     31  C   LIG    1        1.922  -1.531  -4.812  0.00  0.00    +0.128 C 
ATOM     32  N   LIG    1        1.293  -0.323  -4.256  0.00  0.00    -0.178 NA
ATOM     33  C   LIG    1        0.891   0.743  -5.186  0.00  0.00    +0.128 C 
ATOM     34  C   LIG    1        2.096   1.084  -6.078  0.00  0.00    +0.122 C 
BRANCH  29  41
ATOM     35  C   LIG    1        2.045  -0.733  -9.446  0.00  0.00    +0.045 C 
ATOM     36  C   LIG    1        3.352  -0.126  -9.006  0.00  0.00    -0.029 A 
ATOM     37  C   LIG    1        4.330   0.161  -9.938  0.00  0.00    +0.005 A 
ATOM     38  C   LIG    1        5.529   0.718  -9.535  0.00  0.00    +0.000 A 
ATOM     39  C   LIG    1        5.755   0.989  -8.198  0.00  0.00    +0.002 A 
ATOM     40  C   LIG    1        4.780   0.709  -7.261  0.00  0.00    +0.023 A 
ATOM     41  C   LIG    1        3.575   0.145  -7.662  0.00  0.00    +0.033 A 
ENDBRANCH  29  41
ENDBRANCH  26  32
ENDBRANCH  25  26
ENDBRANCH   1  25
TORSDOF 10
