REMARK  Name = ZINC03928377
REMARK                            x       y       z     vdW  Elec       q    Type
REMARK                         _______ _______ _______ _____ _____    ______ ____
ROOT
ATOM      1  C   LIG    1        0.312   1.518   0.072  0.00  0.00    +0.171 C 
ATOM      2  C   LIG    1       -0.344   2.210  -1.133  0.00  0.00    +0.069 C 
ATOM      3  C   LIG    1       -1.609   2.826  -0.574  0.00  0.00    -0.024 A 
ATOM      4  C   LIG    1       -2.601   3.570  -1.185  0.00  0.00    +0.005 A 
ATOM      5  C   LIG    1       -3.676   4.030  -0.448  0.00  0.00    +0.000 A 
ATOM      6  C   LIG    1       -3.758   3.745   0.902  0.00  0.00    +0.002 A 
ATOM      7  C   LIG    1       -2.771   3.003   1.516  0.00  0.00    +0.024 A 
ATOM      8  C   LIG    1       -1.682   2.534   0.779  0.00  0.00    +0.040 A 
ATOM      9  N   LIG    1       -0.587   1.775   1.201  0.00  0.00    -0.260 N 
ATOM     10  C   LIG    1       -0.386   1.343   2.462  0.00  0.00    +0.206 C 
ATOM     11  O   LIG    1       -1.136   1.692   3.349  0.00  0.00    -0.277 OA
ENDROOT
BRANCH   1  14
ATOM     12  N   LIG    1        2.644   2.012  -0.587  0.00  0.00    -0.314 N 
ATOM     13  H   LIG    1        2.470   1.558  -1.427  0.00  0.00    +0.149 HD
ATOM     14  C   LIG    1        1.671   2.111   0.340  0.00  0.00    +0.234 C 
ATOM     15  O   LIG    1        1.889   2.678   1.390  0.00  0.00    -0.274 OA
BRANCH  12  16
ATOM     16  C   LIG    1        3.965   2.588  -0.326  0.00  0.00    +0.104 C 
BRANCH  16  17
ATOM     17  C   LIG    1        4.877   2.339  -1.530  0.00  0.00    +0.018 C 
BRANCH  17  19
ATOM     18  C   LIG    1        7.168   2.691  -2.461  0.00  0.00    +0.004 C 
ATOM     19  C   LIG    1        6.257   2.941  -1.258  0.00  0.00    -0.002 C 
ENDBRANCH  17  19
ENDBRANCH  16  17
ENDBRANCH  12  16
ENDBRANCH   1  14
BRANCH  10  20
ATOM     20  C   LIG    1        0.769   0.426   2.770  0.00  0.00    +0.013 C 
BRANCH  20  21
ATOM     21  N   LIG    1        1.198   0.591   4.170  0.00  0.00    +0.386 N 
ATOM     22  H   LIG    1        1.963  -0.065   4.368  0.00  0.00    -0.089 HD
ATOM     23  H   LIG    1        0.421   0.395   4.799  0.00  0.00    -0.089 HD
ATOM     24  H   LIG    1        1.528   1.542   4.324  0.00  0.00    -0.089 HD
ENDBRANCH  20  21
BRANCH  20  25
ATOM     25  C   LIG    1        0.341  -1.026   2.549  0.00  0.00    -0.011 C 
ATOM     26  C   LIG    1        1.546  -1.948   2.740  0.00  0.00    +0.002 C 
ENDBRANCH  20  25
ENDBRANCH  10  20
TORSDOF 7
