REMARK  Name = ZINC03995494
REMARK                            x       y       z     vdW  Elec       q    Type
REMARK                         _______ _______ _______ _____ _____    ______ ____
ROOT
ATOM      1  C   LIG    1        2.067  -0.266  -1.564  0.00  0.00    +0.092 A 
ATOM      2  C   LIG    1        2.794   0.183  -0.467  0.00  0.00    +0.139 A 
ATOM      3  C   LIG    1        4.156   0.401  -0.591  0.00  0.00    +0.047 A 
ATOM      4  C   LIG    1        4.779   0.173  -1.801  0.00  0.00    +0.008 A 
ATOM      5  C   LIG    1        4.057  -0.275  -2.899  0.00  0.00    -0.028 A 
ATOM      6  C   LIG    1        4.806  -0.493  -4.188  0.00  0.00    +0.130 C 
ATOM      7  C   LIG    1        4.001  -1.393  -5.129  0.00  0.00    +0.020 C 
ATOM      8  C   LIG    1        2.589  -0.809  -5.254  0.00  0.00    +0.006 C 
ATOM      9  C   LIG    1        1.864  -1.010  -3.924  0.00  0.00    +0.037 C 
ATOM     10  C   LIG    1        2.704  -0.504  -2.781  0.00  0.00    -0.017 A 
ENDROOT
BRANCH   6  11
ATOM     11  C   LIG    1        6.124  -1.160  -3.889  0.00  0.00    +0.246 C 
ATOM     12  N   LIG    1        6.287  -2.460  -3.958  0.00  0.00    -0.275 N 
ATOM     13  H   LIG    1        5.600  -3.101  -4.199  0.00  0.00    +0.304 HD
ATOM     14  C   LIG    1        7.678  -2.794  -3.612  0.00  0.00    +0.276 C 
ATOM     15  C   LIG    1        8.310  -1.417  -3.322  0.00  0.00    +0.268 C 
ATOM     16  N   LIG    1        7.195  -0.482  -3.547  0.00  0.00    -0.236 N 
ATOM     17  H   LIG    1        7.243   0.482  -3.455  0.00  0.00    +0.291 HD
ENDBRANCH   6  11
BRANCH   1  18
ATOM     18  N   LIG    1        0.691  -0.487  -1.445  0.00  0.00    -0.217 N 
ATOM     19  H   LIG    1        0.328  -1.377  -1.578  0.00  0.00    +0.173 HD
BRANCH  18  21
ATOM     20  C   LIG    1       -0.129   1.942  -2.449  0.00  0.00    +0.218 C 
ATOM     21  S   LIG    1       -0.320   0.772  -1.076  0.00  0.00    +0.040 S 
ATOM     22  O   LIG    1       -1.624   0.207  -1.092  0.00  0.00    -0.155 OA
ATOM     23  O   LIG    1        0.213   1.328   0.118  0.00  0.00    -0.155 OA
ENDBRANCH  18  21
ENDBRANCH   1  18
BRANCH   2  24
ATOM     24  O   LIG    1        2.170   0.407   0.721  0.00  0.00    -0.505 OA
ATOM     25  H   LIG    1        2.079  -0.382   1.272  0.00  0.00    +0.292 HD
ENDBRANCH   2  24
TORSDOF 4
