REMARK  Name = ZINC04013992
REMARK                            x       y       z     vdW  Elec       q    Type
REMARK                         _______ _______ _______ _____ _____    ______ ____
ROOT
ATOM      1  C   LIG    1       -0.013   1.086   0.008  0.00  0.00    +0.112 C 
ENDROOT
BRANCH   1   9
ATOM      2  C   LIG    1       -0.360   2.779   1.818  0.00  0.00    +0.006 A 
ATOM      3  C   LIG    1       -1.009   3.228   2.953  0.00  0.00    +0.022 A 
ATOM      4  C   LIG    1       -2.011   2.465   3.524  0.00  0.00    +0.059 A 
ATOM      5 CL   LIG    1       -2.823   3.026   4.952  0.00  0.00    -0.082 Cl
ATOM      6  C   LIG    1       -2.367   1.253   2.956  0.00  0.00    +0.060 A 
ATOM      7 CL   LIG    1       -3.625   0.294   3.671  0.00  0.00    -0.082 Cl
ATOM      8  C   LIG    1       -1.720   0.808   1.817  0.00  0.00    +0.026 A 
ATOM      9  C   LIG    1       -0.718   1.572   1.248  0.00  0.00    -0.036 A 
ENDBRANCH   1   9
BRANCH   1  10
ATOM     10  S   LIG    1       -0.888   1.685  -1.458  0.00  0.00    -0.088 S 
BRANCH  10  11
ATOM     11  C   LIG    1        0.122   0.990  -2.724  0.00  0.00    +0.123 C 
ATOM     12  N   LIG    1        1.165   0.274  -2.405  0.00  0.00    -0.382 N 
ATOM     13  H   LIG    1        1.414   0.104  -1.347  0.00  0.00    +0.158 HD
ATOM     14  H   LIG    1        1.796  -0.160  -3.195  0.00  0.00    +0.158 HD
BRANCH  11  15
ATOM     15  N   LIG    1       -0.189   1.202  -4.047  0.00  0.00    -0.340 N 
ATOM     16  H   LIG    1       -1.069   1.806  -4.315  0.00  0.00    +0.144 HD
ATOM     17  H   LIG    1        0.442   0.768  -4.836  0.00  0.00    +0.144 HD
ENDBRANCH  11  15
ENDBRANCH  10  11
ENDBRANCH   1  10
TORSDOF 4
