REMARK  Name = ZINC03925289
REMARK                            x       y       z     vdW  Elec       q    Type
REMARK                         _______ _______ _______ _____ _____    ______ ____
ROOT
ATOM      1  C   LIG    1        2.675   9.014   1.565  0.00  0.00    +0.040 A 
ATOM      2  C   LIG    1        2.017   9.468   2.703  0.00  0.00    +0.131 A 
ATOM      3  C   LIG    1        0.975   8.741   3.255  0.00  0.00    +0.093 A 
ATOM      4  C   LIG    1        0.575   7.544   2.677  0.00  0.00    +0.146 A 
ATOM      5  C   LIG    1        1.239   7.084   1.527  0.00  0.00    +0.106 A 
ATOM      6  C   LIG    1        0.809   5.813   0.919  0.00  0.00    +0.204 A 
ATOM      7  C   LIG    1       -0.303   5.102   1.578  0.00  0.00    +0.072 A 
ATOM      8  C   LIG    1       -0.888   5.670   2.721  0.00  0.00    +0.143 A 
ATOM      9  C   LIG    1       -1.939   5.010   3.345  0.00  0.00    +0.096 A 
ATOM     10  C   LIG    1       -2.404   3.809   2.838  0.00  0.00    +0.162 A 
ATOM     11  C   LIG    1       -1.824   3.249   1.697  0.00  0.00    +0.166 A 
ATOM     12  C   LIG    1       -0.780   3.893   1.067  0.00  0.00    +0.016 A 
ATOM     13  O   LIG    1        1.350   5.369  -0.078  0.00  0.00    -0.286 OA
ATOM     14  O   LIG    1       -0.440   6.841   3.222  0.00  0.00    -0.454 OA
ATOM     15  C   LIG    1        2.292   7.825   0.973  0.00  0.00    +0.138 A 
ENDROOT
BRANCH   2  16
ATOM     16  O   LIG    1        2.400  10.636   3.278  0.00  0.00    -0.495 OA
ATOM     17  C   LIG    1        1.685  11.049   4.445  0.00  0.00    +0.277 C 
ENDBRANCH   2  16
BRANCH  10  18
ATOM     18  O   LIG    1       -3.431   3.171   3.454  0.00  0.00    -0.503 OA
ATOM     19  H   LIG    1       -3.152   2.548   4.140  0.00  0.00    +0.292 HD
ENDBRANCH  10  18
BRANCH  11  20
ATOM     20  O   LIG    1       -2.290   2.068   1.208  0.00  0.00    -0.491 OA
ATOM     21  C   LIG    1       -1.681   0.875   1.706  0.00  0.00    +0.277 C 
ENDBRANCH  11  20
BRANCH  15  22
ATOM     22  O   LIG    1        2.931   7.378  -0.137  0.00  0.00    -0.506 OA
ATOM     23  H   LIG    1        2.541   7.686  -0.966  0.00  0.00    +0.292 HD
ENDBRANCH  15  22
BRANCH   1  24
ATOM     24  C   LIG    1        3.805   9.818   0.977  0.00  0.00    +0.069 C 
BRANCH  24  28
ATOM     25  C   LIG    1        4.567  12.535   1.061  0.00  0.00    +0.038 C 
ATOM     26  C   LIG    1        3.548  12.065   0.056  0.00  0.00    -0.079 C 
ATOM     27  C   LIG    1        2.864  13.060  -0.846  0.00  0.00    +0.038 C 
ATOM     28  C   LIG    1        3.257  10.791  -0.035  0.00  0.00    -0.023 C 
ENDBRANCH  24  28
ENDBRANCH   1  24
BRANCH  12  29
ATOM     29  C   LIG    1       -0.152   3.292  -0.164  0.00  0.00    +0.067 C 
BRANCH  29  30
ATOM     30  C   LIG    1       -0.773   3.903  -1.394  0.00  0.00    -0.023 C 
ATOM     31  C   LIG    1       -1.290   3.132  -2.318  0.00  0.00    -0.079 C 
ATOM     32  C   LIG    1       -1.840   3.737  -3.584  0.00  0.00    +0.038 C 
ATOM     33  C   LIG    1       -1.335   1.639  -2.116  0.00  0.00    +0.038 C 
ENDBRANCH  29  30
ENDBRANCH  12  29
TORSDOF 8
