REMARK  Name = ZINC03953810
REMARK                            x       y       z     vdW  Elec       q    Type
REMARK                         _______ _______ _______ _____ _____    ______ ____
ROOT
ATOM      1  C   LIG    1        0.100  -2.903  -4.796  0.00  0.00    +0.079 C 
ENDROOT
BRANCH   1   5
ATOM      2  C   LIG    1       -0.691  -1.288  -0.918  0.00  0.00    +0.029 A 
ATOM      3  C   LIG    1       -0.901  -0.513  -2.051  0.00  0.00    +0.023 A 
ATOM      4  C   LIG    1       -0.644  -1.038  -3.303  0.00  0.00    +0.006 A 
ATOM      5  C   LIG    1       -0.179  -2.333  -3.429  0.00  0.00    -0.036 A 
ATOM      6  C   LIG    1        0.032  -3.108  -2.303  0.00  0.00    +0.006 A 
ATOM      7  C   LIG    1       -0.217  -2.587  -1.048  0.00  0.00    +0.023 A 
BRANCH   2   9
ATOM      8  C   LIG    1       -0.720  -1.577   1.543  0.00  0.00    +0.129 C 
ATOM      9  N   LIG    1       -0.949  -0.760   0.349  0.00  0.00    -0.336 N 
ATOM     10  C   LIG    1       -1.448   0.611   0.483  0.00  0.00    +0.129 C 
ENDBRANCH   2   9
ENDBRANCH   1   5
BRANCH   1  11
ATOM     11  C   LIG    1        1.330  -2.250  -5.371  0.00  0.00    -0.036 A 
ATOM     12  C   LIG    1        1.430  -0.872  -5.404  0.00  0.00    +0.007 A 
ATOM     13  C   LIG    1        2.559  -0.273  -5.931  0.00  0.00    +0.033 A 
ATOM     14  C   LIG    1        3.588  -1.053  -6.425  0.00  0.00    +0.122 A 
ATOM     15  C   LIG    1        3.489  -2.431  -6.391  0.00  0.00    +0.033 A 
ATOM     16  C   LIG    1        2.362  -3.030  -5.860  0.00  0.00    +0.007 A 
BRANCH  14  17
ATOM     17  N   LIG    1        4.796  -0.411  -6.991  0.00  0.00    +0.006 N 
ATOM     18  O   LIG    1        4.883   0.794  -7.021  0.00  0.00    -0.130 OA
BRANCH  17  19
ATOM     19  O   LIG    1        5.697  -1.093  -7.423  0.00  0.00    -0.396 OA
ATOM     20  H   LIG    1        5.629  -2.027  -7.399  0.00  0.00    +0.329 HD
ENDBRANCH  17  19
ENDBRANCH  14  17
ENDBRANCH   1  11
BRANCH   1  21
ATOM     21  C   LIG    1       -1.077  -2.639  -5.699  0.00  0.00    -0.036 A 
ATOM     22  C   LIG    1       -0.869  -2.208  -6.996  0.00  0.00    +0.006 A 
ATOM     23  C   LIG    1       -1.945  -1.965  -7.827  0.00  0.00    +0.023 A 
ATOM     24  C   LIG    1       -3.239  -2.156  -7.358  0.00  0.00    +0.029 A 
ATOM     25  C   LIG    1       -3.445  -2.590  -6.055  0.00  0.00    +0.023 A 
ATOM     26  C   LIG    1       -2.364  -2.835  -5.231  0.00  0.00    +0.006 A 
BRANCH  24  27
ATOM     27  N   LIG    1       -4.330  -1.912  -8.195  0.00  0.00    -0.336 N 
ATOM     28  C   LIG    1       -5.686  -2.229  -7.742  0.00  0.00    +0.129 C 
ATOM     29  C   LIG    1       -4.117  -1.338  -9.526  0.00  0.00    +0.129 C 
ENDBRANCH  24  27
ENDBRANCH   1  21
TORSDOF 7
