REMARK  Name = ZINC04059838
REMARK                            x       y       z     vdW  Elec       q    Type
REMARK                         _______ _______ _______ _____ _____    ______ ____
ROOT
ATOM      1  C   LIG    1       -3.534   2.448   0.048  0.00  0.00    +0.161 C 
ATOM      2  C   LIG    1       -3.203   1.690   1.312  0.00  0.00    +0.179 C 
ATOM      3  O   LIG    1       -3.714   0.656   1.684  0.00  0.00    -0.291 OA
ATOM      4  C   LIG    1       -2.139   2.439   2.006  0.00  0.00    +0.029 A 
ATOM      5  C   LIG    1       -1.482   2.181   3.211  0.00  0.00    +0.012 A 
ATOM      6  C   LIG    1       -0.507   3.046   3.668  0.00  0.00    +0.001 A 
ATOM      7  C   LIG    1       -0.177   4.176   2.941  0.00  0.00    +0.001 A 
ATOM      8  C   LIG    1       -0.819   4.454   1.749  0.00  0.00    +0.012 A 
ATOM      9  C   LIG    1       -1.240   3.164   0.031  0.00  0.00    +0.029 A 
ATOM     10  C   LIG    1       -2.629   3.657   0.047  0.00  0.00    +0.179 C 
ATOM     11  O   LIG    1       -2.980   4.817   0.057  0.00  0.00    -0.291 OA
ENDROOT
BRANCH   1  17
ATOM     12  C   LIG    1       -8.149   2.488  -4.470  0.00  0.00    +0.001 A 
ATOM     13  C   LIG    1       -8.739   2.516  -3.208  0.00  0.00    +0.001 A 
ATOM     14  C   LIG    1       -7.980   2.515  -2.078  0.00  0.00    +0.008 A 
ATOM     15  C   LIG    1       -6.579   2.484  -2.183  0.00  0.00    -0.018 A 
ATOM     16  C   LIG    1       -5.761   2.481  -1.040  0.00  0.00    +0.013 A 
ATOM     17  C   LIG    1       -4.408   2.451  -1.180  0.00  0.00    -0.029 A 
ATOM     18  C   LIG    1       -3.817   2.428  -2.442  0.00  0.00    +0.005 A 
ATOM     19  C   LIG    1       -4.577   2.425  -3.571  0.00  0.00    +0.009 A 
ATOM     20  C   LIG    1       -5.978   2.455  -3.466  0.00  0.00    -0.018 A 
ATOM     21  C   LIG    1       -6.795   2.458  -4.610  0.00  0.00    +0.008 A 
ENDBRANCH   1  17
TORSDOF 1
