REMARK  Name = ZINC03881558
REMARK                            x       y       z     vdW  Elec       q    Type
REMARK                         _______ _______ _______ _____ _____    ______ ____
ROOT
ATOM      1  C   LIG    1        3.649   2.173  -0.021  0.00  0.00    +0.184 A 
ATOM      2  C   LIG    1        4.825   1.487   0.063  0.00  0.00    +0.208 A 
ATOM      3  C   LIG    1        6.050   2.199   0.056  0.00  0.00    +0.238 A 
ATOM      4  C   LIG    1        5.981   3.666  -0.043  0.00  0.00    +0.109 A 
ATOM      5  C   LIG    1        7.142   4.449  -0.057  0.00  0.00    +0.135 A 
ATOM      6  C   LIG    1        7.036   5.824  -0.152  0.00  0.00    +0.091 A 
ATOM      7  C   LIG    1        5.783   6.424  -0.233  0.00  0.00    +0.124 A 
ATOM      8  C   LIG    1        4.630   5.656  -0.219  0.00  0.00    +0.092 A 
ATOM      9  C   LIG    1        4.716   4.275  -0.125  0.00  0.00    +0.147 A 
ATOM     10  O   LIG    1        7.122   1.619   0.130  0.00  0.00    -0.283 OA
ATOM     11  O   LIG    1        3.602   3.513  -0.117  0.00  0.00    -0.451 OA
ENDROOT
BRANCH   1  14
ATOM     12  C   LIG    1        0.905  -0.147   1.052  0.00  0.00    +0.046 A 
ATOM     13  C   LIG    1        2.089   0.557   1.048  0.00  0.00    +0.019 A 
ATOM     14  C   LIG    1        2.385   1.418  -0.013  0.00  0.00    +0.063 A 
ATOM     15  C   LIG    1        1.473   1.559  -1.070  0.00  0.00    +0.131 A 
ATOM     16  C   LIG    1        0.287   0.847  -1.054  0.00  0.00    +0.091 A 
ATOM     17  C   LIG    1        0.003  -0.005   0.004  0.00  0.00    +0.120 A 
BRANCH  15  18
ATOM     18  O   LIG    1        1.752   2.393  -2.104  0.00  0.00    -0.506 OA
ATOM     19  H   LIG    1        2.159   1.954  -2.864  0.00  0.00    +0.292 HD
ENDBRANCH  15  18
BRANCH  17  20
ATOM     20  O   LIG    1       -1.162  -0.703   0.015  0.00  0.00    -0.507 OA
ATOM     21  H   LIG    1       -1.893  -0.241   0.448  0.00  0.00    +0.292 HD
ENDBRANCH  17  20
ENDBRANCH   1  14
BRANCH   2  22
ATOM     22  O   LIG    1        4.822   0.129   0.153  0.00  0.00    -0.501 OA
ATOM     23  H   LIG    1        5.704  -0.264   0.208  0.00  0.00    +0.292 HD
ENDBRANCH   2  22
BRANCH   5  24
ATOM     24  O   LIG    1        8.363   3.862   0.022  0.00  0.00    -0.506 OA
ATOM     25  H   LIG    1        8.746   3.633  -0.835  0.00  0.00    +0.292 HD
ENDBRANCH   5  24
BRANCH   7  26
ATOM     26  O   LIG    1        5.690   7.775  -0.325  0.00  0.00    -0.507 OA
ATOM     27  H   LIG    1        5.692   8.109  -1.232  0.00  0.00    +0.292 HD
ENDBRANCH   7  26
TORSDOF 6
