REMARK  Name = ZINC03896289
REMARK                            x       y       z     vdW  Elec       q    Type
REMARK                         _______ _______ _______ _____ _____    ______ ____
ROOT
ATOM      1  C   LIG    1       -3.514  -0.588   0.426  0.00  0.00    +0.252 C 
ATOM      2  N   LIG    1       -2.349   0.056   0.216  0.00  0.00    -0.280 N 
ATOM      3  H   LIG    1       -2.335   1.024   0.149  0.00  0.00    +0.155 HD
ATOM      4  O   LIG    1       -3.520  -1.790   0.610  0.00  0.00    -0.270 OA
ENDROOT
BRANCH   1   9
ATOM      5  C   LIG    1       -5.968   2.244   0.231  0.00  0.00    +0.001 A 
ATOM      6  C   LIG    1       -7.167   1.583   0.447  0.00  0.00    +0.004 A 
ATOM      7  C   LIG    1       -7.183   0.218   0.656  0.00  0.00    +0.046 A 
ATOM      8  C   LIG    1       -5.997  -0.500   0.651  0.00  0.00    +0.129 A 
ATOM      9  C   LIG    1       -4.782   0.165   0.433  0.00  0.00    +0.078 A 
ATOM     10  C   LIG    1       -4.780   1.547   0.228  0.00  0.00    +0.017 A 
BRANCH   8  11
ATOM     11  O   LIG    1       -6.011  -1.841   0.858  0.00  0.00    -0.506 OA
ATOM     12  H   LIG    1       -5.932  -2.097   1.787  0.00  0.00    +0.292 HD
ENDBRANCH   8  11
ENDBRANCH   1   9
BRANCH   2  13
ATOM     13  C   LIG    1       -1.161  -0.671   0.095  0.00  0.00    +0.064 A 
ATOM     14  C   LIG    1       -0.901  -1.729   0.956  0.00  0.00    +0.025 A 
ATOM     15  C   LIG    1        0.277  -2.441   0.838  0.00  0.00    +0.002 A 
ATOM     16  C   LIG    1        1.194  -2.105  -0.141  0.00  0.00    +0.002 A 
ATOM     17  C   LIG    1        0.936  -1.055  -1.003  0.00  0.00    +0.034 A 
ATOM     18  C   LIG    1       -0.239  -0.339  -0.890  0.00  0.00    +0.143 A 
BRANCH  18  19
ATOM     19  N   LIG    1       -0.514   0.785  -1.813  0.00  0.00    +0.008 N 
ATOM     20  O   LIG    1        0.310   1.098  -2.654  0.00  0.00    -0.130 OA
BRANCH  19  21
ATOM     21  O   LIG    1       -1.566   1.394  -1.735  0.00  0.00    -0.396 OA
ATOM     22  H   LIG    1       -2.199   1.154  -1.088  0.00  0.00    +0.329 HD
ENDBRANCH  19  21
ENDBRANCH  18  19
ENDBRANCH   2  13
TORSDOF 5
