REMARK  Name = ZINC04096293
REMARK                            x       y       z     vdW  Elec       q    Type
REMARK                         _______ _______ _______ _____ _____    ______ ____
ROOT
ATOM      1  C   LIG    1       -0.467  -0.713   4.242  0.00  0.00    +0.024 C 
ATOM      2  C   LIG    1        1.000  -0.821   3.748  0.00  0.00    +0.007 C 
ATOM      3  C   LIG    1        1.121   0.115   2.517  0.00  0.00    +0.005 C 
ATOM      4  C   LIG    1       -0.180   0.934   2.548  0.00  0.00    -0.001 C 
ATOM      5  C   LIG    1       -0.578   1.589   1.257  0.00  0.00    -0.003 C 
ATOM      6  C   LIG    1        0.155   1.055   0.037  0.00  0.00    +0.008 C 
ATOM      7  C   LIG    1       -0.510   1.575  -1.240  0.00  0.00    +0.032 C 
ATOM      8  C   LIG    1       -1.347   2.789  -0.915  0.00  0.00    -0.060 C 
ATOM      9  C   LIG    1       -1.078   3.957  -1.487  0.00  0.00    +0.046 C 
ATOM     10  C   LIG    1       -1.868   5.149  -1.188  0.00  0.00    +0.156 C 
ATOM     11  C   LIG    1       -2.991   5.083  -0.186  0.00  0.00    +0.080 C 
ATOM     12  C   LIG    1       -2.726   3.949   0.807  0.00  0.00    +0.019 C 
ATOM     13  O   LIG    1       -1.619   6.197  -1.750  0.00  0.00    -0.293 OA
ATOM     14  C   LIG    1       -2.488   2.639   0.064  0.00  0.00    -0.007 C 
ATOM     15  C   LIG    1       -3.752   2.211  -0.684  0.00  0.00    +0.016 C 
ATOM     16  C   LIG    1       -2.093   1.538   1.056  0.00  0.00    +0.002 C 
ATOM     17  C   LIG    1       -2.801   1.722   2.392  0.00  0.00    +0.005 C 
ATOM     18  C   LIG    1       -2.545   0.530   3.328  0.00  0.00    +0.007 C 
ATOM     19  C   LIG    1       -1.210  -0.102   3.039  0.00  0.00    -0.024 C 
ATOM     20  C   LIG    1       -1.386  -1.245   2.023  0.00  0.00    +0.012 C 
ENDROOT
BRANCH   1  22
ATOM     21  C   LIG    1        0.357  -0.400   6.574  0.00  0.00    +0.038 C 
ATOM     22  C   LIG    1       -0.534   0.180   5.474  0.00  0.00    +0.115 C 
BRANCH  22  23
ATOM     23  O   LIG    1       -1.883   0.248   5.941  0.00  0.00    -0.392 OA
ATOM     24  H   LIG    1       -2.257  -0.608   6.189  0.00  0.00    +0.210 HD
ENDBRANCH  22  23
ENDBRANCH   1  22
TORSDOF 2
