REMARK  Name = ZINC03924338
REMARK                            x       y       z     vdW  Elec       q    Type
REMARK                         _______ _______ _______ _____ _____    ______ ____
ROOT
ATOM      1  C   LIG    1       -2.199   0.172   0.262  0.00  0.00    +0.084 C 
ENDROOT
BRANCH   1   2
ATOM      2  C   LIG    1       -1.088   1.167   0.050  0.00  0.00    +0.217 C 
ATOM      3  N   LIG    1        0.181   0.738  -0.104  0.00  0.00    -0.303 N 
ATOM      4  H   LIG    1        0.378  -0.211  -0.079  0.00  0.00    +0.149 HD
ATOM      5  O   LIG    1       -1.335   2.354   0.018  0.00  0.00    -0.275 OA
BRANCH   3   6
ATOM      6  C   LIG    1        1.260   1.705  -0.316  0.00  0.00    +0.164 C 
BRANCH   6   7
ATOM      7  C   LIG    1        1.760   2.217   1.037  0.00  0.00    -0.011 C 
ATOM      8  C   LIG    1        0.591   2.824   1.815  0.00  0.00    +0.013 C 
ATOM      9  C   LIG    1        2.833   3.285   0.813  0.00  0.00    +0.013 C 
ATOM     10  C   LIG    1        2.354   1.055   1.834  0.00  0.00    +0.013 C 
ENDBRANCH   6   7
BRANCH   6  11
ATOM     11  C   LIG    1        2.395   1.039  -1.051  0.00  0.00    +0.234 C 
ATOM     12  N   LIG    1        3.232   1.775  -1.808  0.00  0.00    -0.307 N 
ATOM     13  H   LIG    1        3.150   2.741  -1.823  0.00  0.00    +0.149 HD
ATOM     14  O   LIG    1        2.555  -0.160  -0.960  0.00  0.00    -0.274 OA
BRANCH  12  15
ATOM     15  C   LIG    1        4.266   1.115  -2.609  0.00  0.00    +0.100 C 
ATOM     16  C   LIG    1        5.503   0.869  -1.742  0.00  0.00    +0.033 C 
BRANCH  15  17
ATOM     17  C   LIG    1        4.637   1.996  -3.774  0.00  0.00    -0.027 A 
ATOM     18  C   LIG    1        4.740   3.364  -3.602  0.00  0.00    +0.005 A 
ATOM     19  C   LIG    1        5.084   4.171  -4.670  0.00  0.00    +0.000 A 
ATOM     20  C   LIG    1        5.317   3.612  -5.912  0.00  0.00    +0.000 A 
ATOM     21  C   LIG    1        5.210   2.245  -6.086  0.00  0.00    +0.000 A 
ATOM     22  C   LIG    1        4.870   1.437  -5.017  0.00  0.00    +0.005 A 
ENDBRANCH  15  17
ENDBRANCH  12  15
ENDBRANCH   6  11
ENDBRANCH   3   6
ENDBRANCH   1   2
BRANCH   1  23
ATOM     23  C   LIG    1       -3.529   0.915   0.407  0.00  0.00    +0.013 C 
BRANCH  23  24
ATOM     24  C   LIG    1       -3.886   1.585  -0.921  0.00  0.00    +0.005 C 
BRANCH  24  25
ATOM     25  C   LIG    1       -5.152   2.425  -0.744  0.00  0.00    +0.035 C 
BRANCH  25  29
ATOM     26  C   LIG    1       -7.571   2.333  -5.122  0.00  0.00    +0.044 C 
ATOM     27  C   LIG    1       -6.663   3.038  -4.147  0.00  0.00    -0.042 A 
ATOM     28  C   LIG    1       -6.336   2.438  -2.948  0.00  0.00    +0.007 A 
ATOM     29  C   LIG    1       -5.504   3.085  -2.052  0.00  0.00    -0.047 A 
ATOM     30  C   LIG    1       -4.998   4.338  -2.351  0.00  0.00    +0.004 A 
ATOM     31  C   LIG    1       -5.314   4.944  -3.550  0.00  0.00    +0.009 A 
ATOM     32  C   LIG    1       -6.152   4.297  -4.455  0.00  0.00    -0.015 A 
BRANCH  32  33
ATOM     33  C   LIG    1       -6.500   4.948  -5.743  0.00  0.00    -0.018 A 
ATOM     34  C   LIG    1       -5.492   5.366  -6.610  0.00  0.00    +0.008 A 
ATOM     35  C   LIG    1       -5.822   5.966  -7.809  0.00  0.00    +0.001 A 
ATOM     36  C   LIG    1       -7.149   6.162  -8.145  0.00  0.00    +0.000 A 
ATOM     37  C   LIG    1       -8.153   5.753  -7.286  0.00  0.00    +0.001 A 
ATOM     38  C   LIG    1       -7.835   5.147  -6.087  0.00  0.00    +0.008 A 
ENDBRANCH  32  33
ENDBRANCH  25  29
ENDBRANCH  24  25
ENDBRANCH  23  24
ENDBRANCH   1  23
BRANCH   1  39
ATOM     39  C   LIG    1       -1.925  -0.636   1.532  0.00  0.00    +0.110 C 
BRANCH  39  40
ATOM     40  C   LIG    1       -2.952  -1.731   1.663  0.00  0.00    +0.236 C 
ATOM     41  N   LIG    1       -2.993  -2.487   2.778  0.00  0.00    -0.197 N 
ATOM     42  H   LIG    1       -2.361  -2.327   3.496  0.00  0.00    +0.182 HD
ATOM     43  O   LIG    1       -3.742  -1.931   0.765  0.00  0.00    -0.274 OA
BRANCH  41  44
ATOM     44  O   LIG    1       -3.958  -3.516   2.900  0.00  0.00    -0.295 OA
ATOM     45  H   LIG    1       -3.910  -4.004   3.734  0.00  0.00    +0.241 HD
ENDBRANCH  41  44
ENDBRANCH  39  40
ENDBRANCH   1  39
TORSDOF 14
