REMARK  Name = ZINC03874317
REMARK                            x       y       z     vdW  Elec       q    Type
REMARK                         _______ _______ _______ _____ _____    ______ ____
ROOT
ATOM      1  C   LIG    1        1.170   3.565   0.009  0.00  0.00    +0.181 A 
ATOM      2  C   LIG    1        2.365   4.255   0.101  0.00  0.00    +0.203 A 
ATOM      3  C   LIG    1        2.358   5.655   0.109  0.00  0.00    +0.176 A 
ATOM      4  C   LIG    1        1.116   6.321   0.022  0.00  0.00    +0.104 A 
ATOM      5  C   LIG    1        1.052   7.731   0.025  0.00  0.00    +0.135 A 
ATOM      6  C   LIG    1       -0.159   8.355  -0.060  0.00  0.00    +0.097 A 
ATOM      7  C   LIG    1       -1.340   7.601  -0.152  0.00  0.00    +0.186 A 
ATOM      8  C   LIG    1       -1.289   6.203  -0.156  0.00  0.00    +0.098 A 
ATOM      9  O   LIG    1       -2.518   8.221  -0.235  0.00  0.00    -0.288 OA
ATOM     10  C   LIG    1       -0.069   5.558  -0.070  0.00  0.00    +0.147 A 
ATOM     11  O   LIG    1       -0.006   4.210  -0.078  0.00  0.00    -0.451 OA
ENDROOT
BRANCH   1  13
ATOM     12  C   LIG    1        2.077   1.405  -0.829  0.00  0.00    +0.061 A 
ATOM     13  C   LIG    1        1.186   2.092   0.002  0.00  0.00    +0.028 A 
ATOM     14  C   LIG    1        0.310   1.377   0.826  0.00  0.00    +0.061 A 
ATOM     15  C   LIG    1        0.328  -0.005   0.817  0.00  0.00    +0.163 A 
ATOM     16  C   LIG    1        1.217  -0.685  -0.011  0.00  0.00    +0.201 A 
ATOM     17  C   LIG    1        2.090   0.023  -0.833  0.00  0.00    +0.163 A 
BRANCH  15  18
ATOM     18  O   LIG    1       -0.522  -0.700   1.617  0.00  0.00    -0.503 OA
ATOM     19  H   LIG    1       -1.373  -0.905   1.204  0.00  0.00    +0.292 HD
ENDBRANCH  15  18
BRANCH  16  20
ATOM     20  O   LIG    1        1.233  -2.045  -0.017  0.00  0.00    -0.501 OA
ATOM     21  H   LIG    1        0.634  -2.442  -0.664  0.00  0.00    +0.292 HD
ENDBRANCH  16  20
BRANCH  17  22
ATOM     22  O   LIG    1        2.956  -0.645  -1.641  0.00  0.00    -0.503 OA
ATOM     23  H   LIG    1        3.811  -0.835  -1.230  0.00  0.00    +0.292 HD
ENDBRANCH  17  22
ENDBRANCH   1  13
BRANCH   2  24
ATOM     24  O   LIG    1        3.541   3.576   0.184  0.00  0.00    -0.501 OA
ATOM     25  H   LIG    1        4.320   4.146   0.244  0.00  0.00    +0.292 HD
ENDBRANCH   2  24
BRANCH   3  26
ATOM     26  O   LIG    1        3.513   6.352   0.198  0.00  0.00    -0.503 OA
ATOM     27  H   LIG    1        4.331   5.899   0.256  0.00  0.00    +0.292 HD
ENDBRANCH   3  26
BRANCH   5  28
ATOM     28  O   LIG    1        2.190   8.463   0.113  0.00  0.00    -0.506 OA
ATOM     29  H   LIG    1        2.044   9.419   0.108  0.00  0.00    +0.292 HD
ENDBRANCH   5  28
TORSDOF 7
