REMARK  Name = ZINC03939175
REMARK                            x       y       z     vdW  Elec       q    Type
REMARK                         _______ _______ _______ _____ _____    ______ ____
ROOT
ATOM      1  C   LIG    1       -2.670   3.104   1.352  0.00  0.00    +0.159 C 
ENDROOT
BRANCH   1   2
ATOM      2  N   LIG    1       -3.553   4.034   0.645  0.00  0.00    -0.303 N 
ATOM      3  H   LIG    1       -4.103   4.657   1.146  0.00  0.00    +0.149 HD
ATOM      4  C   LIG    1       -3.602   4.025  -0.702  0.00  0.00    +0.226 C 
ATOM      5  O   LIG    1       -2.914   3.247  -1.329  0.00  0.00    -0.275 OA
BRANCH   4   6
ATOM      6  C   LIG    1       -4.510   4.983  -1.430  0.00  0.00    +0.130 C 
BRANCH   6   7
ATOM      7  S   LIG    1       -3.574   6.462  -1.905  0.00  0.00    -0.165 S 
ATOM      8  H   LIG    1       -2.597   5.988  -2.699  0.00  0.00    +0.102 HD
ENDBRANCH   6   7
BRANCH   6   9
ATOM      9  C   LIG    1       -5.065   4.305  -2.685  0.00  0.00    +0.043 C 
BRANCH   9  10
ATOM     10  C   LIG    1       -6.082   5.230  -3.356  0.00  0.00    +0.119 C 
BRANCH  10  11
ATOM     11  N   LIG    1       -6.614   4.582  -4.557  0.00  0.00    -0.224 N 
ATOM     12  C   LIG    1       -7.704   3.789  -4.571  0.00  0.00    +0.246 C 
ATOM     13  C   LIG    1       -7.874   3.351  -6.012  0.00  0.00    +0.109 C 
ATOM     14  C   LIG    1       -9.215   3.833  -6.567  0.00  0.00    +0.041 C 
ATOM     15  C   LIG    1       -7.761   1.829  -6.128  0.00  0.00    +0.041 C 
ATOM     16  N   LIG    1       -6.754   4.008  -6.708  0.00  0.00    -0.274 N 
ATOM     17  C   LIG    1       -6.441   3.923  -8.137  0.00  0.00    +0.134 C 
ATOM     18  O   LIG    1       -8.403   3.490  -3.627  0.00  0.00    -0.273 OA
ATOM     19  C   LIG    1       -6.079   4.707  -5.778  0.00  0.00    +0.312 C 
ATOM     20  O   LIG    1       -5.093   5.375  -6.018  0.00  0.00    -0.252 OA
ENDBRANCH  10  11
ENDBRANCH   9  10
ENDBRANCH   6   9
ENDBRANCH   4   6
ENDBRANCH   1   2
BRANCH   1  21
ATOM     21  C   LIG    1       -3.204   2.861   2.740  0.00  0.00    +0.234 C 
ATOM     22  N   LIG    1       -2.551   2.033   3.578  0.00  0.00    -0.302 N 
ATOM     23  H   LIG    1       -1.736   1.593   3.288  0.00  0.00    +0.150 HD
ATOM     24  O   LIG    1       -4.223   3.411   3.103  0.00  0.00    -0.274 OA
BRANCH  22  25
ATOM     25  C   LIG    1       -3.070   1.797   4.928  0.00  0.00    +0.164 C 
BRANCH  25  26
ATOM     26  C   LIG    1       -1.940   1.384   5.836  0.00  0.00    +0.234 C 
ATOM     27  N   LIG    1       -2.123   1.362   7.171  0.00  0.00    -0.317 N 
ATOM     28  H   LIG    1       -2.961   1.669   7.551  0.00  0.00    +0.148 HD
ATOM     29  C   LIG    1       -1.055   0.875   8.048  0.00  0.00    +0.128 C 
ATOM     30  O   LIG    1       -0.867   1.072   5.365  0.00  0.00    -0.274 OA
ENDBRANCH  25  26
BRANCH  25  31
ATOM     31  C   LIG    1       -4.120   0.685   4.883  0.00  0.00    -0.011 C 
ATOM     32  C   LIG    1       -5.188   1.033   3.843  0.00  0.00    +0.013 C 
ATOM     33  C   LIG    1       -4.775   0.545   6.259  0.00  0.00    +0.013 C 
ATOM     34  C   LIG    1       -3.449  -0.636   4.502  0.00  0.00    +0.013 C 
ENDBRANCH  25  31
ENDBRANCH  22  25
ENDBRANCH   1  21
BRANCH   1  35
ATOM     35  C   LIG    1       -1.266   3.704   1.444  0.00  0.00    +0.034 C 
BRANCH  35  37
ATOM     36  C   LIG    1       -0.481   2.442  -0.565  0.00  0.00    +0.007 C 
ATOM     37  C   LIG    1       -0.674   3.834   0.039  0.00  0.00    -0.015 C 
ATOM     38  C   LIG    1        0.677   4.547   0.119  0.00  0.00    +0.007 C 
ENDBRANCH  35  37
ENDBRANCH   1  35
TORSDOF 12
