REMARK  Name = ZINC03875408
REMARK                            x       y       z     vdW  Elec       q    Type
REMARK                         _______ _______ _______ _____ _____    ______ ____
ROOT
ATOM      1  C   LIG    1       -3.682  -2.163  -2.681  0.00  0.00    +0.101 A 
ATOM      2  C   LIG    1       -3.090  -1.804  -3.907  0.00  0.00    +0.134 A 
ATOM      3  C   LIG    1       -3.704  -2.155  -5.094  0.00  0.00    +0.091 A 
ATOM      4  C   LIG    1       -4.901  -2.861  -5.081  0.00  0.00    +0.124 A 
ATOM      5  C   LIG    1       -5.493  -3.219  -3.877  0.00  0.00    +0.092 A 
ATOM      6  C   LIG    1       -4.892  -2.882  -2.679  0.00  0.00    +0.141 A 
ENDROOT
BRANCH   1   7
ATOM      7  C   LIG    1       -3.042  -1.797  -1.420  0.00  0.00    +0.170 C 
ATOM      8  O   LIG    1       -3.553  -2.112  -0.365  0.00  0.00    -0.292 OA
BRANCH   7   9
ATOM      9  C   LIG    1       -1.746  -1.027  -1.429  0.00  0.00    +0.084 C 
BRANCH   9  10
ATOM     10  C   LIG    1       -1.293  -0.774   0.011  0.00  0.00    +0.043 C 
BRANCH  10  16
ATOM     11  C   LIG    1       -0.017   1.378   0.010  0.00  0.00    +0.007 A 
ATOM     12  C   LIG    1        1.169   2.087   0.002  0.00  0.00    +0.045 A 
ATOM     13  C   LIG    1        2.380   1.409  -0.013  0.00  0.00    +0.117 A 
ATOM     14  C   LIG    1        2.396   0.022  -0.021  0.00  0.00    +0.045 A 
ATOM     15  C   LIG    1        1.207  -0.681  -0.013  0.00  0.00    +0.007 A 
ATOM     16  C   LIG    1        0.002  -0.004   0.002  0.00  0.00    -0.047 A 
BRANCH  13  17
ATOM     17  O   LIG    1        3.548   2.104  -0.021  0.00  0.00    -0.507 OA
ATOM     18  H   LIG    1        3.895   2.300   0.860  0.00  0.00    +0.292 HD
ENDBRANCH  13  17
ENDBRANCH  10  16
ENDBRANCH   9  10
ENDBRANCH   7   9
ENDBRANCH   1   7
BRANCH   2  19
ATOM     19  O   LIG    1       -1.922  -1.116  -3.923  0.00  0.00    -0.506 OA
ATOM     20  H   LIG    1       -1.135  -1.677  -3.933  0.00  0.00    +0.292 HD
ENDBRANCH   2  19
BRANCH   4  21
ATOM     21  O   LIG    1       -5.496  -3.201  -6.252  0.00  0.00    -0.507 OA
ATOM     22  H   LIG    1       -5.220  -4.061  -6.598  0.00  0.00    +0.292 HD
ENDBRANCH   4  21
BRANCH   6  23
ATOM     23  O   LIG    1       -5.469  -3.239  -1.504  0.00  0.00    -0.460 OA
BRANCH  23  24
ATOM     24  C   LIG    1       -6.696  -3.967  -1.579  0.00  0.00    +0.339 C 
ATOM     25  C   LIG    1       -7.128  -4.386  -0.171  0.00  0.00    +0.214 C 
ATOM     26  C   LIG    1       -8.473  -5.113  -0.253  0.00  0.00    +0.180 C 
ATOM     27  C   LIG    1       -9.498  -4.194  -0.926  0.00  0.00    +0.177 C 
ATOM     28  C   LIG    1       -8.974  -3.783  -2.305  0.00  0.00    +0.179 C 
ATOM     29  O   LIG    1       -7.706  -3.140  -2.159  0.00  0.00    -0.331 OA
BRANCH  25  30
ATOM     30  O   LIG    1       -6.145  -5.259   0.390  0.00  0.00    -0.383 OA
ATOM     31  H   LIG    1       -5.266  -4.863   0.468  0.00  0.00    +0.210 HD
ENDBRANCH  25  30
BRANCH  26  32
ATOM     32  O   LIG    1       -8.918  -5.445   1.064  0.00  0.00    -0.386 OA
ATOM     33  H   LIG    1       -8.313  -6.021   1.550  0.00  0.00    +0.210 HD
ENDBRANCH  26  32
BRANCH  27  34
ATOM     34  O   LIG    1      -10.738  -4.888  -1.072  0.00  0.00    -0.386 OA
ATOM     35  H   LIG    1      -11.125  -5.183  -0.236  0.00  0.00    +0.210 HD
ENDBRANCH  27  34
BRANCH  28  36
ATOM     36  C   LIG    1       -9.964  -2.817  -2.959  0.00  0.00    +0.190 C 
BRANCH  36  37
ATOM     37  O   LIG    1       -9.536  -2.525  -4.290  0.00  0.00    -0.392 OA
ATOM     38  H   LIG    1      -10.117  -1.917  -4.766  0.00  0.00    +0.210 HD
ENDBRANCH  36  37
ENDBRANCH  28  36
ENDBRANCH  23  24
ENDBRANCH   6  23
TORSDOF 14
