REMARK  Name = ZINC03954452
REMARK                            x       y       z     vdW  Elec       q    Type
REMARK                         _______ _______ _______ _____ _____    ______ ____
ROOT
ATOM      1  C   LIG    1        2.797  -1.919   4.683  0.00  0.00    +0.100 C 
ENDROOT
BRANCH   1   2
ATOM      2  C   LIG    1        2.330  -1.261   5.956  0.00  0.00    +0.091 A 
ATOM      3  C   LIG    1        3.080  -1.359   7.095  0.00  0.00    +0.138 A 
ATOM      4  C   LIG    1        2.579  -0.699   8.311  0.00  0.00    +0.059 A 
ATOM      5  C   LIG    1        3.294  -0.757   9.509  0.00  0.00    +0.015 A 
ATOM      6  C   LIG    1        2.798  -0.128  10.629  0.00  0.00    +0.001 A 
ATOM      7  C   LIG    1        1.595   0.560  10.571  0.00  0.00    +0.004 A 
ATOM      8  C   LIG    1        0.879   0.626   9.394  0.00  0.00    +0.047 A 
ATOM      9  C   LIG    1        1.362  -0.001   8.253  0.00  0.00    +0.143 A 
ATOM     10  O   LIG    1        0.674   0.054   7.092  0.00  0.00    -0.422 OA
ATOM     11  C   LIG    1        1.125  -0.541   5.976  0.00  0.00    +0.345 A 
ATOM     12  O   LIG    1        0.469  -0.457   4.953  0.00  0.00    -0.245 OA
BRANCH   3  13
ATOM     13  O   LIG    1        4.247  -2.042   7.104  0.00  0.00    -0.506 OA
ATOM     14  H   LIG    1        4.553  -2.457   6.322  0.00  0.00    +0.292 HD
ENDBRANCH   3  13
ENDBRANCH   1   2
BRANCH   1  15
ATOM     15  C   LIG    1        2.855  -3.412   4.881  0.00  0.00    +0.091 A 
ATOM     16  C   LIG    1        2.040  -4.015   5.799  0.00  0.00    +0.138 A 
ATOM     17  C   LIG    1        2.136  -5.475   5.954  0.00  0.00    +0.059 A 
ATOM     18  C   LIG    1        1.333  -6.156   6.871  0.00  0.00    +0.015 A 
ATOM     19  C   LIG    1        1.447  -7.523   6.991  0.00  0.00    +0.001 A 
ATOM     20  C   LIG    1        2.353  -8.222   6.207  0.00  0.00    +0.004 A 
ATOM     21  C   LIG    1        3.152  -7.561   5.298  0.00  0.00    +0.047 A 
ATOM     22  C   LIG    1        3.053  -6.183   5.160  0.00  0.00    +0.143 A 
ATOM     23  O   LIG    1        3.827  -5.520   4.274  0.00  0.00    -0.422 OA
ATOM     24  C   LIG    1        3.743  -4.189   4.122  0.00  0.00    +0.345 A 
ATOM     25  O   LIG    1        4.460  -3.640   3.304  0.00  0.00    -0.245 OA
BRANCH  16  26
ATOM     26  O   LIG    1        1.172  -3.291   6.541  0.00  0.00    -0.506 OA
ATOM     27  H   LIG    1        0.645  -3.819   7.157  0.00  0.00    +0.292 HD
ENDBRANCH  16  26
ENDBRANCH   1  15
BRANCH   1  31
ATOM     28  C   LIG    1        0.071  -1.008   1.523  0.00  0.00    -0.045 A 
ATOM     29  C   LIG    1        1.227  -0.265   1.675  0.00  0.00    +0.004 A 
ATOM     30  C   LIG    1        2.109  -0.559   2.697  0.00  0.00    +0.005 A 
ATOM     31  C   LIG    1        1.835  -1.597   3.569  0.00  0.00    -0.035 A 
ATOM     32  C   LIG    1        0.679  -2.340   3.418  0.00  0.00    +0.005 A 
ATOM     33  C   LIG    1       -0.205  -2.043   2.397  0.00  0.00    +0.004 A 
BRANCH  28  35
ATOM     34  C   LIG    1       -1.388   0.751   0.562  0.00  0.00    +0.012 C 
ATOM     35  C   LIG    1       -0.890  -0.687   0.408  0.00  0.00    +0.013 C 
ATOM     36  C   LIG    1       -0.179  -0.840  -0.938  0.00  0.00    +0.012 C 
ENDBRANCH  28  35
ENDBRANCH   1  31
TORSDOF 6
