REMARK  Name = ZINC04014108
REMARK                            x       y       z     vdW  Elec       q    Type
REMARK                         _______ _______ _______ _____ _____    ______ ____
ROOT
ATOM      1  N   LIG    1       -1.191   1.870   0.018  0.00  0.00    -0.281 N 
ATOM      2  H   LIG    1       -1.196   2.839  -0.023  0.00  0.00    +0.155 HD
ATOM      3  C   LIG    1       -0.027   1.208   0.175  0.00  0.00    +0.252 C 
ATOM      4  O   LIG    1       -0.029   0.002   0.323  0.00  0.00    -0.270 OA
ENDROOT
BRANCH   3   5
ATOM      5  C   LIG    1        1.249   1.948   0.162  0.00  0.00    +0.080 A 
ATOM      6  C   LIG    1        1.256   3.335  -0.008  0.00  0.00    +0.031 A 
ATOM      7  C   LIG    1        2.452   4.020  -0.020  0.00  0.00    +0.015 A 
ATOM      8  I   LIG    1        2.459   6.100  -0.275  0.00  0.00    -0.044 I 
ATOM      9  C   LIG    1        3.649   3.340   0.136  0.00  0.00    +0.032 A 
ATOM     10  C   LIG    1        3.657   1.969   0.305  0.00  0.00    +0.056 A 
ATOM     11  I   LIG    1        5.474   0.955   0.541  0.00  0.00    -0.040 I 
ATOM     12  C   LIG    1        2.462   1.264   0.325  0.00  0.00    +0.142 A 
BRANCH  12  13
ATOM     13  O   LIG    1        2.467  -0.081   0.497  0.00  0.00    -0.505 OA
ATOM     14  H   LIG    1        2.524  -0.583  -0.328  0.00  0.00    +0.292 HD
ENDBRANCH  12  13
ENDBRANCH   3   5
BRANCH   1  19
ATOM     15  C   LIG    1       -6.058  -1.013  -0.405  0.00  0.00    +0.044 C 
ATOM     16  C   LIG    1       -4.764  -0.247  -0.292  0.00  0.00    -0.050 A 
ATOM     17  C   LIG    1       -4.748   0.993   0.319  0.00  0.00    +0.005 A 
ATOM     18  C   LIG    1       -3.565   1.697   0.424  0.00  0.00    +0.023 A 
ATOM     19  C   LIG    1       -2.390   1.159  -0.086  0.00  0.00    +0.034 A 
ATOM     20  C   LIG    1       -2.411  -0.085  -0.704  0.00  0.00    +0.023 A 
ATOM     21  C   LIG    1       -3.597  -0.787  -0.800  0.00  0.00    +0.005 A 
ENDBRANCH   1  19
TORSDOF 3
