REMARK  Name = ZINC03961849
REMARK                            x       y       z     vdW  Elec       q    Type
REMARK                         _______ _______ _______ _____ _____    ______ ____
ROOT
ATOM      1  C   LIG    1       -4.561   5.564  -0.017  0.00  0.00    +0.115 A 
ATOM      2  C   LIG    1       -4.299   6.506  -0.987  0.00  0.00    +0.067 A 
ATOM      3  C   LIG    1       -2.991   6.822  -1.334  0.00  0.00    +0.126 A 
ATOM      4  F   LIG    1       -2.753   7.749  -2.287  0.00  0.00    -0.205 F 
ATOM      5  C   LIG    1       -1.935   6.194  -0.710  0.00  0.00    +0.048 A 
ATOM      6  C   LIG    1       -2.186   5.237   0.275  0.00  0.00    +0.008 A 
ATOM      7  C   LIG    1       -1.329   4.396   1.119  0.00  0.00    -0.018 A 
ATOM      8  C   LIG    1        0.122   4.085   1.411  0.00  0.00    +0.038 C 
ATOM      9  C   LIG    1        0.096   2.738   2.166  0.00  0.00    +0.015 C 
ATOM     10  C   LIG    1       -1.315   2.756   2.795  0.00  0.00    +0.047 C 
ATOM     11  C   LIG    1       -2.137   3.655   1.891  0.00  0.00    +0.027 A 
ATOM     12  N   LIG    1       -3.448   3.955   1.607  0.00  0.00    -0.337 N 
ATOM     13  C   LIG    1       -3.510   4.917   0.624  0.00  0.00    +0.075 A 
ENDROOT
BRANCH   1  15
ATOM     14  C   LIG    1       -6.441   3.442  -0.077  0.00  0.00    +0.200 C 
ATOM     15  S   LIG    1       -6.226   5.177   0.409  0.00  0.00    -0.004 S 
ATOM     16  O   LIG    1       -7.018   6.018  -0.418  0.00  0.00    -0.170 OA
ATOM     17  O   LIG    1       -6.276   5.298   1.824  0.00  0.00    -0.170 OA
ENDBRANCH   1  15
BRANCH  10  18
ATOM     18  C   LIG    1       -1.904   1.344   2.819  0.00  0.00    +0.130 C 
BRANCH  18  19
ATOM     19  C   LIG    1       -1.021   0.446   3.646  0.00  0.00    +0.305 C 
ATOM     20  O   LIG    1       -0.020   0.888   4.159  0.00  0.00    -0.251 OA
BRANCH  19  21
ATOM     21  O   LIG    1       -1.343  -0.847   3.808  0.00  0.00    -0.481 OA
ATOM     22  H   LIG    1       -2.119  -1.190   3.410  0.00  0.00    +0.295 HD
ENDBRANCH  19  21
ENDBRANCH  18  19
ENDBRANCH  10  18
BRANCH  12  23
ATOM     23  C   LIG    1       -4.610   3.341   2.255  0.00  0.00    +0.157 C 
BRANCH  23  24
ATOM     24  C   LIG    1       -4.685   3.798   3.689  0.00  0.00    -0.028 A 
ATOM     25  C   LIG    1       -3.660   3.494   4.566  0.00  0.00    +0.007 A 
ATOM     26  C   LIG    1       -3.726   3.918   5.880  0.00  0.00    +0.020 A 
ATOM     27  C   LIG    1       -4.823   4.637   6.320  0.00  0.00    +0.041 A 
ATOM     28 CL   LIG    1       -4.910   5.162   7.972  0.00  0.00    -0.084 Cl
ATOM     29  C   LIG    1       -5.851   4.936   5.444  0.00  0.00    +0.020 A 
ATOM     30  C   LIG    1       -5.782   4.516   4.128  0.00  0.00    +0.007 A 
ENDBRANCH  23  24
ENDBRANCH  12  23
TORSDOF 6
