REMARK  Name = ZINC03998043
REMARK                            x       y       z     vdW  Elec       q    Type
REMARK                         _______ _______ _______ _____ _____    ______ ____
ROOT
ATOM      1  C   LIG    1        3.783  -0.979  -0.038  0.00  0.00    +0.190 C 
ATOM      2  O   LIG    1        4.825  -0.347  -0.044  0.00  0.00    -0.287 OA
ENDROOT
BRANCH   1   6
ATOM      3  C   LIG    1        3.874  -5.227  -0.060  0.00  0.00    +0.124 A 
ATOM      4  C   LIG    1        2.654  -4.556  -0.045  0.00  0.00    +0.046 A 
ATOM      5  C   LIG    1        2.620  -3.181  -0.032  0.00  0.00    +0.019 A 
ATOM      6  C   LIG    1        3.815  -2.453  -0.046  0.00  0.00    +0.063 A 
ATOM      7  C   LIG    1        5.043  -3.131  -0.061  0.00  0.00    +0.134 A 
ATOM      8  C   LIG    1        5.064  -4.515  -0.068  0.00  0.00    +0.092 A 
BRANCH   3  10
ATOM      9  C   LIG    1        2.636  -7.255  -0.059  0.00  0.00    +0.277 C 
ATOM     10  O   LIG    1        3.898  -6.584  -0.068  0.00  0.00    -0.495 OA
ENDBRANCH   3  10
BRANCH   7  11
ATOM     11  O   LIG    1        6.206  -2.433  -0.068  0.00  0.00    -0.494 OA
ATOM     12  C   LIG    1        7.418  -3.190  -0.084  0.00  0.00    +0.277 C 
ENDBRANCH   7  11
ENDBRANCH   1   6
BRANCH   1  13
ATOM     13  C   LIG    1        2.502  -0.275  -0.022  0.00  0.00    +0.052 C 
ATOM     14  C   LIG    1        2.473   1.077  -0.015  0.00  0.00    +0.012 C 
BRANCH  14  15
ATOM     15  C   LIG    1        1.187   1.783   0.000  0.00  0.00    -0.017 A 
ATOM     16  C   LIG    1       -0.013   1.076   0.008  0.00  0.00    +0.008 A 
ATOM     17  C   LIG    1       -1.226   1.747   0.017  0.00  0.00    +0.001 A 
ATOM     18  C   LIG    1       -1.295   3.107   0.032  0.00  0.00    +0.008 A 
ATOM     19  C   LIG    1       -0.126   3.886   0.024  0.00  0.00    -0.017 A 
ATOM     20  C   LIG    1       -0.182   5.290   0.032  0.00  0.00    +0.008 A 
ATOM     21  C   LIG    1        0.973   6.011   0.025  0.00  0.00    +0.001 A 
ATOM     22  C   LIG    1        2.213   5.377   0.010  0.00  0.00    +0.001 A 
ATOM     23  C   LIG    1        2.304   4.017   0.002  0.00  0.00    +0.009 A 
ATOM     24  C   LIG    1        1.137   3.245   0.009  0.00  0.00    -0.011 A 
ENDBRANCH  14  15
ENDBRANCH   1  13
TORSDOF 5
