REMARK  Name = ZINC04097344
REMARK                            x       y       z     vdW  Elec       q    Type
REMARK                         _______ _______ _______ _____ _____    ______ ____
ROOT
ATOM      1  C   LIG    1       10.660  -2.231  -0.018  0.00  0.00    +0.030 A 
ATOM      2  C   LIG    1       11.517  -1.583  -0.898  0.00  0.00    +0.027 A 
ATOM      3  C   LIG    1       12.884  -1.714  -0.753  0.00  0.00    +0.047 A 
ATOM      4  C   LIG    1       13.401  -2.502   0.265  0.00  0.00    +0.121 A 
ATOM      5  C   LIG    1       12.546  -3.154   1.141  0.00  0.00    +0.047 A 
ATOM      6  C   LIG    1       11.179  -3.019   1.001  0.00  0.00    +0.027 A 
ENDROOT
BRANCH   1  10
ATOM      7  N   LIG    1        6.782  -2.343  -1.513  0.00  0.00    -0.327 N 
ATOM      8  C   LIG    1        7.110  -3.216  -0.378  0.00  0.00    +0.124 C 
ATOM      9  C   LIG    1        8.627  -3.405  -0.304  0.00  0.00    +0.124 C 
ATOM     10  N   LIG    1        9.275  -2.093  -0.161  0.00  0.00    -0.327 N 
ATOM     11  C   LIG    1        8.946  -1.220  -1.296  0.00  0.00    +0.124 C 
ATOM     12  C   LIG    1        7.429  -1.031  -1.369  0.00  0.00    +0.124 C 
BRANCH   7  16
ATOM     13  C   LIG    1        2.656  -1.933  -1.937  0.00  0.00    +0.053 A 
ATOM     14  C   LIG    1        3.454  -0.806  -1.792  0.00  0.00    +0.028 A 
ATOM     15  C   LIG    1        4.820  -0.942  -1.647  0.00  0.00    +0.025 A 
ATOM     16  C   LIG    1        5.397  -2.205  -1.655  0.00  0.00    +0.030 A 
ATOM     17  C   LIG    1        4.599  -3.332  -1.805  0.00  0.00    +0.025 A 
ATOM     18  C   LIG    1        3.232  -3.196  -1.945  0.00  0.00    +0.028 A 
BRANCH  13  21
ATOM     19  N   LIG    1       -0.721  -0.930  -2.247  0.00  0.00    -0.210 N 
ATOM     20  C   LIG    1        0.585  -0.632  -2.088  0.00  0.00    +0.351 A 
ATOM     21  N   LIG    1        1.266  -1.795  -2.080  0.00  0.00    -0.250 N 
ATOM     22  C   LIG    1        0.367  -2.824  -2.236  0.00  0.00    +0.230 A 
ATOM     23  O   LIG    1        1.062   0.483  -1.972  0.00  0.00    -0.244 OA
ATOM     24  N   LIG    1       -0.822  -2.325  -2.342  0.00  0.00    -0.157 NA
BRANCH  19  25
ATOM     25  C   LIG    1       -1.828   0.027  -2.314  0.00  0.00    +0.109 C 
ATOM     26  C   LIG    1       -2.544  -0.114  -3.659  0.00  0.00    +0.033 C 
BRANCH  25  28
ATOM     27  C   LIG    1       -2.133   0.009   0.166  0.00  0.00    +0.006 C 
ATOM     28  C   LIG    1       -2.814  -0.254  -1.179  0.00  0.00    +0.023 C 
ENDBRANCH  25  28
ENDBRANCH  19  25
ENDBRANCH  13  21
ENDBRANCH   7  16
ENDBRANCH   1  10
BRANCH   4  29
ATOM     29  O   LIG    1       14.747  -2.636   0.404  0.00  0.00    -0.489 OA
BRANCH  29  30
ATOM     30  C   LIG    1       15.569  -1.936  -0.534  0.00  0.00    +0.263 C 
BRANCH  30  31
ATOM     31  C   LIG    1       17.042  -2.205  -0.221  0.00  0.00    +0.185 C 
ATOM     32  C   LIG    1       17.959  -1.461  -1.224  0.00  0.00    +0.198 C 
ATOM     33  O   LIG    1       19.170  -1.295  -0.447  0.00  0.00    -0.341 OA
ATOM     34  C   LIG    1       18.716  -1.058   0.896  0.00  0.00    +0.219 C 
ATOM     35  O   LIG    1       17.407  -1.625   1.048  0.00  0.00    -0.334 OA
BRANCH  34  36
ATOM     36  C   LIG    1       19.664  -1.705   1.873  0.00  0.00    +0.031 A 
ATOM     37  C   LIG    1       19.178  -2.558   2.846  0.00  0.00    +0.012 A 
ATOM     38  C   LIG    1       20.047  -3.151   3.742  0.00  0.00    +0.020 A 
ATOM     39  C   LIG    1       21.404  -2.893   3.664  0.00  0.00    +0.042 A 
ATOM     40 CL   LIG    1       22.496  -3.639   4.789  0.00  0.00    -0.083 Cl
ATOM     41  C   LIG    1       21.891  -2.041   2.690  0.00  0.00    +0.040 A 
ATOM     42  C   LIG    1       21.021  -1.450   1.790  0.00  0.00    +0.051 A 
ATOM     43 CL   LIG    1       21.632  -0.385   0.563  0.00  0.00    -0.083 Cl
ENDBRANCH  34  36
BRANCH  34  44
ATOM     44  C   LIG    1       18.657   0.447   1.162  0.00  0.00    +0.215 C 
BRANCH  44  45
ATOM     45  N   LIG    1       18.255   0.683   2.550  0.00  0.00    -0.246 N 
ATOM     46  C   LIG    1       18.934   1.379   3.479  0.00  0.00    +0.219 A 
ATOM     47  N   LIG    1       18.241   1.358   4.589  0.00  0.00    -0.223 NA
ATOM     48  C   LIG    1       17.119   0.662   4.408  0.00  0.00    +0.244 A 
ATOM     49  N   LIG    1       17.080   0.233   3.174  0.00  0.00    -0.158 NA
ENDBRANCH  44  45
ENDBRANCH  34  44
ENDBRANCH  30  31
ENDBRANCH  29  30
ENDBRANCH   4  29
TORSDOF 11
