REMARK  Name = ZINC03951740
REMARK                            x       y       z     vdW  Elec       q    Type
REMARK                         _______ _______ _______ _____ _____    ______ ____
ROOT
ATOM      1  C   LIG    1       -3.001   2.009   7.028  0.00  0.00    +0.137 C 
ENDROOT
BRANCH   1   2
ATOM      2  O   LIG    1       -4.236   2.406   6.428  0.00  0.00    -0.390 OA
ATOM      3  H   LIG    1       -4.453   1.924   5.618  0.00  0.00    +0.210 HD
ENDBRANCH   1   2
BRANCH   1   4
ATOM      4  C   LIG    1       -1.847   2.316   6.070  0.00  0.00    +0.106 C 
BRANCH   4   6
ATOM      5  C   LIG    1       -0.982   1.274   4.045  0.00  0.00    +0.251 C 
ATOM      6  N   LIG    1       -2.042   1.580   4.819  0.00  0.00    -0.307 N 
ATOM      7  H   LIG    1       -2.934   1.312   4.547  0.00  0.00    +0.149 HD
ATOM      8  O   LIG    1        0.134   1.608   4.385  0.00  0.00    -0.272 OA
BRANCH   5   9
ATOM      9  C   LIG    1       -1.182   0.516   2.758  0.00  0.00    +0.324 C 
BRANCH   9  10
ATOM     10  O   LIG    1        0.082   0.315   2.123  0.00  0.00    -0.482 OA
BRANCH  10  18
ATOM     11  C   LIG    1       -0.196   1.836  -0.241  0.00  0.00    +0.047 C 
ATOM     12  C   LIG    1       -0.054   0.336  -0.253  0.00  0.00    -0.009 A 
ATOM     13  C   LIG    1       -0.051  -0.349  -1.452  0.00  0.00    +0.007 A 
ATOM     14  C   LIG    1        0.078  -1.726  -1.463  0.00  0.00    +0.001 A 
ATOM     15  C   LIG    1        0.205  -2.420  -0.274  0.00  0.00    +0.007 A 
ATOM     16  C   LIG    1        0.203  -1.740   0.928  0.00  0.00    -0.009 A 
ATOM     17  C   LIG    1        0.342  -2.497   2.224  0.00  0.00    +0.047 C 
ATOM     18  C   LIG    1        0.079  -0.358   0.942  0.00  0.00    +0.127 A 
ENDBRANCH  10  18
ENDBRANCH   9  10
ENDBRANCH   5   9
ENDBRANCH   4   6
BRANCH   4  19
ATOM     19  C   LIG    1       -1.813   3.818   5.778  0.00  0.00    +0.060 C 
BRANCH  19  20
ATOM     20  C   LIG    1       -0.606   4.138   4.935  0.00  0.00    -0.046 A 
ATOM     21  C   LIG    1        0.595   4.457   5.541  0.00  0.00    +0.004 A 
ATOM     22  C   LIG    1        1.703   4.751   4.768  0.00  0.00    +0.000 A 
ATOM     23  C   LIG    1        1.610   4.725   3.389  0.00  0.00    +0.000 A 
ATOM     24  C   LIG    1        0.409   4.405   2.783  0.00  0.00    +0.000 A 
ATOM     25  C   LIG    1       -0.697   4.107   3.556  0.00  0.00    +0.004 A 
ENDBRANCH  19  20
ENDBRANCH   4  19
ENDBRANCH   1   4
BRANCH   1  26
ATOM     26  C   LIG    1       -3.035   0.507   7.320  0.00  0.00    +0.055 C 
BRANCH  26  27
ATOM     27  C   LIG    1       -4.060   0.225   8.420  0.00  0.00    +0.080 C 
BRANCH  27  28
ATOM     28  N   LIG    1       -5.409   0.478   7.907  0.00  0.00    -0.311 N 
ATOM     29  H   LIG    1       -5.625   0.265   6.986  0.00  0.00    +0.149 HD
ATOM     30  C   LIG    1       -6.349   1.005   8.716  0.00  0.00    +0.234 C 
ATOM     31  O   LIG    1       -6.058   1.348   9.842  0.00  0.00    -0.274 OA
BRANCH  30  32
ATOM     32  C   LIG    1       -7.763   1.168   8.220  0.00  0.00    +0.166 C 
BRANCH  32  33
ATOM     33  N   LIG    1       -8.630   1.556   9.336  0.00  0.00    -0.274 N 
ATOM     34  C   LIG    1       -9.711   0.660   9.750  0.00  0.00    +0.111 C 
ATOM     35  C   LIG    1       -9.979   0.852  11.246  0.00  0.00    +0.038 C 
ATOM     36  C   LIG    1      -10.274   2.334  11.502  0.00  0.00    +0.107 C 
ATOM     37  N   LIG    1       -9.162   3.140  10.993  0.00  0.00    -0.299 N 
ATOM     38  H   LIG    1       -8.961   3.990  11.413  0.00  0.00    +0.150 HD
ATOM     39  C   LIG    1       -8.413   2.723   9.962  0.00  0.00    +0.303 C 
ATOM     40  O   LIG    1       -7.505   3.433   9.575  0.00  0.00    -0.253 OA
ENDBRANCH  32  33
BRANCH  32  41
ATOM     41  C   LIG    1       -7.804   2.253   7.142  0.00  0.00    +0.012 C 
ATOM     42  C   LIG    1       -9.258   2.553   6.774  0.00  0.00    +0.009 C 
ATOM     43  C   LIG    1       -7.053   1.767   5.901  0.00  0.00    +0.009 C 
ENDBRANCH  32  41
ENDBRANCH  30  32
ENDBRANCH  27  28
BRANCH  27  44
ATOM     44  C   LIG    1       -3.946  -1.236   8.860  0.00  0.00    +0.057 C 
BRANCH  44  45
ATOM     45  C   LIG    1       -4.869  -1.482  10.026  0.00  0.00    -0.046 A 
ATOM     46  C   LIG    1       -4.415  -1.293  11.318  0.00  0.00    +0.004 A 
ATOM     47  C   LIG    1       -5.261  -1.519  12.388  0.00  0.00    +0.000 A 
ATOM     48  C   LIG    1       -6.561  -1.934  12.165  0.00  0.00    +0.000 A 
ATOM     49  C   LIG    1       -7.015  -2.122  10.873  0.00  0.00    +0.000 A 
ATOM     50  C   LIG    1       -6.170  -1.891   9.803  0.00  0.00    +0.004 A 
ENDBRANCH  44  45
ENDBRANCH  27  44
ENDBRANCH  26  27
ENDBRANCH   1  26
TORSDOF 16
