REMARK  Name = ZINC03995320
REMARK                            x       y       z     vdW  Elec       q    Type
REMARK                         _______ _______ _______ _____ _____    ______ ____
ROOT
ATOM      1  N   LIG    1        3.620  -0.649  -0.036  0.00  0.00    -0.300 N 
ATOM      2  C   LIG    1        4.964  -0.057  -0.040  0.00  0.00    +0.217 C 
ATOM      3  N   LIG    1        5.939  -1.147  -0.057  0.00  0.00    -0.279 N 
ATOM      4  C   LIG    1        5.310  -2.334  -0.064  0.00  0.00    +0.241 C 
ATOM      5  O   LIG    1        5.853  -3.419  -0.078  0.00  0.00    -0.273 OA
ATOM      6  C   LIG    1        3.822  -2.103  -0.046  0.00  0.00    +0.109 C 
ATOM      7  C   LIG    1        3.182  -2.711  -1.294  0.00  0.00    +0.017 C 
ATOM      8  C   LIG    1        3.348  -4.233  -1.255  0.00  0.00    -0.076 C 
ATOM      9  N   LIG    1        2.702  -4.767  -0.050  0.00  0.00    +0.380 N 
ATOM     10  H   LIG    1        1.732  -4.491  -0.040  0.00  0.00    -0.082 HD
ATOM     11  C   LIG    1        3.370  -4.246   1.148  0.00  0.00    -0.076 C 
ATOM     12  C   LIG    1        3.205  -2.725   1.207  0.00  0.00    +0.017 C 
ENDROOT
BRANCH   1  16
ATOM     13  C   LIG    1       -0.017   1.379   0.010  0.00  0.00    +0.000 A 
ATOM     14  C   LIG    1        1.169   2.089   0.002  0.00  0.00    +0.002 A 
ATOM     15  C   LIG    1        2.377   1.420  -0.013  0.00  0.00    +0.023 A 
ATOM     16  C   LIG    1        2.400   0.031  -0.021  0.00  0.00    +0.032 A 
ATOM     17  C   LIG    1        1.206  -0.680  -0.013  0.00  0.00    +0.023 A 
ATOM     18  C   LIG    1        0.002  -0.004   0.002  0.00  0.00    +0.002 A 
ENDBRANCH   1  16
BRANCH   3  19
ATOM     19  C   LIG    1        7.393  -0.970  -0.066  0.00  0.00    +0.144 C 
BRANCH  19  20
ATOM     20  C   LIG    1        7.901  -0.922   1.352  0.00  0.00    -0.027 A 
ATOM     21  C   LIG    1        7.984   0.287   2.017  0.00  0.00    +0.005 A 
ATOM     22  C   LIG    1        8.450   0.332   3.317  0.00  0.00    +0.003 A 
ATOM     23  C   LIG    1        8.835  -0.832   3.955  0.00  0.00    +0.038 A 
ATOM     24  C   LIG    1        8.752  -2.044   3.291  0.00  0.00    +0.124 A 
ATOM     25  F   LIG    1        9.128  -3.183   3.913  0.00  0.00    -0.205 F 
ATOM     26  C   LIG    1        8.279  -2.088   1.990  0.00  0.00    +0.043 A 
ENDBRANCH  19  20
ENDBRANCH   3  19
BRANCH   9  27
ATOM     27  C   LIG    1        2.791  -6.234  -0.059  0.00  0.00    -0.078 C 
BRANCH  27  28
ATOM     28  C   LIG    1        2.011  -6.799   1.130  0.00  0.00    -0.011 C 
BRANCH  28  29
ATOM     29  C   LIG    1        2.103  -8.326   1.121  0.00  0.00    +0.078 C 
BRANCH  29  30
ATOM     30  C   LIG    1        1.335  -8.882   2.292  0.00  0.00    +0.163 C 
ATOM     31  O   LIG    1        0.770  -8.132   3.058  0.00  0.00    -0.292 OA
BRANCH  30  32
ATOM     32  C   LIG    1        1.271 -10.335   2.505  0.00  0.00    +0.018 A 
ATOM     33  C   LIG    1        1.927 -11.204   1.626  0.00  0.00    +0.014 A 
ATOM     34  C   LIG    1        1.863 -12.565   1.831  0.00  0.00    +0.039 A 
ATOM     35  C   LIG    1        1.151 -13.074   2.907  0.00  0.00    +0.123 A 
ATOM     36  F   LIG    1        1.091 -14.410   3.103  0.00  0.00    -0.205 F 
ATOM     37  C   LIG    1        0.498 -12.219   3.782  0.00  0.00    +0.039 A 
ATOM     38  C   LIG    1        0.559 -10.856   3.592  0.00  0.00    +0.014 A 
ENDBRANCH  30  32
ENDBRANCH  29  30
ENDBRANCH  28  29
ENDBRANCH  27  28
ENDBRANCH   9  27
TORSDOF 8
