REMARK  Name = ZINC03930629
REMARK                            x       y       z     vdW  Elec       q    Type
REMARK                         _______ _______ _______ _____ _____    ______ ____
ROOT
ATOM      1  O   LIG    1        3.587  -0.693  -0.169  0.00  0.00    -0.491 OA
ENDROOT
BRANCH   1   3
ATOM      2  C   LIG    1        1.211  -0.713  -0.081  0.00  0.00    +0.036 A 
ATOM      3  C   LIG    1        2.411  -0.018  -0.092  0.00  0.00    +0.127 A 
ATOM      4  C   LIG    1        2.409   1.368  -0.024  0.00  0.00    +0.046 A 
ATOM      5  C   LIG    1        1.212   2.055   0.054  0.00  0.00    +0.007 A 
ATOM      6  C   LIG    1        0.016   1.365   0.066  0.00  0.00    +0.047 A 
ATOM      7  C   LIG    1        0.012  -0.021  -0.002  0.00  0.00    +0.135 A 
BRANCH   2   8
ATOM      8  C   LIG    1        1.210  -2.219  -0.154  0.00  0.00    +0.042 C 
BRANCH   8  10
ATOM      9  C   LIG    1        1.156  -4.185  -1.694  0.00  0.00    +0.004 C 
ATOM     10  C   LIG    1        1.157  -2.657  -1.619  0.00  0.00    +0.001 C 
ENDBRANCH   8  10
ENDBRANCH   2   8
BRANCH   7  11
ATOM     11  O   LIG    1       -1.165  -0.700   0.010  0.00  0.00    -0.455 OA
BRANCH  11  12
ATOM     12  C   LIG    1       -1.594  -1.211   1.191  0.00  0.00    +0.142 A 
ATOM     13  C   LIG    1       -0.905  -0.932   2.362  0.00  0.00    +0.047 A 
ATOM     14  C   LIG    1       -1.345  -1.449   3.564  0.00  0.00    +0.004 A 
ATOM     15  C   LIG    1       -2.470  -2.257   3.610  0.00  0.00    +0.001 A 
ATOM     16  C   LIG    1       -3.163  -2.550   2.456  0.00  0.00    +0.018 A 
ATOM     17  C   LIG    1       -2.732  -2.029   1.233  0.00  0.00    +0.101 A 
BRANCH  17  18
ATOM     18  C   LIG    1       -3.469  -2.338  -0.006  0.00  0.00    +0.340 C 
ATOM     19  O   LIG    1       -3.091  -1.883  -1.067  0.00  0.00    -0.245 OA
BRANCH  18  20
ATOM     20  O   LIG    1       -4.562  -3.124   0.039  0.00  0.00    -0.477 OA
ATOM     21  H   LIG    1       -4.854  -3.475   0.857  0.00  0.00    +0.295 HD
ENDBRANCH  18  20
ENDBRANCH  17  18
ENDBRANCH  11  12
ENDBRANCH   7  11
ENDBRANCH   1   3
BRANCH   1  22
ATOM     22  C   LIG    1        4.784   0.088  -0.175  0.00  0.00    +0.232 C 
BRANCH  22  23
ATOM     23  C   LIG    1        5.998  -0.840  -0.266  0.00  0.00    +0.082 C 
BRANCH  23  24
ATOM     24  C   LIG    1        7.279  -0.004  -0.273  0.00  0.00    +0.232 C 
BRANCH  24  25
ATOM     25  O   LIG    1        8.412  -0.870  -0.358  0.00  0.00    -0.491 OA
BRANCH  25  26
ATOM     26  C   LIG    1        9.638  -0.283  -0.375  0.00  0.00    +0.127 A 
ATOM     27  C   LIG    1        9.743   1.099  -0.318  0.00  0.00    +0.092 A 
ATOM     28  C   LIG    1       10.990   1.699  -0.331  0.00  0.00    +0.128 A 
ATOM     29  C   LIG    1       12.142   0.909  -0.412  0.00  0.00    +0.024 A 
ATOM     30  C   LIG    1       12.027  -0.477  -0.474  0.00  0.00    +0.019 A 
ATOM     31  C   LIG    1       10.780  -1.068  -0.456  0.00  0.00    -0.005 A 
BRANCH  29  32
ATOM     32  C   LIG    1       13.481   1.546  -0.431  0.00  0.00    -0.014 A 
ATOM     33  C   LIG    1       14.476   1.107   0.440  0.00  0.00    +0.011 A 
ATOM     34  C   LIG    1       15.722   1.700   0.415  0.00  0.00    +0.039 A 
ATOM     35  C   LIG    1       15.981   2.736  -0.467  0.00  0.00    +0.123 A 
ATOM     36  F   LIG    1       17.201   3.317  -0.483  0.00  0.00    -0.205 F 
ATOM     37  C   LIG    1       14.993   3.180  -1.331  0.00  0.00    +0.039 A 
ATOM     38  C   LIG    1       13.746   2.590  -1.317  0.00  0.00    +0.011 A 
ENDBRANCH  29  32
BRANCH  28  39
ATOM     39  O   LIG    1       11.096   3.052  -0.270  0.00  0.00    -0.506 OA
ATOM     40  H   LIG    1       11.093   3.486  -1.134  0.00  0.00    +0.292 HD
ENDBRANCH  28  39
BRANCH  31  41
ATOM     41  C   LIG    1       10.658  -2.568  -0.523  0.00  0.00    +0.035 C 
ATOM     42  C   LIG    1       10.437  -2.998  -1.974  0.00  0.00    +0.009 C 
ENDBRANCH  31  41
ENDBRANCH  25  26
ENDBRANCH  24  25
ENDBRANCH  23  24
ENDBRANCH  22  23
ENDBRANCH   1  22
TORSDOF 15
