REMARK  Name = ZINC04062324
REMARK                            x       y       z     vdW  Elec       q    Type
REMARK                         _______ _______ _______ _____ _____    ______ ____
ROOT
ATOM      1  C   LIG    1       -0.639   7.607  -2.972  0.00  0.00    +0.249 C 
ATOM      2  O   LIG    1       -0.684   6.819  -3.897  0.00  0.00    -0.282 OA
ENDROOT
BRANCH   1   8
ATOM      3  C   LIG    1       -1.160  10.132  -6.883  0.00  0.00    +0.001 A 
ATOM      4  C   LIG    1       -1.214  11.493  -6.624  0.00  0.00    +0.002 A 
ATOM      5  C   LIG    1       -1.117  11.967  -5.333  0.00  0.00    +0.026 A 
ATOM      6  C   LIG    1       -0.964  11.076  -4.276  0.00  0.00    +0.047 A 
ATOM      7  C   LIG    1       -0.910   9.699  -4.541  0.00  0.00    +0.011 A 
ATOM      8  C   LIG    1       -0.746   9.042  -3.229  0.00  0.00    +0.052 A 
ATOM      9  C   LIG    1       -0.720  10.058  -2.292  0.00  0.00    +0.095 A 
ATOM     10  N   LIG    1       -0.842  11.246  -2.911  0.00  0.00    -0.360 N 
ATOM     11  H   LIG    1       -0.848  12.105  -2.460  0.00  0.00    +0.165 HD
ATOM     12  C   LIG    1       -1.010   9.233  -5.848  0.00  0.00    +0.011 A 
ENDBRANCH   1   8
BRANCH   1  13
ATOM     13  C   LIG    1       -0.476   7.109  -1.575  0.00  0.00    +0.285 C 
ATOM     14  N   LIG    1       -0.377   5.786  -1.339  0.00  0.00    -0.303 N 
ATOM     15  H   LIG    1       -0.413   5.157  -2.076  0.00  0.00    +0.149 HD
ATOM     16  O   LIG    1       -0.431   7.896  -0.652  0.00  0.00    -0.267 OA
BRANCH  14  17
ATOM     17  C   LIG    1       -0.217   5.298   0.033  0.00  0.00    +0.160 C 
BRANCH  17  18
ATOM     18  C   LIG    1       -0.132   3.793   0.024  0.00  0.00    +0.058 A 
ATOM     19  C   LIG    1        1.107   3.179   0.009  0.00  0.00    +0.025 A 
ATOM     20  C   LIG    1        1.174   1.794   0.001  0.00  0.00    +0.003 A 
ATOM     21  C   LIG    1       -0.013   1.076   0.008  0.00  0.00    +0.020 A 
ATOM     22  C   LIG    1       -1.214   1.759   0.017  0.00  0.00    +0.111 A 
ATOM     23  N   LIG    1       -1.239   3.078   0.030  0.00  0.00    -0.258 NA
ENDBRANCH  17  18
ENDBRANCH  14  17
ENDBRANCH   1  13
TORSDOF 4
