REMARK  Name = ZINC03874615
REMARK                            x       y       z     vdW  Elec       q    Type
REMARK                         _______ _______ _______ _____ _____    ______ ____
ROOT
ATOM      1  C   LIG    1       -0.017   1.421   0.010  0.00  0.00    +0.194 C 
ATOM      2  C   LIG    1        1.385   1.990  -0.001  0.00  0.00    +0.048 C 
ATOM      3  C   LIG    1        2.343   1.275   0.614  0.00  0.00    +0.138 C 
ATOM      4  C   LIG    1        2.024  -0.035   1.222  0.00  0.00    +0.057 C 
ATOM      5  C   LIG    1        0.637  -0.620   1.135  0.00  0.00    +0.283 C 
ATOM      6  C   LIG    1        3.152  -0.488   1.777  0.00  0.00    +0.104 C 
ATOM      7  C   LIG    1        4.165   0.475   1.532  0.00  0.00    +0.338 C 
ATOM      8  O   LIG    1        5.317   0.397   1.916  0.00  0.00    -0.245 OA
ATOM      9  O   LIG    1        3.653   1.493   0.807  0.00  0.00    -0.423 OA
ATOM     10  O   LIG    1        0.002  -0.004   0.002  0.00  0.00    -0.343 OA
ENDROOT
BRANCH   5  11
ATOM     11  O   LIG    1        0.714  -2.034   0.946  0.00  0.00    -0.363 OA
ATOM     12  H   LIG    1       -0.147  -2.470   0.882  0.00  0.00    +0.213 HD
ENDBRANCH   5  11
TORSDOF 1
