REMARK  Name = ZINC03876174
REMARK                            x       y       z     vdW  Elec       q    Type
REMARK                         _______ _______ _______ _____ _____    ______ ____
ROOT
ATOM      1  C   LIG    1        2.128   0.028  -1.339  0.00  0.00    +0.087 A 
ATOM      2  C   LIG    1        2.794   0.084  -2.581  0.00  0.00    +0.200 A 
ATOM      3  C   LIG    1        4.174   0.610  -2.588  0.00  0.00    +0.064 A 
ATOM      4  C   LIG    1        4.909   0.703  -3.768  0.00  0.00    +0.015 A 
ATOM      5  C   LIG    1        6.194   1.200  -3.731  0.00  0.00    +0.001 A 
ATOM      6  C   LIG    1        6.753   1.606  -2.528  0.00  0.00    +0.004 A 
ATOM      7  C   LIG    1        6.035   1.519  -1.354  0.00  0.00    +0.047 A 
ATOM      8  C   LIG    1        4.738   1.021  -1.370  0.00  0.00    +0.143 A 
ATOM      9  O   LIG    1        4.018   0.927  -0.233  0.00  0.00    -0.425 OA
ATOM     10  O   LIG    1        2.252  -0.287  -3.609  0.00  0.00    -0.287 OA
ATOM     11  C   LIG    1        2.764   0.457  -0.217  0.00  0.00    +0.292 A 
ENDROOT
BRANCH  11  12
ATOM     12  O   LIG    1        2.108   0.401   0.961  0.00  0.00    -0.480 OA
ATOM     13  H   LIG    1        1.230   0.075   0.994  0.00  0.00    +0.295 HD
ENDBRANCH  11  12
BRANCH   1  14
ATOM     14  C   LIG    1        0.718  -0.497  -1.257  0.00  0.00    +0.059 C 
BRANCH  14  15
ATOM     15  C   LIG    1        0.746  -1.949  -0.854  0.00  0.00    -0.040 A 
ATOM     16  C   LIG    1        1.161  -2.307   0.415  0.00  0.00    +0.004 A 
ATOM     17  C   LIG    1        1.186  -3.639   0.785  0.00  0.00    +0.000 A 
ATOM     18  C   LIG    1        0.797  -4.613  -0.115  0.00  0.00    +0.000 A 
ATOM     19  C   LIG    1        0.381  -4.256  -1.384  0.00  0.00    +0.000 A 
ATOM     20  C   LIG    1        0.352  -2.923  -1.752  0.00  0.00    +0.004 A 
ENDBRANCH  14  15
BRANCH  14  22
ATOM     21  C   LIG    1        0.117   1.801  -0.483  0.00  0.00    +0.005 C 
ATOM     22  C   LIG    1       -0.066   0.305  -0.217  0.00  0.00    +0.010 C 
ENDBRANCH  14  22
ENDBRANCH   1  14
TORSDOF 4
