REMARK  Name = ZINC04014085
REMARK                            x       y       z     vdW  Elec       q    Type
REMARK                         _______ _______ _______ _____ _____    ______ ____
ROOT
ATOM      1  C   LIG    1        0.002  -0.004   0.002  0.00  0.00    +0.006 A 
ATOM      2  C   LIG    1       -0.017   1.378   0.010  0.00  0.00    +0.033 A 
ATOM      3  C   LIG    1        1.171   2.086   0.002  0.00  0.00    +0.122 A 
ATOM      4  C   LIG    1        2.377   1.411  -0.015  0.00  0.00    +0.033 A 
ATOM      5  C   LIG    1        2.396   0.029  -0.021  0.00  0.00    +0.006 A 
ATOM      6  C   LIG    1        1.208  -0.679  -0.013  0.00  0.00    -0.037 A 
ENDROOT
BRANCH   3   7
ATOM      7  N   LIG    1        1.151   3.566   0.010  0.00  0.00    +0.006 N 
ATOM      8  O   LIG    1        0.088   4.160   0.023  0.00  0.00    -0.130 OA
BRANCH   7   9
ATOM      9  O   LIG    1        2.197   4.189   0.003  0.00  0.00    -0.396 OA
ATOM     10  H   LIG    1        3.015   3.732  -0.007  0.00  0.00    +0.329 HD
ENDBRANCH   7   9
ENDBRANCH   3   7
BRANCH   6  11
ATOM     11  C   LIG    1        1.229  -2.186  -0.021  0.00  0.00    +0.112 C 
BRANCH  11  12
ATOM     12  S   LIG    1        1.220  -2.781  -1.730  0.00  0.00    -0.088 S 
BRANCH  12  13
ATOM     13  C   LIG    1        1.246  -4.520  -1.448  0.00  0.00    +0.123 C 
ATOM     14  N   LIG    1        1.265  -4.983  -0.229  0.00  0.00    -0.382 N 
ATOM     15  H   LIG    1        1.264  -4.288   0.623  0.00  0.00    +0.158 HD
ATOM     16  H   LIG    1        1.281  -6.069  -0.053  0.00  0.00    +0.158 HD
BRANCH  13  17
ATOM     17  N   LIG    1        1.248  -5.389  -2.514  0.00  0.00    -0.340 N 
ATOM     18  H   LIG    1        1.232  -4.999  -3.542  0.00  0.00    +0.144 HD
ATOM     19  H   LIG    1        1.264  -6.475  -2.339  0.00  0.00    +0.144 HD
ENDBRANCH  13  17
ENDBRANCH  12  13
ENDBRANCH  11  12
ENDBRANCH   6  11
TORSDOF 6
