REMARK  Name = ZINC03915524
REMARK                            x       y       z     vdW  Elec       q    Type
REMARK                         _______ _______ _______ _____ _____    ______ ____
ROOT
ATOM      1  C   LIG    1       -2.046   2.433   3.494  0.00  0.00    +0.190 C 
ATOM      2  O   LIG    1       -0.887   2.780   3.351  0.00  0.00    -0.287 OA
ENDROOT
BRANCH   1   7
ATOM      3  C   LIG    1       -4.618   0.379   1.682  0.00  0.00    +0.121 A 
ATOM      4  C   LIG    1       -3.901  -0.029   0.564  0.00  0.00    +0.049 A 
ATOM      5  C   LIG    1       -2.588   0.365   0.396  0.00  0.00    +0.050 A 
ATOM      6  C   LIG    1       -1.973   1.163   1.348  0.00  0.00    +0.131 A 
ATOM      7  C   LIG    1       -2.691   1.578   2.478  0.00  0.00    +0.067 A 
ATOM      8  C   LIG    1       -4.020   1.179   2.638  0.00  0.00    +0.061 A 
BRANCH   3  10
ATOM      9  C   LIG    1       -6.468  -0.837   0.812  0.00  0.00    +0.277 C 
ATOM     10  O   LIG    1       -5.912  -0.010   1.837  0.00  0.00    -0.495 OA
ENDBRANCH   3  10
BRANCH   6  11
ATOM     11  O   LIG    1       -0.682   1.547   1.184  0.00  0.00    -0.494 OA
ATOM     12  C   LIG    1       -0.013   1.086   0.008  0.00  0.00    +0.277 C 
ENDBRANCH   6  11
ENDBRANCH   1   7
BRANCH   1  13
ATOM     13  C   LIG    1       -2.798   2.864   4.671  0.00  0.00    +0.052 C 
ATOM     14  C   LIG    1       -2.207   3.647   5.601  0.00  0.00    +0.012 C 
BRANCH  14  15
ATOM     15  C   LIG    1       -2.963   4.080   6.784  0.00  0.00    -0.021 A 
ATOM     16  C   LIG    1       -4.295   3.683   6.950  0.00  0.00    +0.012 A 
ATOM     17  C   LIG    1       -5.001   4.090   8.060  0.00  0.00    +0.050 A 
ATOM     18  C   LIG    1       -4.395   4.894   9.017  0.00  0.00    +0.158 A 
ATOM     19  C   LIG    1       -3.068   5.294   8.859  0.00  0.00    +0.159 A 
ATOM     20  C   LIG    1       -2.351   4.886   7.752  0.00  0.00    +0.057 A 
BRANCH  18  21
ATOM     21  O   LIG    1       -5.097   5.293  10.109  0.00  0.00    -0.503 OA
ATOM     22  H   LIG    1       -5.031   4.688  10.861  0.00  0.00    +0.292 HD
ENDBRANCH  18  21
BRANCH  19  23
ATOM     23  O   LIG    1       -2.479   6.081   9.798  0.00  0.00    -0.503 OA
ATOM     24  H   LIG    1       -2.040   5.588  10.505  0.00  0.00    +0.292 HD
ENDBRANCH  19  23
ENDBRANCH  14  15
ENDBRANCH   1  13
TORSDOF 7
