REMARK  Name = ZINC03873927
REMARK                            x       y       z     vdW  Elec       q    Type
REMARK                         _______ _______ _______ _____ _____    ______ ____
ROOT
ATOM      1  S   LIG    1        3.890   2.319  -0.024  0.00  0.00    +0.155 S 
ATOM      2  O   LIG    1        3.595   3.599  -0.566  0.00  0.00    -0.132 OA
ATOM      3  O   LIG    1        4.872   1.461  -0.589  0.00  0.00    -0.132 OA
ENDROOT
BRANCH   1   6
ATOM      4  C   LIG    1       -0.017   1.385   0.010  0.00  0.00    +0.025 A 
ATOM      5  C   LIG    1        1.171   2.090   0.002  0.00  0.00    +0.032 A 
ATOM      6  C   LIG    1        2.377   1.415  -0.013  0.00  0.00    +0.127 A 
ATOM      7  C   LIG    1        2.400   0.032  -0.021  0.00  0.00    +0.032 A 
ATOM      8  C   LIG    1        1.216  -0.679  -0.014  0.00  0.00    +0.025 A 
ATOM      9  C   LIG    1        0.002  -0.004   0.002  0.00  0.00    +0.025 A 
BRANCH   9  10
ATOM     10  N   LIG    1       -1.197  -0.720   0.010  0.00  0.00    -0.358 N 
ATOM     11  H   LIG    1       -1.183  -1.690   0.005  0.00  0.00    +0.142 HD
ATOM     12  H   LIG    1       -2.044  -0.248   0.021  0.00  0.00    +0.142 HD
ENDBRANCH   9  10
ENDBRANCH   1   6
BRANCH   1  13
ATOM     13  N   LIG    1        4.326   2.562   1.555  0.00  0.00    +0.061 NA
ATOM     14  C   LIG    1        5.420   3.212   1.836  0.00  0.00    +0.403 C 
BRANCH  14  15
ATOM     15  N   LIG    1        5.783   3.414   3.146  0.00  0.00    -0.288 N 
ATOM     16  H   LIG    1        6.597   3.898   3.356  0.00  0.00    +0.255 HD
ATOM     17  H   LIG    1        5.224   3.072   3.862  0.00  0.00    +0.255 HD
ENDBRANCH  14  15
BRANCH  14  18
ATOM     18  N   LIG    1        6.212   3.696   0.821  0.00  0.00    -0.288 N 
ATOM     19  H   LIG    1        7.026   4.180   1.030  0.00  0.00    +0.255 HD
ATOM     20  H   LIG    1        5.957   3.554  -0.103  0.00  0.00    +0.255 HD
ENDBRANCH  14  18
ENDBRANCH   1  13
TORSDOF 5
