REMARK  Name = ZINC03995669
REMARK                            x       y       z     vdW  Elec       q    Type
REMARK                         _______ _______ _______ _____ _____    ______ ____
ROOT
ATOM      1  C   LIG    1       -2.792  -2.511   0.015  0.00  0.00    -0.064 C 
ATOM      2  C   LIG    1       -3.470  -2.135   1.338  0.00  0.00    -0.010 C 
ATOM      3  C   LIG    1       -4.958  -2.462   1.225  0.00  0.00    +0.037 C 
ATOM      4  C   LIG    1       -5.155  -3.876   0.745  0.00  0.00    -0.002 A 
ATOM      5  C   LIG    1       -4.157  -4.595   0.128  0.00  0.00    -0.039 A 
ATOM      6  C   LIG    1       -4.407  -5.894  -0.297  0.00  0.00    +0.004 A 
ATOM      7  C   LIG    1       -5.644  -6.472  -0.103  0.00  0.00    +0.004 A 
ATOM      8  C   LIG    1       -6.648  -5.756   0.520  0.00  0.00    +0.046 A 
ATOM      9  C   LIG    1       -6.404  -4.461   0.944  0.00  0.00    +0.124 A 
ATOM     10  C   LIG    1       -2.779  -4.033  -0.106  0.00  0.00    +0.002 C 
ATOM     11  C   LIG    1       -1.816  -4.614   0.932  0.00  0.00    +0.011 C 
ENDROOT
BRANCH   1  12
ATOM     12  N   LIG    1       -1.413  -2.002   0.005  0.00  0.00    +0.381 N 
ATOM     13  H   LIG    1       -0.925  -2.337   0.822  0.00  0.00    -0.086 HD
ATOM     14  H   LIG    1       -0.941  -2.328  -0.825  0.00  0.00    -0.086 HD
BRANCH  12  15
ATOM     15  C   LIG    1       -1.433  -0.534   0.013  0.00  0.00    -0.082 C 
BRANCH  15  17
ATOM     16  C   LIG    1       -0.019   1.526   0.010  0.00  0.00    +0.002 C 
ATOM     17  C   LIG    1        0.002  -0.004   0.002  0.00  0.00    -0.022 C 
ENDBRANCH  15  17
ENDBRANCH  12  15
ENDBRANCH   1  12
BRANCH   9  18
ATOM     18  O   LIG    1       -7.391  -3.755   1.557  0.00  0.00    -0.495 OA
ATOM     19  C   LIG    1       -8.648  -4.412   1.730  0.00  0.00    +0.277 C 
ENDBRANCH   9  18
TORSDOF 4
