REMARK  Name = ZINC03917109
REMARK                            x       y       z     vdW  Elec       q    Type
REMARK                         _______ _______ _______ _____ _____    ______ ____
ROOT
ATOM      1  C   LIG    1       -0.256  -6.763   3.013  0.00  0.00    -0.017 C 
ENDROOT
BRANCH   1   2
ATOM      2  C   LIG    1       -0.838  -6.464   1.630  0.00  0.00    -0.079 C 
BRANCH   2   6
ATOM      3  N   LIG    1        0.097  -2.777  -0.113  0.00  0.00    -0.331 N 
ATOM      4  C   LIG    1       -1.306  -3.215  -0.187  0.00  0.00    +0.086 C 
ATOM      5  C   LIG    1       -1.357  -4.725   0.064  0.00  0.00    -0.060 C 
ATOM      6  N   LIG    1       -0.693  -5.032   1.337  0.00  0.00    +0.382 N 
ATOM      7  H   LIG    1       -1.120  -4.495   2.076  0.00  0.00    -0.082 HD
ATOM      8  C   LIG    1        0.734  -4.694   1.250  0.00  0.00    -0.060 C 
ATOM      9  C   LIG    1        0.890  -3.186   1.056  0.00  0.00    +0.086 C 
BRANCH   3  15
ATOM     10  C   LIG    1        0.606  -0.608  -1.057  0.00  0.00    +0.141 A 
ATOM     11  C   LIG    1        1.173   0.158  -2.062  0.00  0.00    +0.047 A 
ATOM     12  C   LIG    1        1.786  -0.457  -3.138  0.00  0.00    +0.004 A 
ATOM     13  C   LIG    1        1.837  -1.836  -3.214  0.00  0.00    +0.002 A 
ATOM     14  C   LIG    1        1.274  -2.608  -2.214  0.00  0.00    +0.027 A 
ATOM     15  C   LIG    1        0.662  -1.998  -1.129  0.00  0.00    +0.072 A 
BRANCH  10  17
ATOM     16  C   LIG    1       -0.017   1.425   0.010  0.00  0.00    +0.277 C 
ATOM     17  O   LIG    1        0.002  -0.004   0.002  0.00  0.00    -0.493 OA
ENDBRANCH  10  17
ENDBRANCH   3  15
ENDBRANCH   2   6
ENDBRANCH   1   2
BRANCH   1  18
ATOM     18  C   LIG    1       -0.407  -8.254   3.319  0.00  0.00    +0.017 C 
BRANCH  18  19
ATOM     19  C   LIG    1        0.175  -8.553   4.702  0.00  0.00    +0.104 C 
BRANCH  19  20
ATOM     20  N   LIG    1        0.030  -9.981   4.995  0.00  0.00    -0.311 N 
ATOM     21  H   LIG    1       -0.386 -10.569   4.345  0.00  0.00    +0.149 HD
ATOM     22  C   LIG    1        0.475 -10.477   6.166  0.00  0.00    +0.244 C 
ATOM     23  O   LIG    1        0.997  -9.740   6.980  0.00  0.00    -0.270 OA
BRANCH  22  24
ATOM     24  C   LIG    1        0.329 -11.918   6.461  0.00  0.00    +0.037 A 
ATOM     25  C   LIG    1       -0.270 -12.768   5.514  0.00  0.00    +0.013 A 
ATOM     26  C   LIG    1       -0.415 -14.094   5.761  0.00  0.00    +0.009 A 
ATOM     27  C   LIG    1        0.036 -14.636   6.979  0.00  0.00    -0.018 A 
ATOM     28  C   LIG    1       -0.104 -16.006   7.258  0.00  0.00    +0.008 A 
ATOM     29  C   LIG    1        0.342 -16.502   8.445  0.00  0.00    +0.001 A 
ATOM     30  C   LIG    1        0.937 -15.671   9.393  0.00  0.00    +0.001 A 
ATOM     31  C   LIG    1        1.089 -14.339   9.158  0.00  0.00    +0.008 A 
ATOM     32  C   LIG    1        0.641 -13.790   7.943  0.00  0.00    -0.017 A 
ATOM     33  C   LIG    1        0.788 -12.422   7.667  0.00  0.00    +0.021 A 
ENDBRANCH  22  24
ENDBRANCH  19  20
ENDBRANCH  18  19
ENDBRANCH   1  18
TORSDOF 8
