REMARK  Name = ZINC03950115
REMARK                            x       y       z     vdW  Elec       q    Type
REMARK                         _______ _______ _______ _____ _____    ______ ____
ROOT
ATOM      1  C   LIG    1       -0.598   1.470  -1.337  0.00  0.00    +0.005 C 
ATOM      2  C   LIG    1       -1.955   0.789  -1.532  0.00  0.00    +0.023 C 
ATOM      3  C   LIG    1       -2.555   1.230  -2.871  0.00  0.00    +0.108 C 
ATOM      4  N   LIG    1       -1.583   0.956  -3.938  0.00  0.00    -0.301 N 
ATOM      5  C   LIG    1       -1.936   0.230  -5.018  0.00  0.00    +0.216 C 
ATOM      6  O   LIG    1       -1.125   0.011  -5.893  0.00  0.00    -0.276 OA
ATOM      7  C   LIG    1       -0.220   1.487  -3.806  0.00  0.00    +0.108 C 
ATOM      8  C   LIG    1        0.354   1.043  -2.457  0.00  0.00    +0.023 C 
ENDROOT
BRANCH   1  16
ATOM      9  C   LIG    1        2.647   3.412   1.312  0.00  0.00    +0.024 A 
ATOM     10  C   LIG    1        1.887   4.531   1.545  0.00  0.00    +0.042 A 
ATOM     11 CL   LIG    1        2.595   5.942   2.265  0.00  0.00    -0.083 Cl
ATOM     12  C   LIG    1        0.548   4.516   1.197  0.00  0.00    +0.035 A 
ATOM     13  C   LIG    1        0.014   3.364   0.676  0.00  0.00    +0.023 A 
ATOM     14 BR   LIG    1       -1.817   3.328   0.207  0.00  0.00    -0.050 Br
ATOM     15  C   LIG    1        0.796   2.204   0.480  0.00  0.00    -0.021 A 
ATOM     16  C   LIG    1       -0.012   1.058   0.015  0.00  0.00    +0.072 C 
ATOM     17  C   LIG    1        0.496  -0.320  -0.155  0.00  0.00    +0.052 A 
ATOM     18  N   LIG    1       -0.430  -1.139  -0.698  0.00  0.00    -0.258 NA
ATOM     19  C   LIG    1       -0.200  -2.389  -1.004  0.00  0.00    +0.126 A 
ATOM     20  C   LIG    1        1.056  -2.924  -0.777  0.00  0.00    +0.036 A 
ATOM     21 BR   LIG    1        1.448  -4.713  -1.248  0.00  0.00    -0.049 Br
ATOM     22  C   LIG    1        2.011  -2.120  -0.199  0.00  0.00    +0.022 A 
ATOM     23  C   LIG    1        1.702  -0.781   0.151  0.00  0.00    -0.024 A 
ATOM     24  C   LIG    1        2.863  -0.174   0.906  0.00  0.00    +0.041 C 
ATOM     25  C   LIG    1        3.204   1.228   0.508  0.00  0.00    +0.040 C 
ATOM     26  C   LIG    1        2.101   2.241   0.739  0.00  0.00    -0.041 A 
ENDBRANCH   1  16
BRANCH   5  27
ATOM     27  C   LIG    1       -3.338  -0.308  -5.139  0.00  0.00    +0.099 C 
BRANCH  27  28
ATOM     28  C   LIG    1       -3.474  -1.090  -6.447  0.00  0.00    +0.001 C 
ATOM     29  C   LIG    1       -3.301  -0.135  -7.631  0.00  0.00    +0.023 C 
ATOM     30  C   LIG    1       -3.403  -0.926  -8.939  0.00  0.00    +0.109 C 
ATOM     31  N   LIG    1       -4.669  -1.671  -8.944  0.00  0.00    -0.286 N 
ATOM     32  C   LIG    1       -5.533  -1.551  -9.972  0.00  0.00    +0.300 C 
ATOM     33  N   LIG    1       -6.736  -2.156  -9.915  0.00  0.00    -0.313 N 
ATOM     34  H   LIG    1       -7.327  -2.132 -10.684  0.00  0.00    +0.146 HD
ATOM     35  H   LIG    1       -7.010  -2.616  -9.107  0.00  0.00    +0.146 HD
ATOM     36  O   LIG    1       -5.227  -0.895 -10.949  0.00  0.00    -0.253 OA
ATOM     37  C   LIG    1       -4.976  -2.550  -7.807  0.00  0.00    +0.109 C 
ATOM     38  C   LIG    1       -4.857  -1.740  -6.512  0.00  0.00    +0.023 C 
ENDBRANCH  27  28
ENDBRANCH   5  27
TORSDOF 3
