REMARK  Name = ZINC03979014
REMARK                            x       y       z     vdW  Elec       q    Type
REMARK                         _______ _______ _______ _____ _____    ______ ____
ROOT
ATOM      1  C   UNK A  0        2.152  -4.367   3.661  0.00  0.00    +0.217 C 
ATOM      2  N   VAL A  1        2.494  -5.670   3.721  0.00  0.00    -0.304 N 
ATOM      3  H   VAL A  1        2.250  -6.269   2.999  0.00  0.00    +0.149 HD
ATOM      4  O   UNK A  0        2.457  -3.618   4.565  0.00  0.00    -0.275 OA
ENDROOT
BRANCH   1   5
ATOM      5  C   UNK A  0        1.391  -3.842   2.471  0.00  0.00    +0.084 C 
BRANCH   5   6
ATOM      6  C   UNK A  0        1.131  -2.345   2.652  0.00  0.00    +0.013 C 
BRANCH   6   7
ATOM      7  C   UNK A  0        2.461  -1.589   2.619  0.00  0.00    +0.001 C 
BRANCH   7   8
ATOM      8  C   UNK A  0        2.192  -0.084   2.663  0.00  0.00    -0.000 C 
BRANCH   8  10
ATOM      9  C   UNK A  0        3.254   2.178   2.673  0.00  0.00    +0.004 C 
ATOM     10  C   UNK A  0        3.522   0.672   2.630  0.00  0.00    -0.003 C 
ENDBRANCH   8  10
ENDBRANCH   7   8
ENDBRANCH   6   7
ENDBRANCH   5   6
BRANCH   5  11
ATOM     11  C   UNK A  0        0.056  -4.581   2.354  0.00  0.00    +0.110 C 
BRANCH  11  12
ATOM     12  C   UNK A  0       -0.631  -4.177   1.074  0.00  0.00    +0.236 C 
ATOM     13  N   UNK A  0       -1.883  -4.604   0.818  0.00  0.00    -0.197 N 
ATOM     14  H   UNK A  0       -2.343  -5.171   1.457  0.00  0.00    +0.182 HD
ATOM     15  O   UNK A  0       -0.056  -3.468   0.276  0.00  0.00    -0.274 OA
BRANCH  13  16
ATOM     16  O   UNK A  0       -2.528  -4.224  -0.384  0.00  0.00    -0.295 OA
ATOM     17  H   UNK A  0       -3.423  -4.578  -0.479  0.00  0.00    +0.241 HD
ENDBRANCH  13  16
ENDBRANCH  11  12
ENDBRANCH   5  11
ENDBRANCH   1   5
BRANCH   2  18
ATOM     18  CA  VAL A  1        3.234  -6.180   4.878  0.00  0.00    +0.162 C 
BRANCH  18  19
ATOM     19  C   VAL A  1        4.008  -7.409   4.477  0.00  0.00    +0.236 C 
ATOM     20  N   PRO A  2        4.768  -8.054   5.385  0.00  0.00    -0.295 N 
ATOM     21  CD  PRO A  2        4.926  -7.671   6.799  0.00  0.00    +0.108 C 
ATOM     22  CG  PRO A  2        6.288  -8.274   7.223  0.00  0.00    +0.021 C 
ATOM     23  CB  PRO A  2        6.288  -9.618   6.448  0.00  0.00    +0.026 C 
ATOM     24  CA  PRO A  2        5.570  -9.259   5.130  0.00  0.00    +0.101 C 
ATOM     25  O   VAL A  1        3.947  -7.819   3.337  0.00  0.00    -0.274 OA
BRANCH  24  26
ATOM     26  C   PRO A  2        4.658 -10.410   4.700  0.00  0.00    +0.178 C 
BRANCH  26  27
ATOM     27  O   PRO A  2        3.792 -10.760   5.781  0.00  0.00    -0.393 OA
ATOM     28  H   PRO A  2        3.184 -11.485   5.580  0.00  0.00    +0.209 HD
ENDBRANCH  26  27
ENDBRANCH  24  26
ENDBRANCH  18  19
BRANCH  18  29
ATOM     29  CB  VAL A  1        2.252  -6.538   5.995  0.00  0.00    +0.012 C 
ATOM     30  CG2 VAL A  1        1.282  -7.611   5.496  0.00  0.00    +0.009 C 
ATOM     31  CG1 VAL A  1        1.466  -5.290   6.402  0.00  0.00    +0.009 C 
ENDBRANCH  18  29
ENDBRANCH   2  18
TORSDOF 13
