REMARK  Name = ZINC03950338
REMARK                            x       y       z     vdW  Elec       q    Type
REMARK                         _______ _______ _______ _____ _____    ______ ____
ROOT
ATOM      1  C   LIG    1       -2.967   3.993   0.214  0.00  0.00    +0.240 C 
ATOM      2  N   LIG    1       -2.781   5.327   0.165  0.00  0.00    -0.297 N 
ATOM      3  C   LIG    1       -1.485   6.019   0.294  0.00  0.00    +0.108 C 
ATOM      4  C   LIG    1       -1.843   7.443   0.788  0.00  0.00    +0.021 C 
ATOM      5  C   LIG    1       -3.159   7.720   0.012  0.00  0.00    +0.022 C 
ATOM      6  C   LIG    1       -3.835   6.333  -0.032  0.00  0.00    +0.060 C 
ATOM      7  O   LIG    1       -4.095   3.535   0.188  0.00  0.00    -0.271 OA
ENDROOT
BRANCH   1   9
ATOM      8  C   LIG    1       -2.000   1.761   0.345  0.00  0.00    +0.013 C 
ATOM      9  C   LIG    1       -1.814   3.095   0.297  0.00  0.00    +0.068 C 
BRANCH   8  15
ATOM     10  C   LIG    1        0.456   1.381   0.453  0.00  0.00    +0.008 A 
ATOM     11  C   LIG    1        1.538   0.528   0.525  0.00  0.00    +0.013 A 
ATOM     12  C   LIG    1        1.342  -0.841   0.575  0.00  0.00    +0.055 A 
ATOM     13  C   LIG    1        0.061  -1.366   0.552  0.00  0.00    +0.013 A 
ATOM     14  C   LIG    1       -1.030  -0.526   0.480  0.00  0.00    +0.008 A 
ATOM     15  C   LIG    1       -0.841   0.858   0.429  0.00  0.00    -0.025 A 
BRANCH  12  16
ATOM     16  C   LIG    1        2.530  -1.766   0.654  0.00  0.00    +0.417 C 
ATOM     17  F   LIG    1        2.172  -2.925   1.350  0.00  0.00    -0.166 F 
ATOM     18  F   LIG    1        3.576  -1.124   1.324  0.00  0.00    -0.166 F 
ATOM     19  F   LIG    1        2.942  -2.106  -0.639  0.00  0.00    -0.166 F 
ENDBRANCH  12  16
ENDBRANCH   8  15
ENDBRANCH   1   9
BRANCH   6  20
ATOM     20  C   LIG    1       -4.508   6.123  -1.389  0.00  0.00    -0.056 C 
BRANCH  20  21
ATOM     21  N   LIG    1       -5.720   6.990  -1.491  0.00  0.00    +0.381 N 
ATOM     22  H   LIG    1       -6.387   6.725  -0.757  0.00  0.00    -0.082 HD
ATOM     23  C   LIG    1       -6.347   6.842  -2.805  0.00  0.00    -0.079 C 
ATOM     24  C   LIG    1       -6.939   8.219  -3.156  0.00  0.00    -0.020 C 
ATOM     25  C   LIG    1       -6.566   9.134  -1.967  0.00  0.00    -0.020 C 
ATOM     26  C   LIG    1       -5.351   8.406  -1.339  0.00  0.00    -0.079 C 
ENDBRANCH  20  21
ENDBRANCH   6  20
TORSDOF 5
