REMARK  Name = ZINC03981610
REMARK                            x       y       z     vdW  Elec       q    Type
REMARK                         _______ _______ _______ _____ _____    ______ ____
ROOT
ATOM      1  C   LIG    1        0.139   1.408   0.072  0.00  0.00    +0.076 C 
ATOM      2  C   LIG    1       -0.360   0.697   1.347  0.00  0.00    +0.153 C 
ATOM      3  C   LIG    1       -1.903   0.815   1.268  0.00  0.00    +0.058 C 
ATOM      4  C   LIG    1       -2.108   2.235   0.683  0.00  0.00    +0.130 C 
ATOM      5  C   LIG    1       -0.971   2.387  -0.350  0.00  0.00    +0.136 C 
ENDROOT
BRANCH   2   6
ATOM      6  N   LIG    1        0.050  -0.709   1.343  0.00  0.00    -0.276 N 
ATOM      7  H   LIG    1        0.228  -1.161   0.503  0.00  0.00    +0.258 HD
BRANCH   6   8
ATOM      8  C   LIG    1        0.184  -1.389   2.530  0.00  0.00    +0.341 C 
ATOM      9  N   LIG    1       -0.073  -0.716   3.643  0.00  0.00    -0.292 N 
ATOM     10  H   LIG    1       -0.358   0.269   3.593  0.00  0.00    +0.255 HD
ATOM     11  H   LIG    1        0.012  -1.177   4.549  0.00  0.00    +0.255 HD
BRANCH   8  12
ATOM     12  N   LIG    1        0.569  -2.709   2.527  0.00  0.00    -0.292 N 
ATOM     13  H   LIG    1        0.663  -3.189   3.365  0.00  0.00    +0.255 HD
ATOM     14  H   LIG    1        0.747  -3.160   1.687  0.00  0.00    +0.255 HD
ENDBRANCH   8  12
ENDBRANCH   6   8
ENDBRANCH   2   6
BRANCH   4  15
ATOM     15  C   LIG    1       -3.451   2.338   0.009  0.00  0.00    +0.310 C 
ATOM     16  O   LIG    1       -3.517   2.584  -1.172  0.00  0.00    -0.251 OA
BRANCH  15  17
ATOM     17  O   LIG    1       -4.575   2.158   0.721  0.00  0.00    -0.480 OA
ATOM     18  H   LIG    1       -4.524   1.967   1.636  0.00  0.00    +0.295 HD
ENDBRANCH  15  17
ENDBRANCH   4  15
BRANCH   5  19
ATOM     19  O   LIG    1       -0.474   3.726  -0.339  0.00  0.00    -0.391 OA
ATOM     20  H   LIG    1       -1.127   4.391  -0.596  0.00  0.00    +0.210 HD
ENDBRANCH   5  19
BRANCH   1  21
ATOM     21  C   LIG    1        1.428   2.176   0.371  0.00  0.00    +0.085 C 
BRANCH  21  22
ATOM     22  N   LIG    1        2.243   1.412   1.319  0.00  0.00    -0.312 N 
ATOM     23  H   LIG    1        2.467   1.792   2.182  0.00  0.00    +0.149 HD
ATOM     24  C   LIG    1        2.681   0.180   0.991  0.00  0.00    +0.210 C 
ATOM     25  C   LIG    1        3.421  -0.651   2.006  0.00  0.00    +0.109 C 
ATOM     26  O   LIG    1        2.479  -0.259  -0.122  0.00  0.00    -0.276 OA
ENDBRANCH  21  22
BRANCH  21  27
ATOM     27  C   LIG    1        2.213   2.381  -0.927  0.00  0.00    +0.009 C 
BRANCH  27  29
ATOM     28  C   LIG    1        2.044   3.115  -3.309  0.00  0.00    +0.004 C 
ATOM     29  C   LIG    1        1.312   3.049  -1.967  0.00  0.00    +0.002 C 
ENDBRANCH  27  29
BRANCH  27  30
ATOM     30  C   LIG    1        3.426   3.272  -0.654  0.00  0.00    +0.002 C 
ATOM     31  C   LIG    1        4.421   2.523   0.233  0.00  0.00    +0.004 C 
ENDBRANCH  27  30
ENDBRANCH  21  27
ENDBRANCH   1  21
TORSDOF 11
