REMARK  Name = ZINC04031200
REMARK                            x       y       z     vdW  Elec       q    Type
REMARK                         _______ _______ _______ _____ _____    ______ ____
ROOT
ATOM      1  C   LIG    1        0.925   0.759   2.046  0.00  0.00    +0.012 C 
ATOM      2  C   LIG    1        1.259   0.259   0.640  0.00  0.00    -0.016 C 
ATOM      3  C   LIG    1        2.609  -0.420   0.627  0.00  0.00    +0.008 C 
ATOM      4  C   LIG    1        3.674   0.534   0.051  0.00  0.00    +0.005 C 
ATOM      5  C   LIG    1        3.387   1.937   0.565  0.00  0.00    +0.002 C 
ATOM      6  C   LIG    1        2.155   2.493  -0.161  0.00  0.00    -0.003 C 
ATOM      7  C   LIG    1        1.650   3.709   0.600  0.00  0.00    +0.008 C 
ATOM      8  C   LIG    1        2.731   4.796   0.476  0.00  0.00    +0.032 C 
ATOM      9  C   LIG    1        4.070   4.253   0.939  0.00  0.00    -0.060 C 
ATOM     10  C   LIG    1        4.762   4.996   1.801  0.00  0.00    +0.046 C 
ATOM     11  C   LIG    1        6.081   4.580   2.279  0.00  0.00    +0.156 C 
ATOM     12  C   LIG    1        6.767   3.454   1.534  0.00  0.00    +0.080 C 
ATOM     13  C   LIG    1        5.731   2.377   1.237  0.00  0.00    +0.019 C 
ATOM     14  O   LIG    1        6.615   5.129   3.224  0.00  0.00    -0.293 OA
ATOM     15  C   LIG    1        4.552   2.916   0.439  0.00  0.00    -0.007 C 
ATOM     16  C   LIG    1        4.983   3.045  -1.020  0.00  0.00    +0.016 C 
ATOM     17  C   LIG    1        0.091  -0.642   0.188  0.00  0.00    +0.104 C 
ATOM     18  C   LIG    1       -1.005   0.359  -0.254  0.00  0.00    +0.015 C 
ATOM     19  C   LIG    1       -0.312   1.742  -0.393  0.00  0.00    +0.005 C 
ATOM     20  C   LIG    1        1.181   1.386  -0.407  0.00  0.00    -0.001 C 
ENDROOT
BRANCH  17  21
ATOM     21  C   LIG    1       -0.391  -1.475   1.343  0.00  0.00    +0.308 C 
ATOM     22  O   LIG    1        0.402  -1.922   2.138  0.00  0.00    -0.251 OA
BRANCH  21  23
ATOM     23  O   LIG    1       -1.702  -1.722   1.492  0.00  0.00    -0.480 OA
ATOM     24  H   LIG    1       -2.317  -1.376   0.875  0.00  0.00    +0.295 HD
ENDBRANCH  21  23
ENDBRANCH  17  21
TORSDOF 2
