REMARK  Name = ZINC04062977
REMARK                            x       y       z     vdW  Elec       q    Type
REMARK                         _______ _______ _______ _____ _____    ______ ____
ROOT
ATOM      1  C   LIG    1       -4.870  -2.906   0.033  0.00  0.00    +0.100 C 
ENDROOT
BRANCH   1   2
ATOM      2  C   LIG    1       -5.609  -2.877   1.346  0.00  0.00    +0.092 A 
ATOM      3  C   LIG    1       -5.287  -1.911   2.321  0.00  0.00    +0.200 A 
ATOM      4  C   LIG    1       -6.051  -1.940   3.585  0.00  0.00    +0.065 A 
ATOM      5  C   LIG    1       -5.803  -1.025   4.605  0.00  0.00    +0.015 A 
ATOM      6  C   LIG    1       -6.539  -1.086   5.768  0.00  0.00    +0.001 A 
ATOM      7  C   LIG    1       -7.521  -2.053   5.924  0.00  0.00    +0.004 A 
ATOM      8  C   LIG    1       -7.776  -2.965   4.922  0.00  0.00    +0.047 A 
ATOM      9  C   LIG    1       -7.045  -2.919   3.741  0.00  0.00    +0.143 A 
ATOM     10  O   LIG    1       -7.278  -3.801   2.746  0.00  0.00    -0.425 OA
ATOM     11  O   LIG    1       -4.411  -1.082   2.129  0.00  0.00    -0.287 OA
ATOM     12  C   LIG    1       -6.594  -3.779   1.595  0.00  0.00    +0.292 A 
BRANCH  12  13
ATOM     13  O   LIG    1       -6.892  -4.692   0.647  0.00  0.00    -0.480 OA
ATOM     14  H   LIG    1       -7.603  -5.300   0.895  0.00  0.00    +0.295 HD
ENDBRANCH  12  13
ENDBRANCH   1   2
BRANCH   1  15
ATOM     15  C   LIG    1       -5.833  -2.630  -1.092  0.00  0.00    +0.092 A 
ATOM     16  C   LIG    1       -5.604  -3.174  -2.373  0.00  0.00    +0.200 A 
ATOM     17  C   LIG    1       -6.588  -2.863  -3.429  0.00  0.00    +0.065 A 
ATOM     18  C   LIG    1       -6.444  -3.357  -4.724  0.00  0.00    +0.015 A 
ATOM     19  C   LIG    1       -7.385  -3.043  -5.681  0.00  0.00    +0.001 A 
ATOM     20  C   LIG    1       -8.470  -2.241  -5.357  0.00  0.00    +0.004 A 
ATOM     21  C   LIG    1       -8.623  -1.746  -4.080  0.00  0.00    +0.047 A 
ATOM     22  C   LIG    1       -7.685  -2.051  -3.101  0.00  0.00    +0.143 A 
ATOM     23  O   LIG    1       -7.816  -1.579  -1.844  0.00  0.00    -0.425 OA
ATOM     24  O   LIG    1       -4.630  -3.874  -2.600  0.00  0.00    -0.287 OA
ATOM     25  C   LIG    1       -6.932  -1.860  -0.878  0.00  0.00    +0.292 A 
BRANCH  25  26
ATOM     26  O   LIG    1       -7.138  -1.353   0.356  0.00  0.00    -0.480 OA
ATOM     27  H   LIG    1       -6.530  -1.538   1.045  0.00  0.00    +0.295 HD
ENDBRANCH  25  26
ENDBRANCH   1  15
BRANCH   1  31
ATOM     28  C   LIG    1       -1.811   0.079   0.053  0.00  0.00    +0.029 A 
ATOM     29  C   LIG    1       -1.496  -1.242   0.345  0.00  0.00    +0.023 A 
ATOM     30  C   LIG    1       -2.487  -2.204   0.338  0.00  0.00    +0.006 A 
ATOM     31  C   LIG    1       -3.792  -1.853   0.041  0.00  0.00    -0.035 A 
ATOM     32  C   LIG    1       -4.108  -0.539  -0.250  0.00  0.00    +0.006 A 
ATOM     33  C   LIG    1       -3.123   0.429  -0.239  0.00  0.00    +0.023 A 
BRANCH  28  35
ATOM     34  C   LIG    1       -1.147   2.449  -0.241  0.00  0.00    +0.129 C 
ATOM     35  N   LIG    1       -0.812   1.055   0.060  0.00  0.00    -0.336 N 
ATOM     36  C   LIG    1        0.572   0.684   0.369  0.00  0.00    +0.129 C 
ENDBRANCH  28  35
ENDBRANCH   1  31
TORSDOF 6
