REMARK  Name = ZINC03932773
REMARK                            x       y       z     vdW  Elec       q    Type
REMARK                         _______ _______ _______ _____ _____    ______ ____
ROOT
ATOM      1  C   LIG    1       -0.784   5.717   4.035  0.00  0.00    +0.015 C 
ATOM      2  C   LIG    1       -0.597   5.694   2.695  0.00  0.00    +0.002 C 
ATOM      3  C   LIG    1        0.804   5.717   2.150  0.00  0.00    +0.073 C 
ATOM      4  C   LIG    1        0.815   6.451   0.805  0.00  0.00    +0.072 C 
ATOM      5  C   LIG    1        2.202   6.314   0.162  0.00  0.00    -0.031 C 
ATOM      6  N   LIG    1        2.200   7.031  -1.132  0.00  0.00    +0.384 N 
ATOM      7  H   LIG    1        1.891   7.997  -0.976  0.00  0.00    -0.081 HD
ATOM      8  C   LIG    1        1.267   6.377  -2.076  0.00  0.00    -0.077 C 
ATOM      9  C   LIG    1       -0.153   6.462  -1.508  0.00  0.00    -0.000 C 
ATOM     10  C   LIG    1        2.671   4.877  -0.003  0.00  0.00    +0.023 C 
ATOM     11  C   LIG    1        1.560   3.906  -0.240  0.00  0.00    -0.041 A 
ATOM     12  C   LIG    1        1.722   2.540  -0.389  0.00  0.00    +0.007 A 
ATOM     13  C   LIG    1        0.615   1.712  -0.477  0.00  0.00    +0.049 A 
ATOM     14  C   LIG    1       -0.697   2.180  -0.415  0.00  0.00    +0.159 A 
ATOM     15  C   LIG    1       -0.873   3.561  -0.270  0.00  0.00    +0.167 A 
ATOM     16  O   LIG    1       -1.983   4.318  -0.143  0.00  0.00    -0.476 OA
ATOM     17  C   LIG    1       -1.613   5.629   0.367  0.00  0.00    +0.257 C 
ATOM     18  C   LIG    1        0.260   4.358  -0.238  0.00  0.00    +0.014 A 
ATOM     19  C   LIG    1       -0.186   5.796  -0.137  0.00  0.00    +0.069 C 
ATOM     20  C   LIG    1       -1.696   5.611   1.860  0.00  0.00    +0.200 C 
ATOM     21  O   LIG    1       -2.795   5.552   2.374  0.00  0.00    -0.288 OA
ENDROOT
BRANCH   1  25
ATOM     22  C   LIG    1        2.539   5.376   6.647  0.00  0.00    +0.000 A 
ATOM     23  C   LIG    1        1.457   6.160   7.009  0.00  0.00    +0.001 A 
ATOM     24  C   LIG    1        0.373   6.277   6.165  0.00  0.00    +0.008 A 
ATOM     25  C   LIG    1        0.368   5.599   4.941  0.00  0.00    -0.025 A 
ATOM     26  C   LIG    1        1.463   4.803   4.586  0.00  0.00    +0.008 A 
ATOM     27  C   LIG    1        2.542   4.702   5.438  0.00  0.00    +0.001 A 
ENDBRANCH   1  25
BRANCH   4  28
ATOM     28  O   LIG    1        0.490   7.830   0.992  0.00  0.00    -0.389 OA
ATOM     29  H   LIG    1        1.094   8.300   1.583  0.00  0.00    +0.210 HD
ENDBRANCH   4  28
BRANCH  14  30
ATOM     30  O   LIG    1       -1.757   1.331  -0.488  0.00  0.00    -0.503 OA
ATOM     31  H   LIG    1       -2.054   0.998   0.370  0.00  0.00    +0.292 HD
ENDBRANCH  14  30
BRANCH   6  32
ATOM     32  C   LIG    1        3.562   7.049  -1.700  0.00  0.00    -0.075 C 
BRANCH  32  33
ATOM     33  C   LIG    1        3.575   7.977  -2.916  0.00  0.00    -0.028 C 
ATOM     34  C   LIG    1        3.903   7.356  -4.276  0.00  0.00    +0.002 C 
ATOM     35  C   LIG    1        4.926   8.255  -3.579  0.00  0.00    +0.002 C 
ENDBRANCH  32  33
ENDBRANCH   6  32
TORSDOF 5
