REMARK  Name = ZINC03959300
REMARK                            x       y       z     vdW  Elec       q    Type
REMARK                         _______ _______ _______ _____ _____    ______ ____
ROOT
ATOM      1  C   LIG    1       -2.075   4.397  -5.762  0.00  0.00    +0.101 C 
ATOM      2  C   LIG    1       -0.740   3.885  -5.259  0.00  0.00    +0.111 C 
ATOM      3  C   LIG    1        0.048   5.251  -5.401  0.00  0.00    +0.123 C 
ATOM      4  N   LIG    1       -0.310   5.652  -6.724  0.00  0.00    -0.171 N 
ATOM      5  C   LIG    1        1.400   4.784  -4.919  0.00  0.00    +0.045 C 
ATOM      6  C   LIG    1        0.982   3.928  -3.679  0.00  0.00    +0.110 C 
ATOM      7  N   LIG    1       -0.437   3.526  -3.904  0.00  0.00    -0.292 N 
ATOM      8  C   LIG    1       -1.265   2.940  -3.016  0.00  0.00    +0.239 C 
ATOM      9  O   LIG    1       -2.430   2.749  -3.305  0.00  0.00    -0.271 OA
ATOM     10  C   LIG    1       -1.616   5.270  -6.942  0.00  0.00    +0.240 C 
ATOM     11  O   LIG    1       -2.293   5.577  -7.900  0.00  0.00    -0.274 OA
ENDROOT
BRANCH   4  12
ATOM     12  S   LIG    1        0.673   6.423  -7.811  0.00  0.00    +0.045 S 
ATOM     13  C   LIG    1        1.487   5.088  -8.731  0.00  0.00    +0.219 C 
ATOM     14  O   LIG    1        1.622   7.116  -7.012  0.00  0.00    -0.155 OA
ATOM     15  O   LIG    1       -0.214   7.134  -8.662  0.00  0.00    -0.155 OA
ENDBRANCH   4  12
BRANCH   1  17
ATOM     16  C   LIG    1       -4.347   3.791  -6.608  0.00  0.00    +0.008 C 
ATOM     17  C   LIG    1       -2.965   3.247  -6.238  0.00  0.00    -0.003 C 
ATOM     18  C   LIG    1       -2.332   2.586  -7.464  0.00  0.00    +0.008 C 
ENDBRANCH   1  17
BRANCH   8  19
ATOM     19  C   LIG    1       -0.758   2.531  -1.697  0.00  0.00    +0.061 C 
ATOM     20  C   LIG    1       -1.574   1.952  -0.821  0.00  0.00    -0.040 C 
BRANCH  20  21
ATOM     21  C   LIG    1       -1.055   1.534   0.530  0.00  0.00    -0.051 C 
BRANCH  21  22
ATOM     22  N   LIG    1       -1.907   2.138   1.576  0.00  0.00    +0.382 N 
ATOM     23  H   LIG    1       -2.889   1.921   1.371  0.00  0.00    -0.081 HD
ATOM     24  C   LIG    1       -1.557   1.578   2.898  0.00  0.00    -0.078 C 
ATOM     25  C   LIG    1       -2.529   2.128   3.944  0.00  0.00    -0.019 C 
ATOM     26  C   LIG    1       -2.417   3.655   3.984  0.00  0.00    -0.004 C 
ATOM     27  C   LIG    1       -2.709   4.217   2.590  0.00  0.00    -0.019 C 
ATOM     28  C   LIG    1       -1.732   3.606   1.583  0.00  0.00    -0.078 C 
ENDBRANCH  21  22
ENDBRANCH  20  21
ENDBRANCH   8  19
TORSDOF 5
