REMARK  Name = ZINC03995626
REMARK                            x       y       z     vdW  Elec       q    Type
REMARK                         _______ _______ _______ _____ _____    ______ ____
ROOT
ATOM      1  C   LIG    1        5.605   8.086  -0.008  0.00  0.00    -0.002 C 
ENDROOT
BRANCH   1   2
ATOM      2  C   LIG    1        5.584   9.616   0.000  0.00  0.00    -0.018 C 
BRANCH   2   3
ATOM      3  C   LIG    1        7.020  10.146  -0.011  0.00  0.00    -0.076 C 
BRANCH   3   5
ATOM      4  C   LIG    1        6.289  12.101  -1.192  0.00  0.00    -0.092 C 
ATOM      5  N   LIG    1        7.000  11.615  -0.002  0.00  0.00    +0.376 N 
ATOM      6  C   LIG    1        6.312  12.088   1.206  0.00  0.00    -0.092 C 
BRANCH   5   7
ATOM      7  C   LIG    1        8.378  12.123  -0.013  0.00  0.00    -0.074 C 
BRANCH   7   8
ATOM      8  C   LIG    1        8.357  13.653  -0.004  0.00  0.00    +0.001 C 
BRANCH   8   9
ATOM      9  C   LIG    1        9.793  14.183  -0.015  0.00  0.00    +0.115 C 
BRANCH   9  10
ATOM     10  N   LIG    1        9.773  15.648  -0.007  0.00  0.00    -0.234 N 
ATOM     11  C   LIG    1        9.758  16.415  -1.112  0.00  0.00    +0.254 C 
ATOM     12  C   LIG    1        9.738  17.834  -0.700  0.00  0.00    +0.049 A 
ATOM     13  C   LIG    1        9.716  19.040  -1.382  0.00  0.00    +0.014 A 
ATOM     14  C   LIG    1        9.707  20.231  -0.673  0.00  0.00    +0.001 A 
ATOM     15  C   LIG    1        9.719  20.223   0.709  0.00  0.00    +0.001 A 
ATOM     16  C   LIG    1        9.741  19.025   1.405  0.00  0.00    +0.014 A 
ATOM     17  C   LIG    1        9.751  17.826   0.710  0.00  0.00    +0.049 A 
ATOM     18  O   LIG    1        9.758  16.009  -2.257  0.00  0.00    -0.270 OA
ATOM     19  C   LIG    1        9.773  16.403   1.106  0.00  0.00    +0.254 C 
ATOM     20  O   LIG    1        9.789  15.985   2.246  0.00  0.00    -0.270 OA
ENDBRANCH   9  10
ENDBRANCH   8   9
ENDBRANCH   7   8
ENDBRANCH   5   7
ENDBRANCH   3   5
ENDBRANCH   2   3
ENDBRANCH   1   2
BRANCH   1  21
ATOM     21  C   LIG    1        4.170   7.557   0.003  0.00  0.00    -0.002 C 
BRANCH  21  22
ATOM     22  C   LIG    1        4.191   6.027  -0.006  0.00  0.00    -0.018 C 
BRANCH  22  23
ATOM     23  C   LIG    1        2.755   5.497   0.005  0.00  0.00    -0.076 C 
BRANCH  23  24
ATOM     24  N   LIG    1        2.775   4.029  -0.003  0.00  0.00    +0.376 N 
ATOM     25  C   LIG    1        3.463   3.555  -1.211  0.00  0.00    -0.092 C 
ATOM     26  C   LIG    1        3.486   3.542   1.187  0.00  0.00    -0.092 C 
BRANCH  24  27
ATOM     27  C   LIG    1        1.397   3.520   0.008  0.00  0.00    -0.074 C 
BRANCH  27  28
ATOM     28  C   LIG    1        1.418   1.990  -0.001  0.00  0.00    +0.001 C 
BRANCH  28  29
ATOM     29  C   LIG    1       -0.018   1.461   0.010  0.00  0.00    +0.115 C 
BRANCH  29  30
ATOM     30  N   LIG    1        0.002  -0.004   0.002  0.00  0.00    -0.234 N 
ATOM     31  C   LIG    1       -0.004  -0.759  -1.111  0.00  0.00    +0.254 C 
ATOM     32  C   LIG    1        0.024  -2.183  -0.715  0.00  0.00    +0.049 A 
ATOM     33  C   LIG    1        0.032  -3.381  -1.410  0.00  0.00    +0.014 A 
ATOM     34  C   LIG    1        0.055  -4.580  -0.714  0.00  0.00    +0.001 A 
ATOM     35  C   LIG    1        0.069  -4.587   0.668  0.00  0.00    +0.001 A 
ATOM     36  C   LIG    1        0.060  -3.396   1.377  0.00  0.00    +0.014 A 
ATOM     37  C   LIG    1        0.037  -2.191   0.695  0.00  0.00    +0.049 A 
ATOM     38  O   LIG    1       -0.026  -0.341  -2.251  0.00  0.00    -0.270 OA
ATOM     39  C   LIG    1        0.023  -0.771   1.107  0.00  0.00    +0.254 C 
ATOM     40  O   LIG    1        0.029  -0.365   2.252  0.00  0.00    -0.270 OA
ENDBRANCH  29  30
ENDBRANCH  28  29
ENDBRANCH  27  28
ENDBRANCH  24  27
ENDBRANCH  23  24
ENDBRANCH  22  23
ENDBRANCH  21  22
ENDBRANCH   1  21
TORSDOF 15
