REMARK  Name = ZINC03901503
REMARK                            x       y       z     vdW  Elec       q    Type
REMARK                         _______ _______ _______ _____ _____    ______ ____
ROOT
ATOM      1  C   LIG    1        5.957  -1.888  -0.001  0.00  0.00    +0.025 A 
ATOM      2  C   LIG    1        5.981  -3.242  -0.354  0.00  0.00    +0.017 A 
ATOM      3  C   LIG    1        7.169  -3.916  -0.395  0.00  0.00    +0.014 A 
ATOM      4  C   LIG    1        8.358  -3.256  -0.073  0.00  0.00    +0.037 A 
ATOM      5  C   LIG    1        8.334  -1.904   0.285  0.00  0.00    +0.014 A 
ATOM      6  C   LIG    1        7.148  -1.228   0.321  0.00  0.00    +0.017 A 
ENDROOT
BRANCH   4   7
ATOM      7  C   LIG    1        9.641  -3.986  -0.111  0.00  0.00    +0.247 C 
ATOM      8  N   LIG    1       10.688  -3.474  -0.788  0.00  0.00    -0.297 N 
ATOM      9  C   LIG    1       10.592  -2.155  -1.429  0.00  0.00    +0.110 C 
ATOM     10  C   LIG    1       10.981  -2.287  -2.900  0.00  0.00    +0.050 C 
ATOM     11  C   LIG    1       12.362  -2.938  -3.004  0.00  0.00    +0.118 C 
ATOM     12  C   LIG    1       12.316  -4.338  -2.387  0.00  0.00    +0.050 C 
ATOM     13  C   LIG    1       11.944  -4.227  -0.905  0.00  0.00    +0.110 C 
ATOM     14  O   LIG    1        9.753  -5.049   0.468  0.00  0.00    -0.270 OA
BRANCH  11  15
ATOM     15  O   LIG    1       12.741  -3.035  -4.378  0.00  0.00    -0.392 OA
ATOM     16  H   LIG    1       12.791  -2.184  -4.834  0.00  0.00    +0.210 HD
ENDBRANCH  11  15
ENDBRANCH   4   7
BRANCH   1  18
ATOM     17  C   LIG    1        3.693  -0.599   0.067  0.00  0.00    -0.061 C 
ATOM     18  C   LIG    1        4.713  -1.180   0.036  0.00  0.00    -0.061 C 
BRANCH  17  22
ATOM     19  C   LIG    1        0.043   1.479   0.176  0.00  0.00    +0.000 A 
ATOM     20  C   LIG    1        1.218   2.135   0.496  0.00  0.00    +0.001 A 
ATOM     21  C   LIG    1        2.420   1.460   0.462  0.00  0.00    +0.017 A 
ATOM     22  C   LIG    1        2.449   0.109   0.104  0.00  0.00    +0.025 A 
ATOM     23  C   LIG    1        1.257  -0.547  -0.217  0.00  0.00    +0.017 A 
ATOM     24  C   LIG    1        0.063   0.142  -0.179  0.00  0.00    +0.001 A 
ENDBRANCH  17  22
ENDBRANCH   1  18
TORSDOF 4
