REMARK  Name = ZINC03938675
REMARK                            x       y       z     vdW  Elec       q    Type
REMARK                         _______ _______ _______ _____ _____    ______ ____
ROOT
ATOM      1  C   LIG    1       -2.705  -2.589   0.014  0.00  0.00    +0.221 C 
ATOM      2  C   LIG    1       -2.806  -4.132  -0.041  0.00  0.00    +0.107 C 
ATOM      3  C   LIG    1       -3.980  -4.419   0.876  0.00  0.00    +0.091 C 
ATOM      4  N   LIG    1       -4.214  -3.360   1.577  0.00  0.00    -0.089 NA
ATOM      5  O   LIG    1       -3.326  -2.299   1.283  0.00  0.00    -0.389 OA
ENDROOT
BRANCH   3   6
ATOM      6  C   LIG    1       -4.726  -5.689   0.954  0.00  0.00    -0.000 A 
ATOM      7  C   LIG    1       -4.364  -6.765   0.140  0.00  0.00    +0.013 A 
ATOM      8  C   LIG    1       -5.063  -7.950   0.216  0.00  0.00    +0.046 A 
ATOM      9  C   LIG    1       -6.127  -8.075   1.101  0.00  0.00    +0.117 A 
ATOM     10  C   LIG    1       -6.490  -7.008   1.913  0.00  0.00    +0.046 A 
ATOM     11  C   LIG    1       -5.792  -5.822   1.847  0.00  0.00    +0.013 A 
BRANCH   9  12
ATOM     12  O   LIG    1       -6.814  -9.245   1.173  0.00  0.00    -0.507 OA
ATOM     13  H   LIG    1       -6.458  -9.871   1.818  0.00  0.00    +0.292 HD
ENDBRANCH   9  12
ENDBRANCH   3   6
BRANCH   1  14
ATOM     14  C   LIG    1       -1.244  -2.135   0.003  0.00  0.00    +0.168 C 
BRANCH  14  15
ATOM     15  C   LIG    1       -1.185  -0.630   0.010  0.00  0.00    +0.310 C 
ATOM     16  O   LIG    1       -2.208   0.015   0.023  0.00  0.00    -0.251 OA
BRANCH  15  18
ATOM     17  C   LIG    1       -0.017   1.425   0.010  0.00  0.00    +0.280 C 
ATOM     18  O   LIG    1        0.002  -0.004   0.002  0.00  0.00    -0.468 OA
ENDBRANCH  15  18
ENDBRANCH  14  15
ENDBRANCH   1  14
TORSDOF 5
