REMARK  Name = ZINC03875420
REMARK                            x       y       z     vdW  Elec       q    Type
REMARK                         _______ _______ _______ _____ _____    ______ ____
ROOT
ATOM      1  N   LIG    1        1.368  -1.678   1.115  0.00  0.00    +0.384 N 
ATOM      2  H   LIG    1        1.297  -1.159   1.977  0.00  0.00    -0.081 HD
ATOM      3  C   LIG    1        0.233  -2.598   1.020  0.00  0.00    -0.077 C 
ATOM      4  C   LIG    1        0.242  -3.608   2.178  0.00  0.00    -0.003 C 
ATOM      5  C   LIG    1        1.580  -4.349   2.114  0.00  0.00    +0.042 C 
ATOM      6  C   LIG    1        1.711  -4.971   0.746  0.00  0.00    +0.011 A 
ATOM      7  C   LIG    1        2.277  -4.406  -0.371  0.00  0.00    -0.041 A 
ATOM      8  C   LIG    1        2.263  -5.189  -1.512  0.00  0.00    +0.007 A 
ATOM      9  C   LIG    1        1.738  -6.471  -1.470  0.00  0.00    +0.049 A 
ATOM     10  C   LIG    1        1.222  -7.051  -0.313  0.00  0.00    +0.159 A 
ATOM     11  C   LIG    1        2.873  -3.039  -0.268  0.00  0.00    +0.021 C 
ATOM     12  C   LIG    1        1.226  -6.270   0.846  0.00  0.00    +0.166 A 
ATOM     13  O   LIG    1        0.874  -6.532   2.126  0.00  0.00    -0.481 OA
ATOM     14  C   LIG    1        2.697  -3.344   2.274  0.00  0.00    +0.012 C 
ATOM     15  C   LIG    1        4.018  -3.976   2.511  0.00  0.00    -0.026 C 
ATOM     16  C   LIG    1        4.135  -5.218   2.862  0.00  0.00    +0.004 C 
ATOM     17  C   LIG    1        3.032  -6.200   3.012  0.00  0.00    +0.178 C 
ATOM     18  C   LIG    1        1.622  -5.597   2.987  0.00  0.00    +0.217 C 
ATOM     19  C   LIG    1        2.655  -2.390   1.089  0.00  0.00    -0.056 C 
ENDROOT
BRANCH  10  20
ATOM     20  O   LIG    1        0.734  -8.321  -0.312  0.00  0.00    -0.503 OA
ATOM     21  H   LIG    1        1.395  -8.996  -0.108  0.00  0.00    +0.292 HD
ENDBRANCH  10  20
BRANCH  17  22
ATOM     22  O   LIG    1        3.134  -7.153   1.952  0.00  0.00    -0.384 OA
ATOM     23  H   LIG    1        3.996  -7.585   1.893  0.00  0.00    +0.210 HD
ENDBRANCH  17  22
BRANCH   1  24
ATOM     24  C   LIG    1        1.317  -0.740  -0.015  0.00  0.00    -0.051 C 
BRANCH  24  26
ATOM     25  C   LIG    1        0.187   1.422   0.097  0.00  0.00    +0.002 C 
ATOM     26  C   LIG    1        0.082   0.116   0.098  0.00  0.00    -0.053 C 
ENDBRANCH  24  26
ENDBRANCH   1  24
TORSDOF 4
