REMARK  Name = ZINC03917497
REMARK                            x       y       z     vdW  Elec       q    Type
REMARK                         _______ _______ _______ _____ _____    ______ ____
ROOT
ATOM      1  C   LIG    1        0.949   2.345  -0.365  0.00  0.00    +0.078 A 
ATOM      2  C   LIG    1        1.966   2.034  -1.255  0.00  0.00    +0.049 A 
ATOM      3  C   LIG    1        3.011   2.919  -1.447  0.00  0.00    +0.073 A 
ATOM      4 CL   LIG    1        4.284   2.529  -2.562  0.00  0.00    -0.081 Cl
ATOM      5  C   LIG    1        3.044   4.116  -0.753  0.00  0.00    +0.143 A 
ATOM      6  C   LIG    1        2.034   4.432   0.135  0.00  0.00    +0.081 A 
ATOM      7  C   LIG    1        0.981   3.552   0.329  0.00  0.00    +0.140 A 
ENDROOT
BRANCH   1  11
ATOM      8  N   LIG    1       -0.893  -0.742   0.017  0.00  0.00    -0.269 N 
ATOM      9  H   LIG    1       -1.783  -0.410   0.213  0.00  0.00    +0.156 HD
ATOM     10  C   LIG    1        0.102   0.122  -0.263  0.00  0.00    +0.308 C 
ATOM     11  N   LIG    1       -0.111   1.449  -0.168  0.00  0.00    -0.266 N 
ATOM     12  H   LIG    1       -0.998   1.785   0.032  0.00  0.00    +0.156 HD
ATOM     13  O   LIG    1        1.193  -0.296  -0.601  0.00  0.00    -0.252 OA
BRANCH   8  17
ATOM     14  C   LIG    1       -0.150  -4.842   0.035  0.00  0.00    +0.000 A 
ATOM     15  C   LIG    1        0.833  -3.960   0.445  0.00  0.00    +0.002 A 
ATOM     16  C   LIG    1        0.590  -2.601   0.440  0.00  0.00    +0.023 A 
ATOM     17  C   LIG    1       -0.644  -2.119   0.023  0.00  0.00    +0.035 A 
ATOM     18  C   LIG    1       -1.631  -3.007  -0.383  0.00  0.00    +0.023 A 
ATOM     19  C   LIG    1       -1.380  -4.365  -0.381  0.00  0.00    +0.002 A 
ENDBRANCH   8  17
ENDBRANCH   1  11
BRANCH   5  20
ATOM     20  N   LIG    1        4.165   5.060  -0.963  0.00  0.00    +0.008 N 
ATOM     21  O   LIG    1        4.195   6.114  -0.353  0.00  0.00    -0.130 OA
BRANCH  20  22
ATOM     22  O   LIG    1        5.056   4.783  -1.746  0.00  0.00    -0.396 OA
ATOM     23  H   LIG    1        5.033   3.972  -2.215  0.00  0.00    +0.329 HD
ENDBRANCH  20  22
ENDBRANCH   5  20
BRANCH   7  24
ATOM     24  O   LIG    1       -0.017   3.865   1.198  0.00  0.00    -0.505 OA
ATOM     25  H   LIG    1        0.143   3.568   2.104  0.00  0.00    +0.292 HD
ENDBRANCH   7  24
TORSDOF 5
