REMARK  Name = ZINC03940680
REMARK                            x       y       z     vdW  Elec       q    Type
REMARK                         _______ _______ _______ _____ _____    ______ ____
ROOT
ATOM      1  C   LIG    1        1.282   1.847  -0.000  0.00  0.00    +0.051 C 
ATOM      2  C   LIG    1        2.194   1.392   1.167  0.00  0.00    +0.129 C 
ATOM      3  C   LIG    1        3.605   1.767   0.650  0.00  0.00    +0.106 C 
ATOM      4  C   LIG    1        3.558   1.459  -0.836  0.00  0.00    +0.140 C 
ATOM      5  O   LIG    1        4.504   1.216  -1.547  0.00  0.00    -0.297 OA
ATOM      6  C   LIG    1        2.105   1.511  -1.261  0.00  0.00    +0.065 C 
ENDROOT
BRANCH   2   7
ATOM      7  O   LIG    1        1.884   2.110   2.364  0.00  0.00    -0.391 OA
ATOM      8  H   LIG    1        2.428   1.862   3.124  0.00  0.00    +0.210 HD
ENDBRANCH   2   7
BRANCH   1  10
ATOM      9  C   LIG    1       -1.156   1.715   0.017  0.00  0.00    +0.000 C 
ATOM     10  C   LIG    1       -0.013   1.076   0.008  0.00  0.00    -0.022 C 
BRANCH   9  11
ATOM     11  C   LIG    1       -2.451   0.944   0.019  0.00  0.00    +0.141 C 
BRANCH  11  12
ATOM     12  O   LIG    1       -2.172  -0.453   0.127  0.00  0.00    -0.387 OA
ATOM     13  H   LIG    1       -1.694  -0.698   0.931  0.00  0.00    +0.210 HD
ENDBRANCH  11  12
BRANCH  11  14
ATOM     14  C   LIG    1       -3.307   1.388   1.207  0.00  0.00    +0.070 C 
BRANCH  14  19
ATOM     15  C   LIG    1       -6.927   0.683   0.400  0.00  0.00    -0.022 A 
ATOM     16  C   LIG    1       -7.114  -0.540   1.018  0.00  0.00    +0.006 A 
ATOM     17  C   LIG    1       -6.069  -1.138   1.697  0.00  0.00    +0.001 A 
ATOM     18  C   LIG    1       -4.837  -0.515   1.758  0.00  0.00    +0.004 A 
ATOM     19  C   LIG    1       -4.650   0.708   1.140  0.00  0.00    -0.044 A 
ATOM     20  C   LIG    1       -5.696   1.309   0.466  0.00  0.00    +0.009 A 
BRANCH  15  21
ATOM     21  C   LIG    1       -8.066   1.335  -0.340  0.00  0.00    +0.194 C 
BRANCH  21  23
ATOM     22  C   LIG    1       -9.908   2.841  -0.047  0.00  0.00    +0.194 C 
ATOM     23  O   LIG    1       -8.800   2.171   0.558  0.00  0.00    -0.378 OA
ENDBRANCH  21  23
ENDBRANCH  15  21
ENDBRANCH  14  19
ENDBRANCH  11  14
ENDBRANCH   9  11
ENDBRANCH   1  10
BRANCH   6  24
ATOM     24  C   LIG    1        1.909   2.598  -2.319  0.00  0.00    +0.022 C 
BRANCH  24  25
ATOM     25  C   LIG    1        2.629   2.192  -3.607  0.00  0.00    +0.070 C 
BRANCH  25  26
ATOM     26  S   LIG    1        2.396   3.481  -4.862  0.00  0.00    -0.161 S 
BRANCH  26  27
ATOM     27  C   LIG    1        3.298   2.856  -6.306  0.00  0.00    +0.069 C 
BRANCH  27  28
ATOM     28  C   LIG    1        3.181   3.861  -7.454  0.00  0.00    +0.022 C 
BRANCH  28  29
ATOM     29  C   LIG    1        3.942   3.333  -8.672  0.00  0.00    +0.121 C 
BRANCH  29  30
ATOM     30  C   LIG    1        3.828   4.323  -9.803  0.00  0.00    +0.307 C 
ATOM     31  O   LIG    1        3.202   5.345  -9.650  0.00  0.00    -0.251 OA
BRANCH  30  32
ATOM     32  O   LIG    1        4.421   4.068 -10.980  0.00  0.00    -0.468 OA
ATOM     33  C   LIG    1        4.269   5.066 -12.024  0.00  0.00    +0.280 C 
ENDBRANCH  30  32
ENDBRANCH  29  30
ENDBRANCH  28  29
ENDBRANCH  27  28
ENDBRANCH  26  27
ENDBRANCH  25  26
ENDBRANCH  24  25
ENDBRANCH   6  24
TORSDOF 16
