REMARK  Name = ZINC03874402
REMARK                            x       y       z     vdW  Elec       q    Type
REMARK                         _______ _______ _______ _____ _____    ______ ____
ROOT
ATOM      1  C   UNK    1        1.101  -4.243  -1.866  0.00  0.00    +0.036 C 
ENDROOT
BRANCH   1   2
ATOM      2  C   UNK    1        1.218  -2.735  -2.101  0.00  0.00    +0.195 C 
BRANCH   2   3
ATOM      3  N   UNK    1        0.585  -2.018  -0.992  0.00  0.00    -0.279 N 
ATOM      4  H   UNK    1        0.178  -2.512  -0.263  0.00  0.00    +0.258 HD
BRANCH   3   8
ATOM      5  C   UNK    1       -0.018   1.461   0.010  0.00  0.00    +0.239 C 
ATOM      6  N   UNK    1        0.002  -0.004   0.002  0.00  0.00    -0.281 N 
ATOM      7  H   UNK    1       -0.404  -0.499   0.731  0.00  0.00    +0.257 HD
ATOM      8  C   UNK    1        0.566  -0.643  -0.984  0.00  0.00    +0.343 C 
BRANCH   8   9
ATOM      9  N   UNK    1        1.142   0.058  -2.017  0.00  0.00    -0.292 N 
ATOM     10  H   UNK    1        1.562  -0.417  -2.751  0.00  0.00    +0.255 HD
ATOM     11  H   UNK    1        1.129   1.028  -2.012  0.00  0.00    +0.255 HD
ENDBRANCH   8   9
ENDBRANCH   3   8
ENDBRANCH   2   3
ENDBRANCH   1   2
BRANCH   1  12
ATOM     12  C   UNK    1        1.763  -4.992  -3.023  0.00  0.00    -0.002 C 
BRANCH  12  13
ATOM     13  C   UNK    1        1.646  -6.500  -2.788  0.00  0.00    +0.036 C 
BRANCH  13  14
ATOM     14  N   UNK    1        2.417  -6.870  -1.594  0.00  0.00    +0.387 N 
ATOM     15  H   UNK    1        3.386  -6.625  -1.730  0.00  0.00    -0.089 HD
ATOM     16  H   UNK    1        2.340  -7.864  -1.439  0.00  0.00    -0.089 HD
ATOM     17  H   UNK    1        2.054  -6.376  -0.793  0.00  0.00    -0.089 HD
ENDBRANCH  13  14
BRANCH  13  18
ATOM     18  C   UNK    1        2.187  -7.238  -3.985  0.00  0.00    +0.290 C 
ATOM     19  O   UNK    1        3.234  -7.858  -3.897  0.00  0.00    -0.253 OA
BRANCH  18  20
ATOM     20  O   UNK    1        1.579  -7.216  -5.041  0.00  0.00    -0.482 OA
ATOM     21  H   UNK    1        0.775  -6.740  -5.109  0.00  0.00    +0.295 HD
ENDBRANCH  18  20
ENDBRANCH  13  18
ENDBRANCH  12  13
ENDBRANCH   1  12
TORSDOF 9
