REMARK  Name = ZINC03999510
REMARK                            x       y       z     vdW  Elec       q    Type
REMARK                         _______ _______ _______ _____ _____    ______ ____
ROOT
ATOM      1  C   LIG    1        3.581   3.505   0.434  0.00  0.00    +0.105 C 
ATOM      2  C   LIG    1        2.705   4.549  -0.265  0.00  0.00    +0.029 C 
ATOM      3  C   LIG    1        2.845   5.879   0.532  0.00  0.00    +0.033 C 
ATOM      4  C   LIG    1        1.870   5.706   1.680  0.00  0.00    -0.030 C 
ATOM      5  C   LIG    1        0.967   4.804   1.383  0.00  0.00    -0.023 C 
ATOM      6  C   LIG    1        1.217   4.248   0.002  0.00  0.00    +0.049 C 
ATOM      7  C   LIG    1        0.897   2.788  -0.065  0.00  0.00    -0.019 A 
ATOM      8  C   LIG    1       -0.431   2.402  -0.092  0.00  0.00    +0.021 A 
ATOM      9  C   LIG    1       -0.770   1.049  -0.158  0.00  0.00    +0.059 A 
ATOM     10  C   LIG    1        0.236   0.079  -0.197  0.00  0.00    +0.017 A 
ATOM     11  C   LIG    1        1.547   0.461  -0.170  0.00  0.00    +0.024 A 
ATOM     12  C   LIG    1        1.885   1.811  -0.103  0.00  0.00    +0.031 A 
ATOM     13  N   LIG    1        3.229   2.174  -0.073  0.00  0.00    -0.336 N 
ATOM     14  H   LIG    1        3.916   1.562  -0.379  0.00  0.00    +0.147 HD
ENDROOT
BRANCH   1  17
ATOM     15  C   LIG    1        3.903   4.430   4.080  0.00  0.00    +0.001 A 
ATOM     16  C   LIG    1        4.123   4.378   2.716  0.00  0.00    +0.005 A 
ATOM     17  C   LIG    1        3.345   3.557   1.921  0.00  0.00    -0.026 A 
ATOM     18  C   LIG    1        2.353   2.780   2.491  0.00  0.00    +0.020 A 
ATOM     19  C   LIG    1        2.137   2.828   3.856  0.00  0.00    +0.018 A 
ATOM     20 BR   LIG    1        0.782   1.765   4.637  0.00  0.00    -0.050 Br
ATOM     21  C   LIG    1        2.913   3.654   4.651  0.00  0.00    +0.015 A 
ENDBRANCH   1  17
BRANCH   9  22
ATOM     22  C   LIG    1       -2.186   0.644  -0.186  0.00  0.00    +0.337 C 
ATOM     23  O   LIG    1       -3.060   1.488  -0.153  0.00  0.00    -0.245 OA
BRANCH  22  24
ATOM     24  O   LIG    1       -2.513  -0.661  -0.250  0.00  0.00    -0.477 OA
ATOM     25  H   LIG    1       -1.839  -1.312  -0.276  0.00  0.00    +0.295 HD
ENDBRANCH  22  24
ENDBRANCH   9  22
TORSDOF 3
