REMARK  Name = ZINC03988917
REMARK                            x       y       z     vdW  Elec       q    Type
REMARK                         _______ _______ _______ _____ _____    ______ ____
ROOT
ATOM      1  C   LIG    1        0.039  -3.214  -1.635  0.00  0.00    +0.025 C 
ATOM      2  C   LIG    1        0.537  -3.079  -2.916  0.00  0.00    +0.065 C 
ATOM      3  C   LIG    1        0.530  -4.092  -3.995  0.00  0.00    +0.097 A 
ATOM      4  C   LIG    1        1.145  -3.489  -5.101  0.00  0.00    +0.060 A 
ATOM      5  N   LIG    1        1.519  -2.194  -4.770  0.00  0.00    -0.280 N 
ATOM      6  H   LIG    1        1.963  -1.580  -5.376  0.00  0.00    +0.155 HD
ATOM      7  C   LIG    1        1.275  -4.225  -6.275  0.00  0.00    +0.027 A 
ATOM      8  C   LIG    1        0.791  -5.524  -6.297  0.00  0.00    +0.022 A 
ATOM      9  C   LIG    1        0.196  -6.052  -5.165  0.00  0.00    +0.111 A 
ATOM     10  N   LIG    1        0.082  -5.338  -4.063  0.00  0.00    -0.253 NA
ATOM     11  C   LIG    1        1.182  -1.898  -3.503  0.00  0.00    +0.250 C 
ATOM     12  O   LIG    1        1.381  -0.837  -2.938  0.00  0.00    -0.270 OA
ENDROOT
BRANCH   1  16
ATOM     13  C   LIG    1       -0.550   1.445  -0.052  0.00  0.00    +0.149 C 
ATOM     14  N   LIG    1       -0.290   0.004  -0.046  0.00  0.00    -0.349 N 
ATOM     15  C   LIG    1       -0.320  -0.788  -1.143  0.00  0.00    +0.094 A 
ATOM     16  C   LIG    1       -0.029  -2.089  -0.780  0.00  0.00    +0.001 A 
ATOM     17  C   LIG    1        0.198  -2.068   0.678  0.00  0.00    +0.007 A 
ATOM     18  C   LIG    1        0.521  -3.043   1.618  0.00  0.00    +0.010 A 
ATOM     19  C   LIG    1        0.682  -2.688   2.941  0.00  0.00    +0.001 A 
ATOM     20  C   LIG    1        0.510  -1.371   3.337  0.00  0.00    +0.002 A 
ATOM     21  C   LIG    1        0.185  -0.397   2.418  0.00  0.00    +0.026 A 
ATOM     22  C   LIG    1        0.026  -0.734   1.077  0.00  0.00    +0.049 A 
ENDBRANCH   1  16
TORSDOF 1
