REMARK  Name = ZINC03896836
REMARK                            x       y       z     vdW  Elec       q    Type
REMARK                         _______ _______ _______ _____ _____    ______ ____
ROOT
ATOM      1  C   LIG    1        2.565  -2.527   4.270  0.00  0.00    +0.026 C 
ATOM      2  C   LIG    1        2.680  -1.879   5.490  0.00  0.00    +0.096 C 
ATOM      3  C   LIG    1        3.447  -2.463   6.601  0.00  0.00    +0.218 C 
ATOM      4  N   LIG    1        3.517  -1.794   7.738  0.00  0.00    -0.127 NA
ATOM      5  C   LIG    1        2.918  -0.617   7.904  0.00  0.00    +0.333 C 
ATOM      6  N   LIG    1        2.199  -0.009   6.950  0.00  0.00    -0.234 N 
ATOM      7  H   LIG    1        1.788   0.850   7.136  0.00  0.00    +0.159 HD
ATOM      8  O   LIG    1        3.030  -0.061   8.983  0.00  0.00    -0.250 OA
ATOM      9  C   LIG    1        2.043  -0.569   5.731  0.00  0.00    +0.256 C 
ATOM     10  O   LIG    1        1.395  -0.015   4.863  0.00  0.00    -0.270 OA
ENDROOT
BRANCH   1  14
ATOM     11  C   LIG    1        0.912  -0.502   0.951  0.00  0.00    +0.120 A 
ATOM     12  C   LIG    1        1.862   0.132   1.747  0.00  0.00    +0.046 A 
ATOM     13  C   LIG    1        2.400  -0.516   2.821  0.00  0.00    +0.011 A 
ATOM     14  C   LIG    1        1.993  -1.826   3.122  0.00  0.00    -0.024 A 
ATOM     15  C   LIG    1        1.034  -2.460   2.315  0.00  0.00    +0.011 A 
ATOM     16  C   LIG    1        0.500  -1.798   1.247  0.00  0.00    +0.046 A 
BRANCH  11  18
ATOM     17  C   LIG    1        0.849   1.476  -0.363  0.00  0.00    +0.277 C 
ATOM     18  O   LIG    1        0.382   0.148  -0.115  0.00  0.00    -0.495 OA
ENDBRANCH  11  18
ENDBRANCH   1  14
BRANCH   3  19
ATOM     19  O   LIG    1        4.065  -3.655   6.462  0.00  0.00    -0.493 OA
ATOM     20  H   LIG    1        4.009  -4.120   5.650  0.00  0.00    +0.294 HD
ENDBRANCH   3  19
TORSDOF 3
