REMARK  Name = ZINC03979037
REMARK                            x       y       z     vdW  Elec       q    Type
REMARK                         _______ _______ _______ _____ _____    ______ ____
ROOT
ATOM      1  C   LIG    1       -0.017   1.374   0.010  0.00  0.00    +0.001 A 
ATOM      2  C   LIG    1        1.174   2.086   0.002  0.00  0.00    +0.004 A 
ATOM      3  C   LIG    1        2.387   1.433  -0.016  0.00  0.00    +0.047 A 
ATOM      4  C   LIG    1        2.431   0.041  -0.025  0.00  0.00    +0.139 A 
ATOM      5  C   LIG    1        1.224  -0.675  -0.013  0.00  0.00    +0.065 A 
ATOM      6  C   LIG    1        1.282  -2.153  -0.006  0.00  0.00    +0.200 A 
ATOM      7  C   LIG    1        2.608  -2.743   0.279  0.00  0.00    +0.068 A 
ATOM      8  C   LIG    1        2.741  -4.099   0.574  0.00  0.00    +0.060 A 
ATOM      9  C   LIG    1        3.995  -4.618   0.841  0.00  0.00    +0.118 A 
ATOM     10  C   LIG    1        5.111  -3.788   0.814  0.00  0.00    +0.049 A 
ATOM     11  C   LIG    1        4.986  -2.448   0.521  0.00  0.00    +0.050 A 
ATOM     12  C   LIG    1        3.733  -1.905   0.247  0.00  0.00    +0.139 A 
ATOM     13  O   LIG    1        0.301  -2.840  -0.221  0.00  0.00    -0.286 OA
ATOM     14  O   LIG    1        3.618  -0.595  -0.051  0.00  0.00    -0.455 OA
ATOM     15  C   LIG    1        0.002  -0.004   0.002  0.00  0.00    +0.015 A 
ENDROOT
BRANCH   9  16
ATOM     16  O   LIG    1        4.136  -5.939   1.130  0.00  0.00    -0.507 OA
ATOM     17  H   LIG    1        4.287  -6.497   0.355  0.00  0.00    +0.292 HD
ENDBRANCH   9  16
TORSDOF 1
