REMARK  Name = ZINC03926308
REMARK                            x       y       z     vdW  Elec       q    Type
REMARK                         _______ _______ _______ _____ _____    ______ ____
ROOT
ATOM      1  C   LIG    1       -3.106  -5.219   0.018  0.00  0.00    +0.096 C 
ATOM      2  C   LIG    1       -2.879  -6.151  -1.198  0.00  0.00    +0.058 C 
ATOM      3  C   LIG    1       -3.509  -7.486  -0.728  0.00  0.00    +0.141 C 
ATOM      4  C   LIG    1       -3.138  -7.573   0.767  0.00  0.00    +0.027 C 
ATOM      5  C   LIG    1       -4.076  -6.920   1.784  0.00  0.00    +0.018 C 
ATOM      6  C   LIG    1       -2.885  -6.130   1.243  0.00  0.00    +0.024 C 
ENDROOT
BRANCH   1  10
ATOM      7  C   LIG    1       -1.187  -0.712   0.010  0.00  0.00    +0.151 A 
ATOM      8  C   LIG    1       -1.187  -2.118   0.008  0.00  0.00    +0.147 A 
ATOM      9  C   LIG    1       -2.425  -2.781   0.016  0.00  0.00    +0.167 A 
ATOM     10  N   LIG    1       -2.135  -4.122   0.012  0.00  0.00    -0.311 N 
ATOM     11  C   LIG    1       -0.777  -4.247   0.002  0.00  0.00    +0.202 A 
ATOM     12  N   LIG    1       -3.543  -2.063   0.024  0.00  0.00    -0.203 NA
ATOM     13  C   LIG    1       -3.495  -0.747   0.025  0.00  0.00    +0.195 A 
ATOM     14  I   LIG    1       -5.293   0.328   0.038  0.00  0.00    +0.001 I 
ATOM     15  N   LIG    1       -0.223  -3.070  -0.000  0.00  0.00    -0.231 NA
ATOM     16  N   LIG    1       -2.355  -0.079   0.024  0.00  0.00    -0.205 NA
BRANCH   7  18
ATOM     17  C   LIG    1       -0.018   1.461   0.010  0.00  0.00    +0.127 C 
ATOM     18  N   LIG    1        0.002  -0.004   0.002  0.00  0.00    -0.330 N 
ATOM     19  H   LIG    1        0.849  -0.478  -0.009  0.00  0.00    +0.147 HD
ENDBRANCH   7  18
ENDBRANCH   1  10
BRANCH   3  20
ATOM     20  O   LIG    1       -4.928  -7.455  -0.893  0.00  0.00    -0.283 OA
BRANCH  20  21
ATOM     21  P   LIG    1       -5.729  -8.518  -1.799  0.00  0.00    +0.473 P 
ATOM     22  O   LIG    1       -5.131  -8.525  -3.248  0.00  0.00    -0.228 OA
BRANCH  21  23
ATOM     23  O   LIG    1       -7.242  -8.117  -1.861  0.00  0.00    -0.303 OA
ATOM     24  H   LIG    1       -7.327  -7.232  -2.250  0.00  0.00    +0.222 HD
ENDBRANCH  21  23
BRANCH  21  25
ATOM     25  O   LIG    1       -5.592  -9.947  -1.171  0.00  0.00    -0.303 OA
ATOM     26  H   LIG    1       -4.655 -10.195  -1.133  0.00  0.00    +0.222 HD
ENDBRANCH  21  25
ENDBRANCH  20  21
ENDBRANCH   3  20
BRANCH   4  27
ATOM     27  C   LIG    1       -2.255  -8.743   1.206  0.00  0.00    +0.182 C 
BRANCH  27  28
ATOM     28  O   LIG    1       -2.735  -9.951   0.612  0.00  0.00    -0.286 OA
BRANCH  28  29
ATOM     29  P   LIG    1       -2.042 -11.384   0.857  0.00  0.00    +0.472 P 
ATOM     30  O   LIG    1       -1.962 -11.664   2.375  0.00  0.00    -0.228 OA
BRANCH  29  31
ATOM     31  O   LIG    1       -0.618 -11.376   0.260  0.00  0.00    -0.303 OA
ATOM     32  H   LIG    1       -0.090 -10.684   0.689  0.00  0.00    +0.222 HD
ENDBRANCH  29  31
BRANCH  29  33
ATOM     33  O   LIG    1       -2.917 -12.532   0.145  0.00  0.00    -0.303 OA
ATOM     34  H   LIG    1       -2.558 -13.424   0.252  0.00  0.00    +0.222 HD
ENDBRANCH  29  33
ENDBRANCH  28  29
ENDBRANCH  27  28
ENDBRANCH   4  27
TORSDOF 11
