REMARK  Name = ZINC03916214
REMARK                            x       y       z     vdW  Elec       q    Type
REMARK                         _______ _______ _______ _____ _____    ______ ____
ROOT
ATOM      1  C   LIG    1       -0.332  -1.346   0.773  0.00  0.00    +0.144 A 
ATOM      2  C   LIG    1        0.049  -1.304  -0.548  0.00  0.00    +0.076 A 
ATOM      3  C   LIG    1        0.509  -0.102  -1.107  0.00  0.00    +0.076 A 
ATOM      4  C   LIG    1        0.575   1.057  -0.296  0.00  0.00    +0.025 A 
ATOM      5  C   LIG    1        1.039   2.267  -0.864  0.00  0.00    +0.060 A 
ATOM      6  C   LIG    1        1.415   2.254  -2.216  0.00  0.00    +0.091 A 
ATOM      7  C   LIG    1        1.317   1.057  -2.944  0.00  0.00    +0.132 A 
ATOM      8  C   LIG    1        0.188   0.994   1.050  0.00  0.00    +0.039 A 
ATOM      9  N   LIG    1        0.883  -0.048  -2.394  0.00  0.00    -0.253 NA
ATOM     10  C   LIG    1       -0.266  -0.196   1.574  0.00  0.00    +0.077 A 
ENDROOT
BRANCH  10  11
ATOM     11  N   LIG    1       -0.658  -0.260   2.916  0.00  0.00    -0.279 N 
ATOM     12  H   LIG    1       -1.290  -0.936   3.205  0.00  0.00    +0.155 HD
ATOM     13  C   LIG    1       -0.157   0.618   3.808  0.00  0.00    +0.241 C 
ATOM     14  O   LIG    1        0.715   1.397   3.470  0.00  0.00    -0.271 OA
BRANCH  13  15
ATOM     15  C   LIG    1       -0.664   0.635   5.188  0.00  0.00    +0.061 C 
ATOM     16  C   LIG    1       -0.170   1.502   6.067  0.00  0.00    -0.040 C 
BRANCH  16  17
ATOM     17  C   LIG    1       -0.690   1.520   7.482  0.00  0.00    -0.052 C 
BRANCH  17  18
ATOM     18  N   LIG    1        0.451   1.382   8.411  0.00  0.00    +0.378 N 
ATOM     19  H   LIG    1        1.163   2.082   8.171  0.00  0.00    -0.082 HD
ATOM     20  C   LIG    1        1.043   0.033   8.287  0.00  0.00    -0.096 C 
ATOM     21  C   LIG    1        0.002   1.610   9.800  0.00  0.00    -0.096 C 
ENDBRANCH  17  18
ENDBRANCH  16  17
ENDBRANCH  13  15
ENDBRANCH  10  11
BRANCH   5  22
ATOM     22  N   LIG    1        1.120   3.422  -0.113  0.00  0.00    -0.313 N 
ATOM     23  H   LIG    1        0.310   3.846   0.213  0.00  0.00    +0.152 HD
BRANCH  22  24
ATOM     24  C   LIG    1        2.369   3.982   0.177  0.00  0.00    +0.033 A 
ATOM     25  C   LIG    1        3.472   3.159   0.366  0.00  0.00    +0.027 A 
ATOM     26  C   LIG    1        4.706   3.712   0.648  0.00  0.00    +0.049 A 
ATOM     27  C   LIG    1        4.842   5.088   0.754  0.00  0.00    +0.139 A 
ATOM     28  C   LIG    1        3.739   5.911   0.571  0.00  0.00    +0.084 A 
ATOM     29 CL   LIG    1        3.910   7.634   0.703  0.00  0.00    -0.080 Cl
ATOM     30  C   LIG    1        2.505   5.360   0.283  0.00  0.00    +0.047 A 
BRANCH  27  31
ATOM     31  O   LIG    1        6.056   5.631   1.036  0.00  0.00    -0.484 OA
BRANCH  31  32
ATOM     32  C   LIG    1        7.147   4.725   1.212  0.00  0.00    +0.284 C 
BRANCH  32  33
ATOM     33  C   LIG    1        8.402   5.503   1.517  0.00  0.00    +0.078 A 
ATOM     34  C   LIG    1        8.352   6.883   1.578  0.00  0.00    +0.027 A 
ATOM     35  C   LIG    1        9.511   7.588   1.865  0.00  0.00    +0.003 A 
ATOM     36  C   LIG    1       10.683   6.876   2.069  0.00  0.00    +0.020 A 
ATOM     37  C   LIG    1       10.657   5.497   1.986  0.00  0.00    +0.111 A 
ATOM     38  N   LIG    1        9.535   4.859   1.716  0.00  0.00    -0.256 NA
ENDBRANCH  32  33
ENDBRANCH  31  32
ENDBRANCH  27  31
ENDBRANCH  22  24
ENDBRANCH   5  22
BRANCH   6  39
ATOM     39  C   LIG    1        1.892   3.448  -2.846  0.00  0.00    +0.103 C 
ATOM     40  N   LIG    1        2.270   4.395  -3.346  0.00  0.00    -0.191 NA
ENDBRANCH   6  39
BRANCH   1  41
ATOM     41  O   LIG    1       -0.776  -2.513   1.308  0.00  0.00    -0.490 OA
BRANCH  41  43
ATOM     42  C   LIG    1       -1.343  -4.861   1.214  0.00  0.00    +0.048 C 
ATOM     43  C   LIG    1       -0.821  -3.648   0.441  0.00  0.00    +0.226 C 
ENDBRANCH  41  43
ENDBRANCH   1  41
TORSDOF 12
