REMARK  Name = ZINC04096261
REMARK                            x       y       z     vdW  Elec       q    Type
REMARK                         _______ _______ _______ _____ _____    ______ ____
ROOT
ATOM      1  C   LIG    1        2.698   3.419   1.175  0.00  0.00    +0.165 C 
ENDROOT
BRANCH   1   2
ATOM      2  C   LIG    1        3.364   4.765   1.042  0.00  0.00    +0.237 C 
ATOM      3  N   LIG    1        4.341   4.946   0.132  0.00  0.00    -0.288 N 
ATOM      4  C   LIG    1        4.782   3.953  -0.865  0.00  0.00    +0.109 C 
ATOM      5  C   LIG    1        5.417   4.790  -2.004  0.00  0.00    +0.021 C 
ATOM      6  C   LIG    1        6.114   5.924  -1.206  0.00  0.00    +0.033 C 
ATOM      7  C   LIG    1        5.141   6.169  -0.035  0.00  0.00    +0.162 C 
ATOM      8  O   LIG    1        3.019   5.684   1.753  0.00  0.00    -0.274 OA
BRANCH   7   9
ATOM      9  C   LIG    1        4.237   7.333  -0.350  0.00  0.00    +0.231 C 
ATOM     10  N   LIG    1        4.761   8.559  -0.544  0.00  0.00    -0.328 N 
ATOM     11  H   LIG    1        4.179   9.309  -0.747  0.00  0.00    +0.145 HD
ATOM     12  H   LIG    1        5.719   8.693  -0.480  0.00  0.00    +0.145 HD
ATOM     13  O   LIG    1        3.038   7.165  -0.430  0.00  0.00    -0.274 OA
ENDBRANCH   7   9
ENDBRANCH   1   2
BRANCH   1  14
ATOM     14  N   LIG    1        2.189   3.259   2.539  0.00  0.00    -0.302 N 
ATOM     15  H   LIG    1        1.974   4.041   3.071  0.00  0.00    +0.150 HD
ATOM     16  C   LIG    1        2.020   2.025   3.055  0.00  0.00    +0.234 C 
ATOM     17  O   LIG    1        2.289   1.048   2.389  0.00  0.00    -0.274 OA
BRANCH  16  18
ATOM     18  C   LIG    1        1.496   1.860   4.458  0.00  0.00    +0.159 C 
ATOM     19  C   LIG    1        2.638   2.048   5.481  0.00  0.00    +0.041 C 
ATOM     20  C   LIG    1        3.109   0.591   5.698  0.00  0.00    +0.098 C 
ATOM     21  C   LIG    1        1.898  -0.246   5.350  0.00  0.00    +0.214 C 
ATOM     22  O   LIG    1        1.751  -1.412   5.649  0.00  0.00    -0.276 OA
ATOM     23  N   LIG    1        1.008   0.491   4.660  0.00  0.00    -0.304 N 
ATOM     24  H   LIG    1        0.154   0.162   4.339  0.00  0.00    +0.149 HD
ENDBRANCH  16  18
ENDBRANCH   1  14
BRANCH   1  25
ATOM     25  C   LIG    1        1.538   3.323   0.183  0.00  0.00    +0.088 C 
BRANCH  25  27
ATOM     26  C   LIG    1       -0.300   1.580   0.411  0.00  0.00    +0.107 A 
ATOM     27  C   LIG    1        0.984   1.922   0.191  0.00  0.00    +0.061 A 
ATOM     28  N   LIG    1        1.683   0.796  -0.018  0.00  0.00    -0.241 NA
ATOM     29  C   LIG    1        0.881  -0.230   0.063  0.00  0.00    +0.196 A 
ATOM     30  N   LIG    1       -0.366   0.215   0.330  0.00  0.00    -0.351 N 
ATOM     31  H   LIG    1       -1.160  -0.331   0.443  0.00  0.00    +0.166 HD
ENDBRANCH  25  27
ENDBRANCH   1  25
TORSDOF 6
