REMARK  Name = ZINC03995796
REMARK                            x       y       z     vdW  Elec       q    Type
REMARK                         _______ _______ _______ _____ _____    ______ ____
ROOT
ATOM      1  C   LIG    1       -3.014  -2.361   0.018  0.00  0.00    +0.078 C 
ATOM      2  C   LIG    1       -3.522  -2.441   1.456  0.00  0.00    +0.057 C 
ATOM      3  C   LIG    1       -4.843  -3.164   1.512  0.00  0.00    -0.042 A 
ATOM      4  C   LIG    1       -5.621  -3.002   2.651  0.00  0.00    +0.004 A 
ATOM      5  C   LIG    1       -6.838  -3.642   2.765  0.00  0.00    +0.000 A 
ATOM      6  C   LIG    1       -7.287  -4.452   1.739  0.00  0.00    +0.000 A 
ATOM      7  C   LIG    1       -6.516  -4.612   0.606  0.00  0.00    +0.004 A 
ATOM      8  C   LIG    1       -5.292  -3.966   0.487  0.00  0.00    -0.037 A 
ATOM      9  C   LIG    1       -4.510  -4.173  -0.783  0.00  0.00    +0.051 C 
ATOM     10  C   LIG    1       -3.050  -3.769  -0.587  0.00  0.00    +0.035 C 
ENDROOT
BRANCH   9  11
ATOM     11  C   LIG    1       -4.574  -5.627  -1.174  0.00  0.00    -0.040 A 
ATOM     12  C   LIG    1       -4.092  -6.597  -0.314  0.00  0.00    +0.004 A 
ATOM     13  C   LIG    1       -4.151  -7.930  -0.673  0.00  0.00    +0.000 A 
ATOM     14  C   LIG    1       -4.692  -8.295  -1.892  0.00  0.00    +0.000 A 
ATOM     15  C   LIG    1       -5.174  -7.325  -2.752  0.00  0.00    +0.000 A 
ATOM     16  C   LIG    1       -5.119  -5.992  -2.391  0.00  0.00    +0.004 A 
ENDBRANCH   9  11
BRANCH   1  18
ATOM     17  C   LIG    1       -1.412  -0.526   0.013  0.00  0.00    +0.213 C 
ATOM     18  N   LIG    1       -1.640  -1.854   0.008  0.00  0.00    -0.312 N 
ATOM     19  H   LIG    1       -0.894  -2.474  -0.003  0.00  0.00    +0.149 HD
ATOM     20  O   LIG    1       -2.344   0.250   0.026  0.00  0.00    -0.276 OA
BRANCH  17  22
ATOM     21  C   LIG    1       -0.019   1.526   0.010  0.00  0.00    +0.013 C 
ATOM     22  C   LIG    1        0.002  -0.004   0.002  0.00  0.00    +0.092 C 
ENDBRANCH  17  22
ENDBRANCH   1  18
TORSDOF 3
