REMARK  Name = ZINC03932545
REMARK                            x       y       z     vdW  Elec       q    Type
REMARK                         _______ _______ _______ _____ _____    ______ ____
ROOT
ATOM      1  C   LIG    1        0.567   1.435   0.277  0.00  0.00    +0.016 C 
ATOM      2  C   LIG    1        0.680  -0.090   0.261  0.00  0.00    -0.004 C 
ATOM      3  C   LIG    1       -0.680  -0.682   0.602  0.00  0.00    +0.019 C 
ATOM      4  C   LIG    1       -0.609  -1.691   1.738  0.00  0.00    +0.074 C 
ATOM      5  C   LIG    1        0.116  -1.116   2.930  0.00  0.00    +0.094 C 
ATOM      6  C   LIG    1        1.300  -0.512   2.698  0.00  0.00    +0.044 C 
ATOM      7  C   LIG    1        1.078  -0.536  -1.151  0.00  0.00    +0.003 C 
ATOM      8  C   LIG    1        0.079   0.051  -2.144  0.00  0.00    +0.005 C 
ATOM      9  C   LIG    1        0.507  -0.165  -3.604  0.00  0.00    +0.011 C 
ATOM     10  C   LIG    1        1.883   0.447  -3.748  0.00  0.00    -0.007 C 
ATOM     11  C   LIG    1        1.863   1.882  -3.218  0.00  0.00    +0.016 C 
ATOM     12  C   LIG    1        2.864  -0.408  -2.852  0.00  0.00    +0.006 C 
ATOM     13  C   LIG    1        4.206   0.117  -3.380  0.00  0.00    +0.032 C 
ATOM     14  C   LIG    1        3.918   0.259  -4.874  0.00  0.00    -0.026 C 
ATOM     15  C   LIG    1        2.549   0.418  -5.084  0.00  0.00    -0.063 C 
ATOM     16  C   LIG    1        2.526  -0.077  -1.410  0.00  0.00    +0.001 C 
ATOM     17  C   LIG    1        3.454  -0.871  -0.484  0.00  0.00    +0.031 C 
ATOM     18  C   LIG    1        2.949  -0.842   0.925  0.00  0.00    -0.022 C 
ATOM     19  C   LIG    1        1.721  -0.504   1.260  0.00  0.00    -0.042 C 
ENDROOT
BRANCH  15  20
ATOM     20  C   LIG    1        1.868   0.545  -6.389  0.00  0.00    +0.029 C 
ATOM     21  C   LIG    1        1.223   1.736  -6.743  0.00  0.00    +0.010 C 
ATOM     22  C   LIG    1        0.601   1.803  -7.977  0.00  0.00    +0.016 C 
ATOM     23  C   LIG    1        0.635   0.703  -8.814  0.00  0.00    +0.081 C 
ATOM     24  N   LIG    1        1.251  -0.407  -8.454  0.00  0.00    -0.315 NA
ATOM     25  H   LIG    1        1.257  -1.161  -9.064  0.00  0.00    +0.122 HD
ATOM     26  C   LIG    1        1.863  -0.518  -7.293  0.00  0.00    +0.088 C 
ENDBRANCH  15  20
BRANCH   5  27
ATOM     27  O   LIG    1       -0.400  -1.203   4.180  0.00  0.00    -0.511 OA
ATOM     28  H   LIG    1        0.153  -0.799   4.863  0.00  0.00    +0.292 HD
ENDBRANCH   5  27
TORSDOF 2
