REMARK  Name = ZINC03874404
REMARK                            x       y       z     vdW  Elec       q    Type
REMARK                         _______ _______ _______ _____ _____    ______ ____
ROOT
ATOM      1  C   LIG    1        0.062   1.032  -1.392  0.00  0.00    +0.036 C 
ENDROOT
BRANCH   1   2
ATOM      2  C   LIG    1        0.545   0.699  -2.805  0.00  0.00    +0.195 C 
BRANCH   2   3
ATOM      3  N   LIG    1       -0.353   1.315  -3.785  0.00  0.00    -0.279 N 
ATOM      4  H   LIG    1       -1.113   1.837  -3.486  0.00  0.00    +0.258 HD
BRANCH   3   8
ATOM      5  C   LIG    1       -0.771   1.598  -7.462  0.00  0.00    +0.239 C 
ATOM      6  N   LIG    1       -0.971   1.737  -5.979  0.00  0.00    -0.281 N 
ATOM      7  H   LIG    1       -1.763   2.281  -5.616  0.00  0.00    +0.257 HD
ATOM      8  C   LIG    1       -0.117   1.152  -5.130  0.00  0.00    +0.343 C 
BRANCH   8   9
ATOM      9  N   LIG    1        0.960   0.411  -5.555  0.00  0.00    -0.292 N 
ATOM     10  H   LIG    1        1.126   0.296  -6.503  0.00  0.00    +0.255 HD
ATOM     11  H   LIG    1        1.554   0.003  -4.906  0.00  0.00    +0.255 HD
ENDBRANCH   8   9
ENDBRANCH   3   8
ENDBRANCH   2   3
ENDBRANCH   1   2
BRANCH   1  12
ATOM     12  C   LIG    1        1.000   0.390  -0.368  0.00  0.00    -0.002 C 
BRANCH  12  13
ATOM     13  CA  LIG    1        0.517   0.723   1.045  0.00  0.00    +0.036 C 
BRANCH  13  14
ATOM     14  N   LIG    1       -0.797   0.108   1.298  0.00  0.00    +0.387 N 
ATOM     15  H1  LIG    1       -1.087   0.315   2.261  0.00  0.00    -0.089 HD
ATOM     16  H2  LIG    1       -0.739  -0.902   1.179  0.00  0.00    -0.089 HD
ATOM     17  H3  LIG    1       -1.490   0.486   0.654  0.00  0.00    -0.089 HD
ENDBRANCH  13  14
BRANCH  13  18
ATOM     18  C   LIG    1        1.507   0.195   2.052  0.00  0.00    +0.290 C 
ATOM     19  O   LIG    1        1.288  -0.846   2.626  0.00  0.00    -0.253 OA
BRANCH  18  20
ATOM     20  OXT LIG    1        2.632   0.880   2.310  0.00  0.00    -0.482 OA
ATOM     21  HXT LIG    1        2.802   1.687   1.865  0.00  0.00    +0.295 HD
ENDBRANCH  18  20
ENDBRANCH  13  18
ENDBRANCH  12  13
ENDBRANCH   1  12
TORSDOF 9
