REMARK  Name = ZINC03974230
REMARK                            x       y       z     vdW  Elec       q    Type
REMARK                         _______ _______ _______ _____ _____    ______ ____
ROOT
ATOM      1  C   LIG    1        3.737  -1.022   0.176  0.00  0.00    +0.163 C 
ATOM      2  C   LIG    1        4.009  -1.142  -1.339  0.00  0.00    +0.125 C 
ATOM      3  C   LIG    1        4.815  -2.466  -1.471  0.00  0.00    +0.138 C 
ATOM      4  C   LIG    1        4.931  -2.966  -0.022  0.00  0.00    +0.206 C 
ATOM      5  C   LIG    1        6.254  -2.580   0.577  0.00  0.00    +0.204 C 
ATOM      6  C   LIG    1        6.929  -3.832   0.972  0.00  0.00    +0.031 A 
ATOM      7  C   LIG    1        8.172  -4.047   1.571  0.00  0.00    +0.012 A 
ATOM      8  C   LIG    1        8.594  -5.333   1.848  0.00  0.00    +0.001 A 
ATOM      9  C   LIG    1        7.791  -6.417   1.537  0.00  0.00    +0.001 A 
ATOM     10  C   LIG    1        6.557  -6.226   0.946  0.00  0.00    +0.012 A 
ATOM     11  C   LIG    1        6.111  -4.935   0.656  0.00  0.00    +0.031 A 
ATOM     12  O   LIG    1        6.685  -1.455   0.711  0.00  0.00    -0.288 OA
ATOM     13  C   LIG    1        4.856  -4.466   0.038  0.00  0.00    +0.204 C 
ATOM     14  O   LIG    1        3.939  -5.159  -0.348  0.00  0.00    -0.288 OA
ATOM     15  C   LIG    1        3.884  -3.362  -2.257  0.00  0.00    +0.234 C 
ATOM     16  N   LIG    1        2.752  -2.701  -2.526  0.00  0.00    -0.210 N 
ATOM     17  O   LIG    1        4.126  -4.502  -2.591  0.00  0.00    -0.274 OA
ATOM     18  C   LIG    1        2.712  -1.431  -2.058  0.00  0.00    +0.233 C 
ATOM     19  O   LIG    1        1.793  -0.650  -2.185  0.00  0.00    -0.274 OA
ATOM     20  O   LIG    1        3.820  -2.373   0.683  0.00  0.00    -0.348 OA
ENDROOT
BRANCH  16  21
ATOM     21  C   LIG    1        1.692  -3.275  -3.243  0.00  0.00    +0.045 A 
ATOM     22  C   LIG    1        0.963  -4.319  -2.690  0.00  0.00    +0.025 A 
ATOM     23  C   LIG    1       -0.081  -4.882  -3.397  0.00  0.00    +0.023 A 
ATOM     24  C   LIG    1       -0.402  -4.406  -4.656  0.00  0.00    +0.059 A 
ATOM     25 CL   LIG    1       -1.715  -5.116  -5.543  0.00  0.00    -0.082 Cl
ATOM     26  C   LIG    1        0.323  -3.365  -5.210  0.00  0.00    +0.061 A 
ATOM     27 CL   LIG    1       -0.081  -2.770  -6.790  0.00  0.00    -0.082 Cl
ATOM     28  C   LIG    1        1.366  -2.795  -4.504  0.00  0.00    +0.045 A 
ENDBRANCH  16  21
BRANCH   1  32
ATOM     29  C   LIG    1       -0.161   0.584   0.858  0.00  0.00    +0.000 A 
ATOM     30  C   LIG    1        0.942   1.417   0.875  0.00  0.00    +0.000 A 
ATOM     31  C   LIG    1        2.204   0.897   0.655  0.00  0.00    +0.006 A 
ATOM     32  C   LIG    1        2.362  -0.456   0.417  0.00  0.00    -0.018 A 
ATOM     33  C   LIG    1        1.259  -1.288   0.401  0.00  0.00    +0.006 A 
ATOM     34  C   LIG    1       -0.003  -0.768   0.621  0.00  0.00    +0.000 A 
ENDBRANCH   1  32
TORSDOF 2
