REMARK  Name = ZINC03874586
REMARK                            x       y       z     vdW  Elec       q    Type
REMARK                         _______ _______ _______ _____ _____    ______ ____
ROOT
ATOM      1  C   LIG    1        7.045   1.180  -0.443  0.00  0.00    +0.001 A 
ATOM      2  C   LIG    1        7.642   2.428  -0.519  0.00  0.00    +0.002 A 
ATOM      3  C   LIG    1        6.879   3.576  -0.464  0.00  0.00    +0.024 A 
ATOM      4  C   LIG    1        5.497   3.491  -0.331  0.00  0.00    +0.042 A 
ATOM      5  C   LIG    1        4.897   2.227  -0.255  0.00  0.00    +0.008 A 
ATOM      6  C   LIG    1        3.443   2.464  -0.121  0.00  0.00    +0.048 C 
ATOM      7  C   LIG    1        3.290   3.924  -0.136  0.00  0.00    +0.249 C 
ATOM      8  O   LIG    1        2.240   4.535  -0.053  0.00  0.00    -0.270 OA
ATOM      9  C   LIG    1        2.443   1.516  -0.013  0.00  0.00    +0.039 C 
ATOM     10  N   LIG    1        4.513   4.469  -0.253  0.00  0.00    -0.281 N 
ATOM     11  H   LIG    1        4.686   5.423  -0.284  0.00  0.00    +0.155 HD
ATOM     12  C   LIG    1        5.675   1.075  -0.311  0.00  0.00    +0.010 A 
ENDROOT
BRANCH   9  13
ATOM     13  C   LIG    1        1.112   1.918   0.219  0.00  0.00    +0.040 A 
ATOM     14  C   LIG    1        0.133   2.110  -0.744  0.00  0.00    +0.027 A 
ATOM     15  C   LIG    1       -1.026   2.509  -0.075  0.00  0.00    +0.019 A 
ATOM     16  C   LIG    1       -0.751   2.546   1.252  0.00  0.00    +0.083 A 
ATOM     17  N   LIG    1        0.544   2.193   1.445  0.00  0.00    -0.361 N 
ATOM     18  H   LIG    1        0.996   2.142   2.302  0.00  0.00    +0.165 HD
ENDBRANCH   9  13
TORSDOF 1
