REMARK  Name = ZINC03951093
REMARK                            x       y       z     vdW  Elec       q    Type
REMARK                         _______ _______ _______ _____ _____    ______ ____
ROOT
ATOM      1  C   LIG    1       -0.988   2.171  -0.298  0.00  0.00    +0.042 C 
ATOM      2  C   LIG    1       -1.250   2.339   1.200  0.00  0.00    +0.113 C 
ENDROOT
BRANCH   2   3
ATOM      3  N   LIG    1       -0.160   1.721   1.959  0.00  0.00    -0.285 N 
ATOM      4  H   LIG    1        0.376   2.259   2.562  0.00  0.00    +0.151 HD
ATOM      5  C   LIG    1        0.097   0.406   1.819  0.00  0.00    +0.305 C 
ATOM      6  N   LIG    1        1.100  -0.163   2.518  0.00  0.00    -0.269 N 
ATOM      7  H   LIG    1        1.584   0.355   3.180  0.00  0.00    +0.156 HD
ATOM      8  O   LIG    1       -0.575  -0.268   1.063  0.00  0.00    -0.252 OA
BRANCH   6   9
ATOM      9  C   LIG    1        1.444  -1.499   2.287  0.00  0.00    +0.035 A 
ATOM     10  C   LIG    1        1.967  -2.271   3.316  0.00  0.00    +0.025 A 
ATOM     11  C   LIG    1        2.301  -3.591   3.086  0.00  0.00    +0.034 A 
ATOM     12  C   LIG    1        2.124  -4.142   1.830  0.00  0.00    +0.122 A 
ATOM     13  C   LIG    1        1.608  -3.375   0.801  0.00  0.00    +0.034 A 
ATOM     14  C   LIG    1        1.268  -2.055   1.026  0.00  0.00    +0.025 A 
BRANCH  12  15
ATOM     15  N   LIG    1        2.488  -5.556   1.585  0.00  0.00    +0.006 N 
ATOM     16  O   LIG    1        2.332  -6.042   0.479  0.00  0.00    -0.130 OA
BRANCH  15  17
ATOM     17  O   LIG    1        2.942  -6.233   2.490  0.00  0.00    -0.396 OA
ATOM     18  H   LIG    1        3.062  -5.859   3.341  0.00  0.00    +0.329 HD
ENDBRANCH  15  17
ENDBRANCH  12  15
ENDBRANCH   6   9
ENDBRANCH   2   3
BRANCH   2  19
ATOM     19  C   LIG    1       -1.327   3.806   1.535  0.00  0.00    +0.237 C 
ATOM     20  N   LIG    1       -1.026   4.230   2.778  0.00  0.00    -0.313 N 
ATOM     21  H   LIG    1       -0.694   3.602   3.438  0.00  0.00    +0.149 HD
ATOM     22  O   LIG    1       -1.659   4.606   0.685  0.00  0.00    -0.273 OA
BRANCH  20  23
ATOM     23  C   LIG    1       -1.202   5.641   3.134  0.00  0.00    +0.117 C 
BRANCH  23  24
ATOM     24  C   LIG    1        0.104   6.397   2.882  0.00  0.00    +0.028 C 
ATOM     25  C   LIG    1        1.228   5.761   3.703  0.00  0.00    +0.014 C 
ATOM     26  C   LIG    1        0.876   5.832   5.190  0.00  0.00    +0.001 C 
ATOM     27  C   LIG    1        0.707   7.295   5.605  0.00  0.00    +0.000 C 
ATOM     28  C   LIG    1       -0.417   7.931   4.784  0.00  0.00    +0.001 C 
ATOM     29  C   LIG    1       -0.066   7.860   3.297  0.00  0.00    +0.014 C 
BRANCH  24  30
ATOM     30  C   LIG    1        0.450   6.327   1.417  0.00  0.00    +0.049 A 
ATOM     31  C   LIG    1        0.970   5.157   0.894  0.00  0.00    +0.027 A 
ATOM     32  C   LIG    1        1.281   5.099  -0.455  0.00  0.00    +0.049 A 
ATOM     33  C   LIG    1        1.065   6.232  -1.233  0.00  0.00    +0.138 A 
ATOM     34  C   LIG    1        0.546   7.371  -0.635  0.00  0.00    +0.156 A 
ATOM     35  N   LIG    1        0.258   7.384   0.652  0.00  0.00    -0.256 NA
BRANCH  33  36
ATOM     36  O   LIG    1        1.360   6.224  -2.559  0.00  0.00    -0.494 OA
ATOM     37  C   LIG    1        1.109   7.428  -3.287  0.00  0.00    +0.277 C 
ENDBRANCH  33  36
ENDBRANCH  24  30
ENDBRANCH  23  24
ENDBRANCH  20  23
ENDBRANCH   2  19
BRANCH   2  38
ATOM     38  C   LIG    1       -2.573   1.663   1.565  0.00  0.00    +0.072 C 
BRANCH  38  39
ATOM     39  C   LIG    1       -2.772   1.721   3.058  0.00  0.00    -0.020 A 
ATOM     40  C   LIG    1       -2.405   0.786   3.949  0.00  0.00    +0.087 A 
ATOM     41  N   LIG    1       -2.748   1.186   5.212  0.00  0.00    -0.360 N 
ATOM     42  C   LIG    1       -3.359   2.419   5.163  0.00  0.00    +0.047 A 
ATOM     43  C   LIG    1       -3.891   3.264   6.132  0.00  0.00    +0.026 A 
ATOM     44  C   LIG    1       -4.438   4.473   5.761  0.00  0.00    +0.002 A 
ATOM     45  C   LIG    1       -4.474   4.853   4.426  0.00  0.00    +0.001 A 
ATOM     46  C   LIG    1       -3.961   4.037   3.458  0.00  0.00    +0.010 A 
ATOM     47  H   LIG    1       -2.584   0.677   6.022  0.00  0.00    +0.165 HD
ATOM     48  C   LIG    1       -3.396   2.811   3.812  0.00  0.00    +0.003 A 
ENDBRANCH  38  39
ENDBRANCH   2  38
TORSDOF 11
