REMARK  Name = ZINC03921860
REMARK                            x       y       z     vdW  Elec       q    Type
REMARK                         _______ _______ _______ _____ _____    ______ ____
ROOT
ATOM      1  C   LIG    1        1.818  -8.079 -13.710  0.00  0.00    -0.000 C 
ENDROOT
BRANCH   1   2
ATOM      2  C   LIG    1        2.756  -8.129 -14.917  0.00  0.00    -0.000 C 
BRANCH   2   3
ATOM      3  C   LIG    1        2.116  -8.966 -16.026  0.00  0.00    -0.002 C 
BRANCH   3   4
ATOM      4  C   LIG    1        3.054  -9.016 -17.234  0.00  0.00    -0.019 C 
BRANCH   4   5
ATOM      5  C   LIG    1        2.415  -9.854 -18.343  0.00  0.00    -0.083 C 
BRANCH   5   6
ATOM      6  N   LIG    1        3.316  -9.901 -19.502  0.00  0.00    +0.379 N 
ATOM      7  H   LIG    1        4.193 -10.317 -19.230  0.00  0.00    -0.086 HD
ATOM      8  H   LIG    1        3.478  -8.964 -19.840  0.00  0.00    -0.086 HD
BRANCH   6   9
ATOM      9  C   LIG    1        2.701 -10.705 -20.567  0.00  0.00    -0.083 C 
BRANCH   9  10
ATOM     10  C   LIG    1        3.639 -10.754 -21.775  0.00  0.00    -0.019 C 
BRANCH  10  11
ATOM     11  C   LIG    1        2.999 -11.592 -22.884  0.00  0.00    -0.002 C 
BRANCH  11  12
ATOM     12  C   LIG    1        3.938 -11.641 -24.091  0.00  0.00    -0.002 C 
BRANCH  12  13
ATOM     13  C   LIG    1        3.298 -12.479 -25.200  0.00  0.00    -0.019 C 
BRANCH  13  14
ATOM     14  C   LIG    1        4.236 -12.528 -26.408  0.00  0.00    -0.082 C 
BRANCH  14  15
ATOM     15  N   LIG    1        3.622 -13.332 -27.473  0.00  0.00    +0.382 N 
ATOM     16  H   LIG    1        2.744 -12.916 -27.745  0.00  0.00    -0.085 HD
ATOM     17  H   LIG    1        3.459 -14.269 -27.135  0.00  0.00    -0.085 HD
BRANCH  15  18
ATOM     18  C   LIG    1        4.522 -13.380 -28.632  0.00  0.00    -0.043 C 
BRANCH  18  19
ATOM     19  C   LIG    1        3.892 -14.205 -29.724  0.00  0.00    -0.023 A 
ATOM     20  C   LIG    1        4.276 -15.520 -29.906  0.00  0.00    +0.005 A 
ATOM     21  C   LIG    1        3.699 -16.277 -30.909  0.00  0.00    +0.000 A 
ATOM     22  C   LIG    1        2.736 -15.721 -31.731  0.00  0.00    +0.004 A 
ATOM     23  C   LIG    1        2.348 -14.408 -31.553  0.00  0.00    +0.046 A 
ATOM     24  C   LIG    1        2.922 -13.647 -30.544  0.00  0.00    +0.121 A 
BRANCH  24  25
ATOM     25  O   LIG    1        2.539 -12.356 -30.364  0.00  0.00    -0.495 OA
ATOM     26  C   LIG    1        1.536 -11.848 -31.245  0.00  0.00    +0.277 C 
ENDBRANCH  24  25
ENDBRANCH  18  19
ENDBRANCH  15  18
ENDBRANCH  14  15
ENDBRANCH  13  14
ENDBRANCH  12  13
ENDBRANCH  11  12
ENDBRANCH  10  11
ENDBRANCH   9  10
ENDBRANCH   6   9
ENDBRANCH   5   6
ENDBRANCH   4   5
ENDBRANCH   3   4
ENDBRANCH   2   3
ENDBRANCH   1   2
BRANCH   1  27
ATOM     27  C   LIG    1        2.458  -7.242 -12.601  0.00  0.00    -0.002 C 
BRANCH  27  28
ATOM     28  C   LIG    1        1.520  -7.193 -11.393  0.00  0.00    -0.019 C 
BRANCH  28  29
ATOM     29  C   LIG    1        2.160  -6.355 -10.284  0.00  0.00    -0.083 C 
BRANCH  29  30
ATOM     30  N   LIG    1        1.259  -6.308  -9.125  0.00  0.00    +0.379 N 
ATOM     31  H   LIG    1        0.381  -5.891  -9.397  0.00  0.00    -0.086 HD
ATOM     32  H   LIG    1        1.096  -7.244  -8.787  0.00  0.00    -0.086 HD
BRANCH  30  33
ATOM     33  C   LIG    1        1.873  -5.503  -8.060  0.00  0.00    -0.083 C 
BRANCH  33  34
ATOM     34  C   LIG    1        0.935  -5.454  -6.852  0.00  0.00    -0.019 C 
BRANCH  34  35
ATOM     35  C   LIG    1        1.575  -4.616  -5.743  0.00  0.00    -0.002 C 
BRANCH  35  36
ATOM     36  C   LIG    1        0.637  -4.567  -4.536  0.00  0.00    -0.002 C 
BRANCH  36  37
ATOM     37  C   LIG    1        1.276  -3.729  -3.427  0.00  0.00    -0.019 C 
BRANCH  37  38
ATOM     38  C   LIG    1        0.339  -3.680  -2.219  0.00  0.00    -0.082 C 
BRANCH  38  39
ATOM     39  N   LIG    1        0.953  -2.876  -1.154  0.00  0.00    +0.382 N 
ATOM     40  H   LIG    1        1.830  -3.292  -0.882  0.00  0.00    -0.085 HD
ATOM     41  H   LIG    1        1.116  -1.939  -1.492  0.00  0.00    -0.085 HD
BRANCH  39  42
ATOM     42  C   LIG    1        0.052  -2.828   0.005  0.00  0.00    -0.043 C 
BRANCH  42  48
ATOM     43  C   LIG    1        0.626  -0.618   1.042  0.00  0.00    +0.121 A 
ATOM     44  C   LIG    1        1.202   0.139   2.051  0.00  0.00    +0.046 A 
ATOM     45  C   LIG    1        1.835  -0.488   3.107  0.00  0.00    +0.004 A 
ATOM     46  C   LIG    1        1.895  -1.869   3.158  0.00  0.00    +0.000 A 
ATOM     47  C   LIG    1        1.321  -2.625   2.153  0.00  0.00    +0.005 A 
ATOM     48  C   LIG    1        0.682  -2.003   1.097  0.00  0.00    -0.023 A 
BRANCH  43  50
ATOM     49  C   LIG    1       -0.017   1.425   0.010  0.00  0.00    +0.277 C 
ATOM     50  O   LIG    1        0.002  -0.004   0.002  0.00  0.00    -0.495 OA
ENDBRANCH  43  50
ENDBRANCH  42  48
ENDBRANCH  39  42
ENDBRANCH  38  39
ENDBRANCH  37  38
ENDBRANCH  36  37
ENDBRANCH  35  36
ENDBRANCH  34  35
ENDBRANCH  33  34
ENDBRANCH  30  33
ENDBRANCH  29  30
ENDBRANCH  28  29
ENDBRANCH  27  28
ENDBRANCH   1  27
TORSDOF 29
