REMARK  Name = ZINC03873889
REMARK                            x       y       z     vdW  Elec       q    Type
REMARK                         _______ _______ _______ _____ _____    ______ ____
ROOT
ATOM      1  C   LIG    1        2.071  -4.538  -3.829  0.00  0.00    -0.016 A 
ATOM      2  C   LIG    1        3.442  -4.656  -3.958  0.00  0.00    +0.006 A 
ATOM      3  C   LIG    1        3.991  -5.102  -5.145  0.00  0.00    +0.004 A 
ATOM      4  C   LIG    1        3.170  -5.432  -6.207  0.00  0.00    +0.045 A 
ATOM      5  C   LIG    1        1.794  -5.314  -6.079  0.00  0.00    +0.121 A 
ATOM      6  C   LIG    1        1.245  -4.872  -4.884  0.00  0.00    +0.051 A 
ENDROOT
BRANCH   1   7
ATOM      7  C   LIG    1        1.476  -4.051  -2.532  0.00  0.00    +0.145 C 
BRANCH   7   8
ATOM      8  O   LIG    1        2.265  -4.522  -1.439  0.00  0.00    -0.387 OA
ATOM      9  H   LIG    1        3.185  -4.224  -1.460  0.00  0.00    +0.210 HD
ENDBRANCH   7   8
BRANCH   7  10
ATOM     10  C   LIG    1        1.455  -2.521  -2.524  0.00  0.00    +0.036 C 
BRANCH  10  11
ATOM     11  C   LIG    1        0.739  -2.027  -1.265  0.00  0.00    +0.003 C 
BRANCH  11  12
ATOM     12  C   LIG    1        0.718  -0.497  -1.257  0.00  0.00    -0.000 C 
BRANCH  12  14
ATOM     13  C   LIG    1       -0.019   1.526   0.010  0.00  0.00    +0.004 C 
ATOM     14  C   LIG    1        0.002  -0.004   0.002  0.00  0.00    -0.003 C 
ENDBRANCH  12  14
ENDBRANCH  11  12
ENDBRANCH  10  11
ENDBRANCH   7  10
ENDBRANCH   1   7
BRANCH   5  15
ATOM     15  O   LIG    1        0.984  -5.638  -7.122  0.00  0.00    -0.486 OA
BRANCH  15  16
ATOM     16  C   LIG    1        1.618  -6.092  -8.319  0.00  0.00    +0.284 C 
BRANCH  16  17
ATOM     17  C   LIG    1        0.569  -6.401  -9.357  0.00  0.00    +0.079 A 
ATOM     18  C   LIG    1       -0.774  -6.212  -9.040  0.00  0.00    +0.027 A 
ATOM     19  C   LIG    1       -1.739  -6.487  -9.967  0.00  0.00    +0.012 A 
ATOM     20  C   LIG    1       -1.331  -6.958 -11.229  0.00  0.00    +0.000 A 
ATOM     21  C   LIG    1       -2.264  -7.261 -12.233  0.00  0.00    +0.010 A 
ATOM     22  C   LIG    1       -1.830  -7.714 -13.442  0.00  0.00    +0.001 A 
ATOM     23  C   LIG    1       -0.470  -7.881 -13.696  0.00  0.00    +0.002 A 
ATOM     24  C   LIG    1        0.462  -7.598 -12.746  0.00  0.00    +0.028 A 
ATOM     25  C   LIG    1        0.052  -7.127 -11.486  0.00  0.00    +0.071 A 
ATOM     26  N   LIG    1        0.946  -6.835 -10.535  0.00  0.00    -0.248 NA
ENDBRANCH  16  17
ENDBRANCH  15  16
ENDBRANCH   5  15
TORSDOF 9
