REMARK  Name = ZINC04058072
REMARK                            x       y       z     vdW  Elec       q    Type
REMARK                         _______ _______ _______ _____ _____    ______ ____
ROOT
ATOM      1  N   LIG    1       -1.712  -1.041  -1.368  0.00  0.00    -0.311 N 
ATOM      2  H   LIG    1       -1.182  -0.707  -2.109  0.00  0.00    +0.149 HD
ATOM      3  C   LIG    1       -2.843  -1.734  -1.607  0.00  0.00    +0.219 C 
ATOM      4  O   LIG    1       -3.505  -2.151  -0.680  0.00  0.00    -0.275 OA
ENDROOT
BRANCH   3   5
ATOM      5  C   LIG    1       -3.285  -1.989  -3.025  0.00  0.00    +0.048 C 
ATOM      6  C   LIG    1       -3.512  -0.654  -3.736  0.00  0.00    +0.019 C 
ATOM      7  C   LIG    1       -3.961  -0.913  -5.176  0.00  0.00    -0.009 C 
ATOM      8  C   LIG    1       -5.264  -1.714  -5.167  0.00  0.00    +0.007 C 
ATOM      9  C   LIG    1       -5.037  -3.049  -4.455  0.00  0.00    -0.009 C 
ATOM     10  C   LIG    1       -3.956  -3.843  -5.192  0.00  0.00    +0.007 C 
ATOM     11  C   LIG    1       -2.653  -3.042  -5.200  0.00  0.00    -0.009 C 
ATOM     12  C   LIG    1       -2.879  -1.706  -5.912  0.00  0.00    +0.007 C 
ATOM     13  C   LIG    1       -2.204  -2.783  -3.761  0.00  0.00    +0.019 C 
ATOM     14  C   LIG    1       -4.589  -2.790  -3.016  0.00  0.00    +0.019 C 
ENDBRANCH   3   5
BRANCH   1  15
ATOM     15  C   LIG    1       -1.282  -0.793   0.011  0.00  0.00    +0.139 C 
BRANCH  15  21
ATOM     16  C   LIG    1       -0.017   1.382   0.010  0.00  0.00    +0.025 A 
ATOM     17  C   LIG    1        1.181   2.072   0.002  0.00  0.00    +0.111 A 
ATOM     18  N   LIG    1        2.331   1.427  -0.013  0.00  0.00    -0.263 NA
ATOM     19  C   LIG    1        2.387   0.109  -0.021  0.00  0.00    +0.111 A 
ATOM     20  C   LIG    1        1.230  -0.647  -0.013  0.00  0.00    +0.025 A 
ATOM     21  C   LIG    1        0.002  -0.004   0.002  0.00  0.00    -0.027 A 
ENDBRANCH  15  21
ENDBRANCH   1  15
TORSDOF 3
