REMARK  Name = ZINC03873936
REMARK                            x       y       z     vdW  Elec       q    Type
REMARK                         _______ _______ _______ _____ _____    ______ ____
ROOT
ATOM      1  C   LIG    1       -4.414   3.343  -6.860  0.00  0.00    +0.185 C 
ATOM      2  C   LIG    1       -5.245   2.285  -7.628  0.00  0.00    +0.198 C 
ATOM      3  O   LIG    1       -6.482   2.998  -7.865  0.00  0.00    -0.341 OA
ATOM      4  C   LIG    1       -6.679   3.795  -6.685  0.00  0.00    +0.219 C 
ATOM      5  O   LIG    1       -5.407   4.021  -6.063  0.00  0.00    -0.334 OA
ENDROOT
BRANCH   4   6
ATOM      6  C   LIG    1       -7.300   5.115  -7.063  0.00  0.00    +0.031 A 
ATOM      7  C   LIG    1       -6.721   6.297  -6.640  0.00  0.00    +0.012 A 
ATOM      8  C   LIG    1       -7.289   7.508  -6.987  0.00  0.00    +0.020 A 
ATOM      9  C   LIG    1       -8.438   7.538  -7.757  0.00  0.00    +0.042 A 
ATOM     10 CL   LIG    1       -9.153   9.059  -8.192  0.00  0.00    -0.083 Cl
ATOM     11  C   LIG    1       -9.018   6.355  -8.181  0.00  0.00    +0.040 A 
ATOM     12  C   LIG    1       -8.445   5.143  -7.838  0.00  0.00    +0.051 A 
ATOM     13 CL   LIG    1       -9.168   3.659  -8.374  0.00  0.00    -0.083 Cl
ENDBRANCH   4   6
BRANCH   1  14
ATOM     14  C   LIG    1       -3.373   2.667  -5.965  0.00  0.00    +0.263 C 
BRANCH  14  15
ATOM     15  O   LIG    1       -2.621   3.665  -5.272  0.00  0.00    -0.489 OA
BRANCH  15  19
ATOM     16  C   LIG    1        0.337   2.343  -2.712  0.00  0.00    +0.030 A 
ATOM     17  C   LIG    1       -0.428   1.427  -3.423  0.00  0.00    +0.027 A 
ATOM     18  C   LIG    1       -1.421   1.870  -4.274  0.00  0.00    +0.047 A 
ATOM     19  C   LIG    1       -1.647   3.230  -4.429  0.00  0.00    +0.121 A 
ATOM     20  C   LIG    1       -0.879   4.146  -3.724  0.00  0.00    +0.047 A 
ATOM     21  C   LIG    1        0.110   3.704  -2.868  0.00  0.00    +0.027 A 
BRANCH  16  26
ATOM     22  N   LIG    1        3.766   0.550  -1.195  0.00  0.00    +0.383 N 
ATOM     23  H   LIG    1        4.005   0.237  -2.143  0.00  0.00    -0.081 HD
ATOM     24  C   LIG    1        3.692   2.026  -1.181  0.00  0.00    -0.059 C 
ATOM     25  C   LIG    1        2.641   2.477  -2.199  0.00  0.00    +0.086 C 
ATOM     26  N   LIG    1        1.339   1.895  -1.845  0.00  0.00    -0.333 N 
ATOM     27  C   LIG    1        1.407   0.427  -1.832  0.00  0.00    +0.086 C 
ATOM     28  C   LIG    1        2.458  -0.024  -0.815  0.00  0.00    -0.059 C 
BRANCH  22  30
ATOM     29  C   LIG    1        6.169   0.614  -0.731  0.00  0.00    -0.014 C 
ATOM     30  C   LIG    1        4.812   0.088  -0.258  0.00  0.00    -0.075 C 
ATOM     31  C   LIG    1        4.531   0.602   1.155  0.00  0.00    -0.014 C 
ENDBRANCH  22  30
ENDBRANCH  16  26
ENDBRANCH  15  19
ENDBRANCH  14  15
ENDBRANCH   1  14
BRANCH   4  32
ATOM     32  C   LIG    1       -7.601   3.056  -5.713  0.00  0.00    +0.215 C 
BRANCH  32  33
ATOM     33  N   LIG    1       -7.849   3.897  -4.540  0.00  0.00    -0.246 N 
ATOM     34  C   LIG    1       -9.045   4.302  -4.076  0.00  0.00    +0.219 A 
ATOM     35  N   LIG    1       -8.841   5.036  -3.013  0.00  0.00    -0.223 NA
ATOM     36  C   LIG    1       -7.534   5.122  -2.767  0.00  0.00    +0.244 A 
ATOM     37  N   LIG    1       -6.886   4.437  -3.672  0.00  0.00    -0.158 NA
ENDBRANCH  32  33
ENDBRANCH   4  32
TORSDOF 8
