REMARK  Name = ZINC03876053
REMARK                            x       y       z     vdW  Elec       q    Type
REMARK                         _______ _______ _______ _____ _____    ______ ____
ROOT
ATOM      1  C   LIG    1       -1.092  -6.323  -0.900  0.00  0.00    +0.066 C 
ATOM      2  C   LIG    1       -1.069  -4.792  -0.939  0.00  0.00    +0.024 C 
ATOM      3  C   LIG    1        0.029  -4.284  -0.001  0.00  0.00    -0.035 C 
ATOM      4  N   LIG    1        1.323  -4.813  -0.473  0.00  0.00    +0.385 N 
ATOM      5  H   LIG    1        1.449  -4.559  -1.460  0.00  0.00    -0.081 HD
ATOM      6  C   LIG    1        1.345  -6.287  -0.349  0.00  0.00    -0.072 C 
ATOM      7  C   LIG    1        2.419  -4.227   0.319  0.00  0.00    -0.073 C 
ATOM      8  C   LIG    1        2.570  -2.763  -0.050  0.00  0.00    +0.017 C 
ATOM      9  C   LIG    1        1.232  -2.070  -0.021  0.00  0.00    -0.044 A 
ATOM     10  C   LIG    1        1.207  -0.683  -0.013  0.00  0.00    +0.053 A 
ATOM     11  C   LIG    1        0.002  -0.004   0.002  0.00  0.00    +0.162 A 
ATOM     12  C   LIG    1       -1.192  -0.720   0.015  0.00  0.00    +0.162 A 
ATOM     13  C   LIG    1       -1.162  -2.103   0.005  0.00  0.00    +0.051 A 
ATOM     14  C   LIG    1        0.050  -2.779  -0.008  0.00  0.00    -0.054 A 
ATOM     15  C   LIG    1        0.286  -6.860  -1.295  0.00  0.00    +0.004 C 
ENDROOT
BRANCH   1  17
ATOM     16  C   LIG    1       -2.814  -6.252   0.910  0.00  0.00    +0.007 C 
ATOM     17  C   LIG    1       -1.438  -6.793   0.515  0.00  0.00    +0.031 C 
ENDBRANCH   1  17
BRANCH   1  18
ATOM     18  O   LIG    1       -2.074  -6.809  -1.817  0.00  0.00    -0.388 OA
ATOM     19  H   LIG    1       -2.973  -6.505  -1.629  0.00  0.00    +0.210 HD
ENDBRANCH   1  18
BRANCH  11  20
ATOM     20  O   LIG    1       -0.016   1.356   0.009  0.00  0.00    -0.491 OA
ATOM     21  C   LIG    1        1.248   2.022   0.001  0.00  0.00    +0.277 C 
ENDBRANCH  11  20
BRANCH  12  22
ATOM     22  O   LIG    1       -2.382  -0.062   0.033  0.00  0.00    -0.491 OA
ATOM     23  C   LIG    1       -3.565  -0.863   0.046  0.00  0.00    +0.277 C 
ENDBRANCH  12  22
BRANCH  15  24
ATOM     24  C   LIG    1        0.604  -6.441  -2.731  0.00  0.00    +0.007 C 
BRANCH  24  25
ATOM     25  C   LIG    1        1.924  -7.080  -3.169  0.00  0.00    -0.017 C 
ATOM     26  C   LIG    1        2.305  -6.563  -4.558  0.00  0.00    +0.007 C 
ATOM     27  C   LIG    1        1.762  -8.601  -3.217  0.00  0.00    +0.007 C 
ENDBRANCH  24  25
ENDBRANCH  15  24
TORSDOF 6
