REMARK  Name = ZINC03876174
REMARK                            x       y       z     vdW  Elec       q    Type
REMARK                         _______ _______ _______ _____ _____    ______ ____
ROOT
ATOM      1  C   LIG    1       -2.618  -0.243  -0.873  0.00  0.00    +0.086 A 
ATOM      2  C   LIG    1       -2.430   0.060  -2.193  0.00  0.00    +0.138 A 
ATOM      3  C   LIG    1       -3.619   0.335  -3.014  0.00  0.00    +0.059 A 
ATOM      4  C   LIG    1       -3.502   0.651  -4.369  0.00  0.00    +0.015 A 
ATOM      5  C   LIG    1       -4.635   0.903  -5.110  0.00  0.00    +0.001 A 
ATOM      6  C   LIG    1       -5.887   0.844  -4.517  0.00  0.00    +0.004 A 
ATOM      7  C   LIG    1       -6.018   0.534  -3.179  0.00  0.00    +0.047 A 
ATOM      8  C   LIG    1       -4.887   0.276  -2.414  0.00  0.00    +0.143 A 
ATOM      9  O   LIG    1       -4.997  -0.031  -1.103  0.00  0.00    -0.422 OA
ATOM     10  C   LIG    1       -3.918  -0.289  -0.347  0.00  0.00    +0.345 A 
ATOM     11  O   LIG    1       -4.072  -0.565   0.830  0.00  0.00    -0.245 OA
ENDROOT
BRANCH   2  12
ATOM     12  O   LIG    1       -1.189   0.106  -2.728  0.00  0.00    -0.506 OA
ATOM     13  H   LIG    1       -1.174   0.329  -3.668  0.00  0.00    +0.292 HD
ENDBRANCH   2  12
BRANCH   1  14
ATOM     14  C   LIG    1       -1.433  -0.534   0.013  0.00  0.00    +0.059 C 
BRANCH  14  15
ATOM     15  C   LIG    1       -0.789  -1.826  -0.418  0.00  0.00    -0.040 A 
ATOM     16  C   LIG    1        0.211  -1.816  -1.372  0.00  0.00    +0.004 A 
ATOM     17  C   LIG    1        0.802  -3.002  -1.766  0.00  0.00    +0.000 A 
ATOM     18  C   LIG    1        0.393  -4.198  -1.207  0.00  0.00    +0.000 A 
ATOM     19  C   LIG    1       -0.607  -4.208  -0.252  0.00  0.00    +0.000 A 
ATOM     20  C   LIG    1       -1.195  -3.022   0.146  0.00  0.00    +0.004 A 
ENDBRANCH  14  15
BRANCH  14  22
ATOM     21  C   LIG    1       -0.991   1.867   0.546  0.00  0.00    +0.005 C 
ATOM     22  C   LIG    1       -0.418   0.605  -0.103  0.00  0.00    +0.010 C 
ENDBRANCH  14  22
ENDBRANCH   1  14
TORSDOF 4
