REMARK  Name = ZINC03949282
REMARK                            x       y       z     vdW  Elec       q    Type
REMARK                         _______ _______ _______ _____ _____    ______ ____
ROOT
ATOM      1  C   LIG    1        1.137   1.761   0.001  0.00  0.00    -0.014 C 
ATOM      2  C   LIG    1       -0.013   1.076   0.008  0.00  0.00    -0.007 C 
ENDROOT
BRANCH   1   9
ATOM      3  C   LIG    1        1.612   3.956  -1.083  0.00  0.00    +0.009 A 
ATOM      4  C   LIG    1        1.585   5.335  -1.073  0.00  0.00    +0.016 A 
ATOM      5  C   LIG    1        1.079   6.012   0.024  0.00  0.00    +0.018 A 
ATOM      6 BR   LIG    1        1.052   7.903   0.034  0.00  0.00    -0.050 Br
ATOM      7  C   LIG    1        0.592   5.310   1.113  0.00  0.00    +0.016 A 
ATOM      8  C   LIG    1        0.609   3.930   1.110  0.00  0.00    +0.009 A 
ATOM      9  C   LIG    1        1.117   3.243   0.009  0.00  0.00    -0.018 A 
ENDBRANCH   1   9
BRANCH   1  10
ATOM     10  C   LIG    1        2.431   1.037  -0.016  0.00  0.00    -0.018 A 
ATOM     11  C   LIG    1        3.303   1.139   1.067  0.00  0.00    +0.009 A 
ATOM     12  C   LIG    1        4.504   0.458   1.050  0.00  0.00    +0.016 A 
ATOM     13  C   LIG    1        4.848  -0.315  -0.046  0.00  0.00    +0.018 A 
ATOM     14 BR   LIG    1        6.497  -1.240  -0.066  0.00  0.00    -0.050 Br
ATOM     15  C   LIG    1        3.988  -0.415  -1.126  0.00  0.00    +0.016 A 
ATOM     16  C   LIG    1        2.783   0.257  -1.116  0.00  0.00    +0.009 A 
ENDBRANCH   1  10
BRANCH   2  17
ATOM     17  C   LIG    1       -1.328   1.812   0.018  0.00  0.00    +0.102 C 
BRANCH  17  18
ATOM     18  S   LIG    1       -2.216   1.484  -1.529  0.00  0.00    -0.121 S 
BRANCH  18  19
ATOM     19  C   LIG    1       -3.711   2.402  -1.365  0.00  0.00    +0.010 A 
ATOM     20  C   LIG    1       -3.951   3.139  -0.212  0.00  0.00    +0.018 A 
ATOM     21  C   LIG    1       -5.120   3.863  -0.086  0.00  0.00    +0.048 A 
ATOM     22  C   LIG    1       -6.061   3.844  -1.105  0.00  0.00    +0.140 A 
ATOM     23  C   LIG    1       -5.825   3.104  -2.256  0.00  0.00    +0.084 A 
ATOM     24 CL   LIG    1       -7.003   3.083  -3.531  0.00  0.00    -0.080 Cl
ATOM     25  C   LIG    1       -4.653   2.384  -2.386  0.00  0.00    +0.038 A 
BRANCH  22  26
ATOM     26  O   LIG    1       -7.215   4.553  -0.978  0.00  0.00    -0.479 OA
BRANCH  26  27
ATOM     27  C   LIG    1       -7.392   5.292   0.232  0.00  0.00    +0.349 C 
BRANCH  27  28
ATOM     28  C   LIG    1       -8.718   6.008   0.194  0.00  0.00    +0.343 C 
ATOM     29  O   LIG    1       -9.437   5.897  -0.770  0.00  0.00    -0.247 OA
BRANCH  28  30
ATOM     30  O   LIG    1       -9.099   6.770   1.231  0.00  0.00    -0.478 OA
ATOM     31  H   LIG    1       -8.541   6.856   1.979  0.00  0.00    +0.295 HD
ENDBRANCH  28  30
ENDBRANCH  27  28
ENDBRANCH  26  27
ENDBRANCH  22  26
ENDBRANCH  18  19
ENDBRANCH  17  18
ENDBRANCH   2  17
TORSDOF 9
