REMARK  Name = ZINC03995923
REMARK                            x       y       z     vdW  Elec       q    Type
REMARK                         _______ _______ _______ _____ _____    ______ ____
ROOT
ATOM      1  N   LIG    1       -4.633  -3.032  -2.858  0.00  0.00    +0.382 N 
ATOM      2  H   LIG    1       -4.648  -3.776  -2.177  0.00  0.00    -0.082 HD
ATOM      3  C   LIG    1       -5.665  -2.043  -2.519  0.00  0.00    -0.060 C 
ATOM      4  C   LIG    1       -7.026  -2.739  -2.421  0.00  0.00    +0.089 C 
ATOM      5  N   LIG    1       -7.270  -3.466  -3.676  0.00  0.00    -0.303 N 
ATOM      6  C   LIG    1       -6.214  -4.359  -4.177  0.00  0.00    +0.089 C 
ATOM      7  C   LIG    1       -4.891  -3.586  -4.193  0.00  0.00    -0.060 C 
ENDROOT
BRANCH   5   8
ATOM      8  C   LIG    1       -8.461  -3.313  -4.367  0.00  0.00    +0.218 A 
ATOM      9  N   LIG    1       -9.386  -2.496  -3.888  0.00  0.00    -0.220 NA
ATOM     10  C   LIG    1      -10.535  -2.327  -4.522  0.00  0.00    +0.154 A 
ATOM     11  C   LIG    1      -10.763  -3.019  -5.704  0.00  0.00    +0.160 A 
ATOM     12  F   LIG    1      -11.924  -2.870  -6.377  0.00  0.00    -0.202 F 
ATOM     13  C   LIG    1       -9.771  -3.866  -6.177  0.00  0.00    +0.154 A 
ATOM     14  N   LIG    1       -8.644  -3.984  -5.495  0.00  0.00    -0.220 NA
ENDBRANCH   5   8
BRANCH   1  15
ATOM     15  C   LIG    1       -3.314  -2.385  -2.844  0.00  0.00    -0.079 C 
BRANCH  15  16
ATOM     16  C   LIG    1       -2.990  -1.917  -1.424  0.00  0.00    -0.016 C 
BRANCH  16  17
ATOM     17  C   LIG    1       -1.617  -1.243  -1.410  0.00  0.00    +0.034 C 
BRANCH  17  18
ATOM     18  C   LIG    1       -1.293  -0.775   0.010  0.00  0.00    +0.144 C 
BRANCH  18  25
ATOM     19  C   LIG    1       -0.017   1.378   0.010  0.00  0.00    +0.009 A 
ATOM     20  C   LIG    1        1.170   2.086   0.002  0.00  0.00    +0.039 A 
ATOM     21  C   LIG    1        2.379   1.410  -0.013  0.00  0.00    +0.123 A 
ATOM     22  F   LIG    1        3.540   2.101  -0.021  0.00  0.00    -0.205 F 
ATOM     23  C   LIG    1        2.396   0.026  -0.021  0.00  0.00    +0.039 A 
ATOM     24  C   LIG    1        1.208  -0.680  -0.013  0.00  0.00    +0.009 A 
ATOM     25  C   LIG    1        0.002  -0.004   0.002  0.00  0.00    -0.019 A 
ENDBRANCH  18  25
BRANCH  18  26
ATOM     26  O   LIG    1       -1.166  -1.910   0.869  0.00  0.00    -0.387 OA
ATOM     27  H   LIG    1       -0.469  -2.526   0.606  0.00  0.00    +0.210 HD
ENDBRANCH  18  26
ENDBRANCH  17  18
ENDBRANCH  16  17
ENDBRANCH  15  16
ENDBRANCH   1  15
TORSDOF 7
