REMARK  Name = ZINC03917708
REMARK                            x       y       z     vdW  Elec       q    Type
REMARK                         _______ _______ _______ _____ _____    ______ ____
ROOT
ATOM      1  C   LIG    1        0.790   1.630   2.844  0.00  0.00    +0.158 C 
ATOM      2  C   LIG    1        1.874   1.855   3.896  0.00  0.00    +0.079 C 
ATOM      3  C   LIG    1        2.670   3.107   3.507  0.00  0.00    +0.130 C 
ATOM      4  C   LIG    1        3.489   2.787   2.260  0.00  0.00    +0.082 C 
ATOM      5  C   LIG    1        2.616   2.185   1.189  0.00  0.00    +0.007 A 
ATOM      6  C   LIG    1        3.110   2.186  -0.122  0.00  0.00    +0.132 A 
ATOM      7  C   LIG    1        2.360   1.640  -1.162  0.00  0.00    +0.078 A 
ATOM      8  C   LIG    1        2.879   1.641  -2.541  0.00  0.00    +0.198 C 
ATOM      9  C   LIG    1        2.071   1.055  -3.631  0.00  0.00    +0.037 A 
ATOM     10  C   LIG    1        2.552   1.051  -4.936  0.00  0.00    +0.012 A 
ATOM     11  C   LIG    1        1.791   0.501  -5.955  0.00  0.00    +0.004 A 
ATOM     12  C   LIG    1        0.553  -0.046  -5.688  0.00  0.00    +0.046 A 
ATOM     13  C   LIG    1        0.052  -0.053  -4.389  0.00  0.00    +0.132 A 
ATOM     14  C   LIG    1        0.809   0.498  -3.351  0.00  0.00    +0.075 A 
ATOM     15  C   LIG    1        0.291   0.498  -1.971  0.00  0.00    +0.202 C 
ATOM     16  O   LIG    1       -0.799   0.016  -1.730  0.00  0.00    -0.286 OA
ATOM     17  O   LIG    1        3.969   2.123  -2.781  0.00  0.00    -0.286 OA
ATOM     18  C   LIG    1        1.096   1.083  -0.884  0.00  0.00    +0.078 A 
ATOM     19  C   LIG    1        0.618   1.090   0.425  0.00  0.00    +0.134 A 
ATOM     20  C   LIG    1        1.381   1.651   1.458  0.00  0.00    +0.030 A 
ENDROOT
BRANCH   3  21
ATOM     21  C   LIG    1        1.721   4.241   3.215  0.00  0.00    +0.162 C 
ATOM     22  C   LIG    1        1.208   5.103   4.339  0.00  0.00    +0.089 C 
ATOM     23  O   LIG    1        1.372   4.459   2.079  0.00  0.00    -0.295 OA
ENDBRANCH   3  21
BRANCH   3  24
ATOM     24  O   LIG    1        3.544   3.474   4.577  0.00  0.00    -0.381 OA
ATOM     25  H   LIG    1        4.090   4.250   4.389  0.00  0.00    +0.211 HD
ENDBRANCH   3  24
BRANCH   6  26
ATOM     26  O   LIG    1        4.328   2.723  -0.381  0.00  0.00    -0.506 OA
ATOM     27  H   LIG    1        4.305   3.666  -0.598  0.00  0.00    +0.292 HD
ENDBRANCH   6  26
BRANCH  13  28
ATOM     28  O   LIG    1       -1.165  -0.593  -4.132  0.00  0.00    -0.494 OA
ATOM     29  C   LIG    1       -1.881  -1.137  -5.242  0.00  0.00    +0.277 C 
ENDBRANCH  13  28
BRANCH  19  30
ATOM     30  O   LIG    1       -0.597   0.555   0.700  0.00  0.00    -0.506 OA
ATOM     31  H   LIG    1       -0.582  -0.402   0.844  0.00  0.00    +0.292 HD
ENDBRANCH  19  30
BRANCH   1  32
ATOM     32  O   LIG    1        0.167   0.364   3.074  0.00  0.00    -0.343 OA
BRANCH  32  38
ATOM     33  C   LIG    1        0.507   0.111   7.249  0.00  0.00    +0.040 C 
ATOM     34  C   LIG    1        0.182  -0.285   5.807  0.00  0.00    +0.145 C 
ATOM     35  C   LIG    1       -0.522  -1.645   5.797  0.00  0.00    +0.129 C 
ATOM     36  C   LIG    1       -0.897  -2.007   4.357  0.00  0.00    -0.039 C 
ATOM     37  C   LIG    1       -1.774  -0.894   3.775  0.00  0.00    +0.048 C 
ATOM     38  C   LIG    1       -1.022   0.436   3.862  0.00  0.00    +0.250 C 
ATOM     39  O   LIG    1       -0.676   0.698   5.224  0.00  0.00    -0.346 OA
BRANCH  36  40
ATOM     40  N   LIG    1       -1.660  -3.268   4.360  0.00  0.00    +0.382 N 
ATOM     41  H   LIG    1       -2.522  -3.139   4.904  0.00  0.00    -0.090 HD
ATOM     42  H   LIG    1       -1.106  -4.010   4.785  0.00  0.00    -0.090 HD
ATOM     43  H   LIG    1       -1.905  -3.530   3.407  0.00  0.00    -0.090 HD
ENDBRANCH  36  40
BRANCH  35  44
ATOM     44  O   LIG    1       -1.705  -1.576   6.596  0.00  0.00    -0.391 OA
ATOM     45  H   LIG    1       -1.541  -1.351   7.522  0.00  0.00    +0.210 HD
ENDBRANCH  35  44
ENDBRANCH  32  38
ENDBRANCH   1  32
TORSDOF 9
