REMARK  Name = ZINC04031199
REMARK                            x       y       z     vdW  Elec       q    Type
REMARK                         _______ _______ _______ _____ _____    ______ ____
ROOT
ATOM      1  C   LIG    1       -2.440  -0.545   2.021  0.00  0.00    +0.012 C 
ATOM      2  C   LIG    1       -2.214   0.873   1.495  0.00  0.00    -0.016 C 
ATOM      3  C   LIG    1       -0.736   1.166   1.475  0.00  0.00    +0.008 C 
ATOM      4  C   LIG    1       -0.018   0.428   0.350  0.00  0.00    +0.005 C 
ATOM      5  C   LIG    1       -0.615   0.868  -0.993  0.00  0.00    +0.002 C 
ATOM      6  C   LIG    1       -2.087   0.468  -1.025  0.00  0.00    -0.003 C 
ATOM      7  C   LIG    1       -2.711   0.915  -2.351  0.00  0.00    +0.008 C 
ATOM      8  C   LIG    1       -2.044   0.160  -3.503  0.00  0.00    +0.032 C 
ATOM      9  C   LIG    1       -0.545   0.386  -3.428  0.00  0.00    -0.060 C 
ATOM     10  C   LIG    1        0.082   0.768  -4.540  0.00  0.00    +0.046 C 
ATOM     11  C   LIG    1        1.532   0.985  -4.526  0.00  0.00    +0.156 C 
ATOM     12  C   LIG    1        2.307   0.299  -3.417  0.00  0.00    +0.080 C 
ATOM     13  C   LIG    1        1.597   0.614  -2.101  0.00  0.00    +0.019 C 
ATOM     14  O   LIG    1        2.083   1.676  -5.357  0.00  0.00    -0.293 OA
ATOM     15  C   LIG    1        0.160   0.174  -2.121  0.00  0.00    -0.007 C 
ATOM     16  C   LIG    1        0.162  -1.330  -1.837  0.00  0.00    +0.016 C 
ATOM     17  C   LIG    1       -2.919   1.924   2.383  0.00  0.00    +0.104 C 
ATOM     18  C   LIG    1       -3.353   3.057   1.435  0.00  0.00    +0.015 C 
ATOM     19  C   LIG    1       -2.947   2.619   0.009  0.00  0.00    +0.005 C 
ATOM     20  C   LIG    1       -2.862   1.084   0.116  0.00  0.00    -0.001 C 
ENDROOT
BRANCH  17  21
ATOM     21  C   LIG    1       -1.953   2.451   3.412  0.00  0.00    +0.308 C 
ATOM     22  O   LIG    1       -1.303   3.443   3.178  0.00  0.00    -0.251 OA
BRANCH  21  23
ATOM     23  O   LIG    1       -1.814   1.820   4.589  0.00  0.00    -0.480 OA
ATOM     24  H   LIG    1       -2.318   1.051   4.770  0.00  0.00    +0.295 HD
ENDBRANCH  21  23
ENDBRANCH  17  21
TORSDOF 2
