REMARK  Name = ZINC04031797
REMARK                            x       y       z     vdW  Elec       q    Type
REMARK                         _______ _______ _______ _____ _____    ______ ____
ROOT
ATOM      1  C   LIG    1        3.023  -2.135   1.655  0.00  0.00    +0.048 C 
ATOM      2  C   LIG    1        2.120  -2.423   2.856  0.00  0.00    +0.019 C 
ATOM      3  C   LIG    1        1.992  -3.935   3.047  0.00  0.00    -0.009 C 
ATOM      4  C   LIG    1        3.377  -4.537   3.295  0.00  0.00    +0.007 C 
ATOM      5  C   LIG    1        4.280  -4.250   2.094  0.00  0.00    -0.009 C 
ATOM      6  C   LIG    1        3.670  -4.873   0.836  0.00  0.00    +0.007 C 
ATOM      7  C   LIG    1        2.285  -4.271   0.589  0.00  0.00    -0.009 C 
ATOM      8  C   LIG    1        1.382  -4.559   1.790  0.00  0.00    +0.007 C 
ATOM      9  C   LIG    1        2.413  -2.759   0.398  0.00  0.00    +0.019 C 
ATOM     10  C   LIG    1        4.408  -2.737   1.902  0.00  0.00    +0.019 C 
ENDROOT
BRANCH   1  15
ATOM     11  C   LIG    1       -0.240   1.623   1.958  0.00  0.00    +0.003 C 
ATOM     12  C   LIG    1       -0.234   0.103   2.142  0.00  0.00    +0.019 C 
ATOM     13  C   LIG    1        0.728  -0.526   1.128  0.00  0.00    +0.108 C 
ATOM     14  N   LIG    1        2.047   0.105   1.273  0.00  0.00    -0.301 N 
ATOM     15  C   LIG    1        3.149  -0.646   1.466  0.00  0.00    +0.222 C 
ATOM     16  O   LIG    1        4.243  -0.122   1.488  0.00  0.00    -0.275 OA
ATOM     17  C   LIG    1        2.141   1.570   1.204  0.00  0.00    +0.108 C 
ATOM     18  C   LIG    1        1.164   2.175   2.216  0.00  0.00    +0.019 C 
ENDBRANCH   1  15
TORSDOF 1
