REMARK  Name = ZINC03938684
REMARK                            x       y       z     vdW  Elec       q    Type
REMARK                         _______ _______ _______ _____ _____    ______ ____
ROOT
ATOM      1  C   LIG    1        0.919  -0.790   0.078  0.00  0.00    +0.159 C 
ATOM      2  C   LIG    1       -0.259   0.165  -0.008  0.00  0.00    -0.011 A 
ATOM      3  C   LIG    1       -1.524  -0.424  -0.055  0.00  0.00    +0.056 A 
ATOM      4  C   LIG    1       -2.627   0.409  -0.114  0.00  0.00    +0.167 A 
ATOM      5  C   LIG    1       -2.475   1.805  -0.129  0.00  0.00    +0.167 A 
ATOM      6  O   LIG    1       -3.700   2.376  -0.184  0.00  0.00    -0.453 OA
ATOM      7  C   LIG    1       -4.628   1.337   0.192  0.00  0.00    +0.466 C 
ATOM      8  C   LIG    1       -1.217   2.381  -0.093  0.00  0.00    +0.054 A 
ATOM      9  O   LIG    1       -3.947   0.115  -0.161  0.00  0.00    -0.453 OA
ATOM     10  C   LIG    1       -0.109   1.534  -0.031  0.00  0.00    -0.030 A 
ATOM     11  C   LIG    1        1.249   2.213   0.002  0.00  0.00    +0.064 C 
ATOM     12  C   LIG    1        2.295   1.187  -0.384  0.00  0.00    +0.118 C 
ATOM     13  C   LIG    1        3.727   1.562  -0.142  0.00  0.00    +0.312 C 
ATOM     14  O   LIG    1        4.205   2.662  -0.289  0.00  0.00    -0.250 OA
ATOM     15  O   LIG    1        4.393   0.457   0.269  0.00  0.00    -0.464 OA
ATOM     16  C   LIG    1        3.477  -0.685   0.396  0.00  0.00    +0.239 C 
ATOM     17  C   LIG    1        2.111  -0.011   0.601  0.00  0.00    +0.075 C 
ENDROOT
BRANCH  11  18
ATOM     18  C   LIG    1        1.528   2.726   1.391  0.00  0.00    -0.032 A 
ATOM     19  C   LIG    1        1.036   2.046   2.489  0.00  0.00    +0.054 A 
ATOM     20  C   LIG    1        1.296   2.512   3.769  0.00  0.00    +0.165 A 
ATOM     21  C   LIG    1        2.041   3.671   3.947  0.00  0.00    +0.201 A 
ATOM     22  C   LIG    1        2.529   4.356   2.840  0.00  0.00    +0.165 A 
ATOM     23  C   LIG    1        2.271   3.880   1.563  0.00  0.00    +0.054 A 
BRANCH  20  24
ATOM     24  O   LIG    1        0.816   1.839   4.849  0.00  0.00    -0.491 OA
ATOM     25  C   LIG    1        0.058   0.655   4.592  0.00  0.00    +0.277 C 
ENDBRANCH  20  24
BRANCH  21  26
ATOM     26  O   LIG    1        2.292   4.136   5.201  0.00  0.00    -0.501 OA
ATOM     27  H   LIG    1        1.624   4.750   5.534  0.00  0.00    +0.292 HD
ENDBRANCH  21  26
BRANCH  22  28
ATOM     28  O   LIG    1        3.259   5.491   3.008  0.00  0.00    -0.491 OA
ATOM     29  C   LIG    1        3.728   6.142   1.826  0.00  0.00    +0.277 C 
ENDBRANCH  22  28
ENDBRANCH  11  18
BRANCH   1  30
ATOM     30  O   LIG    1        1.213  -1.313  -1.219  0.00  0.00    -0.340 OA
BRANCH  30  39
ATOM     31  C   LIG    1       -0.370  -8.848  -1.831  0.00  0.00    +0.070 C 
ATOM     32  C   LIG    1        0.392  -7.550  -1.559  0.00  0.00    +0.248 C 
ATOM     33  O   LIG    1        0.119  -7.110  -0.228  0.00  0.00    -0.349 OA
ATOM     34  C   LIG    1        0.738  -5.866   0.123  0.00  0.00    +0.197 C 
ATOM     35  C   LIG    1        0.281  -4.803  -0.878  0.00  0.00    +0.178 C 
ATOM     36  C   LIG    1        0.618  -5.291  -2.292  0.00  0.00    +0.183 C 
ATOM     37  C   LIG    1        0.125  -4.251  -3.298  0.00  0.00    +0.179 C 
ATOM     38  C   LIG    1        0.802  -2.913  -2.981  0.00  0.00    +0.201 C 
ATOM     39  C   LIG    1        0.512  -2.519  -1.532  0.00  0.00    +0.282 C 
ATOM     40  O   LIG    1        0.941  -3.560  -0.648  0.00  0.00    -0.340 OA
ATOM     41  O   LIG    1       -0.018  -6.552  -2.501  0.00  0.00    -0.343 OA
BRANCH  37  42
ATOM     42  O   LIG    1        0.470  -4.662  -4.623  0.00  0.00    -0.386 OA
ATOM     43  H   LIG    1        0.187  -4.047  -5.312  0.00  0.00    +0.210 HD
ENDBRANCH  37  42
BRANCH  38  44
ATOM     44  O   LIG    1        0.295  -1.906  -3.859  0.00  0.00    -0.384 OA
ATOM     45  H   LIG    1        0.681  -1.030  -3.718  0.00  0.00    +0.210 HD
ENDBRANCH  38  44
ENDBRANCH  30  39
ENDBRANCH   1  30
TORSDOF 8
