REMARK  Name = ZINC04091160
REMARK                            x       y       z     vdW  Elec       q    Type
REMARK                         _______ _______ _______ _____ _____    ______ ____
ROOT
ATOM      1  C   LIG    1       -1.186  -3.609   1.905  0.00  0.00    +0.028 C 
ATOM      2  C   LIG    1       -2.162  -3.025   0.882  0.00  0.00    +0.081 C 
ATOM      3  C   LIG    1       -1.675  -1.642   0.430  0.00  0.00    +0.050 C 
ATOM      4  C   LIG    1       -2.701  -1.050  -0.536  0.00  0.00    +0.115 C 
ATOM      5  C   LIG    1       -3.022  -2.031  -1.633  0.00  0.00    -0.005 A 
ATOM      6  C   LIG    1       -3.573  -1.561  -2.813  0.00  0.00    +0.007 A 
ATOM      7  C   LIG    1       -3.881  -2.436  -3.836  0.00  0.00    +0.000 A 
ATOM      8  C   LIG    1       -3.641  -3.790  -3.687  0.00  0.00    +0.002 A 
ATOM      9  C   LIG    1       -3.091  -4.267  -2.515  0.00  0.00    +0.024 A 
ATOM     10  C   LIG    1       -2.779  -3.387  -1.484  0.00  0.00    +0.042 A 
ATOM     11  N   LIG    1       -2.218  -3.891  -0.303  0.00  0.00    -0.264 N 
ATOM     12  C   LIG    1       -1.738  -5.150  -0.256  0.00  0.00    +0.251 C 
ATOM     13  O   LIG    1       -1.540  -5.684   0.818  0.00  0.00    -0.270 OA
ENDROOT
BRANCH  12  14
ATOM     14  C   LIG    1       -1.452  -5.880  -1.509  0.00  0.00    +0.041 A 
ATOM     15  C   LIG    1       -1.034  -5.184  -2.645  0.00  0.00    +0.013 A 
ATOM     16  C   LIG    1       -0.763  -5.869  -3.812  0.00  0.00    +0.004 A 
ATOM     17  C   LIG    1       -0.914  -7.243  -3.863  0.00  0.00    +0.045 A 
ATOM     18  C   LIG    1       -1.334  -7.942  -2.740  0.00  0.00    +0.121 A 
ATOM     19  C   LIG    1       -1.603  -7.265  -1.562  0.00  0.00    +0.058 A 
BRANCH  18  20
ATOM     20  O   LIG    1       -1.481  -9.292  -2.796  0.00  0.00    -0.495 OA
ATOM     21  C   LIG    1       -1.185  -9.925  -4.043  0.00  0.00    +0.277 C 
ENDBRANCH  18  20
ENDBRANCH  12  14
BRANCH   4  22
ATOM     22  N   LIG    1       -2.156   0.175  -1.128  0.00  0.00    -0.264 N 
ATOM     23  C   LIG    1       -1.012   0.129  -1.838  0.00  0.00    +0.217 C 
ATOM     24  C   LIG    1       -0.359  -1.198  -2.131  0.00  0.00    +0.109 C 
ATOM     25  O   LIG    1       -0.506   1.155  -2.241  0.00  0.00    -0.276 OA
BRANCH  22  26
ATOM     26  C   LIG    1       -2.825   1.392  -0.956  0.00  0.00    +0.037 A 
ATOM     27  C   LIG    1       -3.092   1.865   0.322  0.00  0.00    +0.023 A 
ATOM     28  C   LIG    1       -3.747   3.069   0.488  0.00  0.00    +0.002 A 
ATOM     29  C   LIG    1       -4.146   3.799  -0.616  0.00  0.00    +0.000 A 
ATOM     30  C   LIG    1       -3.887   3.329  -1.890  0.00  0.00    +0.002 A 
ATOM     31  C   LIG    1       -3.227   2.128  -2.063  0.00  0.00    +0.023 A 
ENDBRANCH  22  26
ENDBRANCH   4  22
TORSDOF 4
