REMARK  Name = ZINC04096261
REMARK                            x       y       z     vdW  Elec       q    Type
REMARK                         _______ _______ _______ _____ _____    ______ ____
ROOT
ATOM      1  C   LIG    1        1.768   3.724   1.432  0.00  0.00    +0.165 C 
ENDROOT
BRANCH   1   2
ATOM      2  C   LIG    1        2.457   5.063   1.471  0.00  0.00    +0.237 C 
ATOM      3  N   LIG    1        3.796   5.137   1.334  0.00  0.00    -0.288 N 
ATOM      4  C   LIG    1        4.693   4.004   1.041  0.00  0.00    +0.109 C 
ATOM      5  C   LIG    1        5.941   4.646   0.386  0.00  0.00    +0.021 C 
ATOM      6  C   LIG    1        6.072   5.965   1.192  0.00  0.00    +0.033 C 
ATOM      7  C   LIG    1        4.603   6.361   1.446  0.00  0.00    +0.162 C 
ATOM      8  O   LIG    1        1.807   6.075   1.625  0.00  0.00    -0.274 OA
BRANCH   7   9
ATOM      9  C   LIG    1        4.154   7.366   0.417  0.00  0.00    +0.231 C 
ATOM     10  N   LIG    1        4.761   8.567   0.340  0.00  0.00    -0.328 N 
ATOM     11  H   LIG    1        4.473   9.215  -0.322  0.00  0.00    +0.145 HD
ATOM     12  H   LIG    1        5.486   8.785   0.947  0.00  0.00    +0.145 HD
ATOM     13  O   LIG    1        3.248   7.095  -0.342  0.00  0.00    -0.274 OA
ENDBRANCH   7   9
ENDBRANCH   1   2
BRANCH   1  14
ATOM     14  N   LIG    1        0.534   3.786   2.219  0.00  0.00    -0.302 N 
ATOM     15  H   LIG    1        0.089   4.637   2.356  0.00  0.00    +0.150 HD
ATOM     16  C   LIG    1        0.018   2.661   2.753  0.00  0.00    +0.234 C 
ATOM     17  O   LIG    1        0.575   1.597   2.582  0.00  0.00    -0.274 OA
BRANCH  16  18
ATOM     18  C   LIG    1       -1.251   2.725   3.563  0.00  0.00    +0.159 C 
ATOM     19  C   LIG    1       -0.941   3.178   5.008  0.00  0.00    +0.041 C 
ATOM     20  C   LIG    1       -0.780   1.823   5.735  0.00  0.00    +0.098 C 
ATOM     21  C   LIG    1       -1.587   0.854   4.898  0.00  0.00    +0.214 C 
ATOM     22  O   LIG    1       -1.952  -0.243   5.264  0.00  0.00    -0.276 OA
ATOM     23  N   LIG    1       -1.842   1.388   3.689  0.00  0.00    -0.304 N 
ATOM     24  H   LIG    1       -2.350   0.946   2.990  0.00  0.00    +0.149 HD
ENDBRANCH  16  18
ENDBRANCH   1  14
BRANCH   1  25
ATOM     25  C   LIG    1        1.430   3.366  -0.017  0.00  0.00    +0.086 C 
BRANCH  25  27
ATOM     26  C   LIG    1       -0.433   1.631   0.126  0.00  0.00    +0.105 A 
ATOM     27  C   LIG    1        0.854   1.974  -0.070  0.00  0.00    +0.035 A 
ATOM     28  N   LIG    1        1.538   0.817  -0.326  0.00  0.00    -0.350 N 
ATOM     29  C   LIG    1        0.644  -0.195  -0.278  0.00  0.00    +0.171 A 
ATOM     30  H   LIG    1        2.487   0.738  -0.508  0.00  0.00    +0.166 HD
ATOM     31  N   LIG    1       -0.533   0.300  -0.007  0.00  0.00    -0.352 N 
ATOM     32  H   LIG    1       -1.350  -0.214   0.085  0.00  0.00    +0.166 HD
ENDBRANCH  25  27
ENDBRANCH   1  25
TORSDOF 6
