REMARK  Name = ZINC04004773
REMARK                            x       y       z     vdW  Elec       q    Type
REMARK                         _______ _______ _______ _____ _____    ______ ____
ROOT
ATOM      1  N   LIG    1       -5.423  -2.855  -1.343  0.00  0.00    -0.256 N 
ATOM      2  C   LIG    1       -6.167  -1.914  -1.963  0.00  0.00    +0.265 A 
ATOM      3  C   LIG    1       -6.599  -2.166  -3.352  0.00  0.00    +0.063 A 
ATOM      4  C   LIG    1       -7.368  -1.241  -4.056  0.00  0.00    +0.016 A 
ATOM      5  C   LIG    1       -7.750  -1.515  -5.351  0.00  0.00    +0.014 A 
ATOM      6  C   LIG    1       -7.370  -2.715  -5.958  0.00  0.00    +0.039 A 
ATOM      7  C   LIG    1       -6.601  -3.644  -5.261  0.00  0.00    +0.039 A 
ATOM      8  C   LIG    1       -6.214  -3.374  -3.958  0.00  0.00    +0.056 A 
ATOM      9  N   LIG    1       -5.448  -4.273  -3.228  0.00  0.00    -0.307 N 
ATOM     10  H   LIG    1       -5.175  -5.110  -3.634  0.00  0.00    +0.170 HD
ATOM     11  O   LIG    1       -6.472  -0.885  -1.392  0.00  0.00    -0.267 OA
ATOM     12  C   LIG    1       -5.077  -3.992  -1.968  0.00  0.00    +0.330 A 
ATOM     13  O   LIG    1       -4.402  -4.804  -1.365  0.00  0.00    -0.246 OA
ENDROOT
BRANCH   6  14
ATOM     14  C   LIG    1       -7.787  -3.001  -7.350  0.00  0.00    +0.244 C 
ATOM     15  N   LIG    1       -8.530  -2.104  -8.028  0.00  0.00    -0.311 N 
ATOM     16  H   LIG    1       -8.793  -1.272  -7.604  0.00  0.00    +0.149 HD
ATOM     17  O   LIG    1       -7.458  -4.043  -7.881  0.00  0.00    -0.270 OA
BRANCH  15  18
ATOM     18  C   LIG    1       -8.943  -2.386  -9.405  0.00  0.00    +0.102 C 
BRANCH  18  19
ATOM     19  C   LIG    1       -9.771  -1.216  -9.939  0.00  0.00    +0.000 C 
BRANCH  19  20
ATOM     20  C   LIG    1      -10.202  -1.510 -11.378  0.00  0.00    -0.077 C 
BRANCH  20  21
ATOM     21  N   LIG    1      -10.997  -0.387 -11.891  0.00  0.00    +0.380 N 
ATOM     22  H   LIG    1      -10.469   0.468 -11.797  0.00  0.00    -0.082 HD
ATOM     23  C   LIG    1      -12.241  -0.277 -11.119  0.00  0.00    -0.079 C 
ATOM     24  C   LIG    1      -13.035   0.941 -11.595  0.00  0.00    -0.019 C 
ATOM     25  C   LIG    1      -13.368   0.777 -13.081  0.00  0.00    -0.004 C 
ATOM     26  C   LIG    1      -12.067   0.589 -13.867  0.00  0.00    -0.019 C 
ATOM     27  C   LIG    1      -11.308  -0.616 -13.307  0.00  0.00    -0.079 C 
ENDBRANCH  20  21
ENDBRANCH  19  20
ENDBRANCH  18  19
ENDBRANCH  15  18
ENDBRANCH   6  14
BRANCH   1  28
ATOM     28  C   LIG    1       -4.981  -2.629   0.035  0.00  0.00    +0.165 C 
BRANCH  28  32
ATOM     29  C   LIG    1       -1.200  -0.637   0.010  0.00  0.00    +0.120 A 
ATOM     30  C   LIG    1       -2.375   0.101   0.019  0.00  0.00    +0.046 A 
ATOM     31  C   LIG    1       -3.596  -0.545   0.027  0.00  0.00    +0.009 A 
ATOM     32  C   LIG    1       -3.648  -1.927   0.026  0.00  0.00    -0.027 A 
ATOM     33  C   LIG    1       -2.479  -2.665   0.017  0.00  0.00    +0.009 A 
ATOM     34  C   LIG    1       -1.255  -2.024   0.003  0.00  0.00    +0.046 A 
BRANCH  29  36
ATOM     35  C   LIG    1       -0.017   1.425   0.010  0.00  0.00    +0.277 C 
ATOM     36  O   LIG    1        0.002  -0.004   0.002  0.00  0.00    -0.495 OA
ENDBRANCH  29  36
ENDBRANCH  28  32
ENDBRANCH   1  28
TORSDOF 8
