REMARK  Name = ZINC03938671
REMARK                            x       y       z     vdW  Elec       q    Type
REMARK                         _______ _______ _______ _____ _____    ______ ____
ROOT
ATOM      1  C   LIG    1       -1.200   2.015  -0.202  0.00  0.00    +0.003 A 
ATOM      2  C   LIG    1       -1.254   3.387   0.046  0.00  0.00    +0.067 A 
ATOM      3  C   LIG    1       -0.074   4.099   0.259  0.00  0.00    +0.016 A 
ATOM      4  C   LIG    1        1.140   3.444   0.229  0.00  0.00    +0.004 A 
ATOM      5  C   LIG    1        1.190   2.083  -0.012  0.00  0.00    +0.038 A 
ATOM      6  C   LIG    1        0.022   1.369  -0.224  0.00  0.00    +0.127 A 
ATOM      7  F   LIG    1        0.077   0.039  -0.459  0.00  0.00    -0.205 F 
ENDROOT
BRANCH   2   8
ATOM      8  C   LIG    1       -2.560   4.085   0.078  0.00  0.00    +0.271 C 
ATOM      9  N   LIG    1       -3.690   3.460  -0.007  0.00  0.00    -0.272 N 
ATOM     10  H   LIG    1       -3.796   2.443  -0.104  0.00  0.00    +0.304 HD
ATOM     11  C   LIG    1       -4.800   4.424   0.057  0.00  0.00    +0.276 C 
ATOM     12  C   LIG    1       -4.104   5.793   0.191  0.00  0.00    +0.268 C 
ATOM     13  N   LIG    1       -2.673   5.446   0.193  0.00  0.00    -0.233 N 
ATOM     14  H   LIG    1       -1.937   6.074   0.264  0.00  0.00    +0.291 HD
ENDBRANCH   2   8
BRANCH   1  15
ATOM     15  C   LIG    1       -2.470   1.240  -0.439  0.00  0.00    +0.043 C 
BRANCH  15  16
ATOM     16  C   LIG    1       -3.082   0.841   0.905  0.00  0.00    +0.043 C 
BRANCH  16  23
ATOM     17  C   LIG    1       -4.298  -1.302   0.437  0.00  0.00    +0.123 A 
ATOM     18  C   LIG    1       -5.469  -2.014   0.219  0.00  0.00    +0.047 A 
ATOM     19  C   LIG    1       -6.686  -1.361   0.232  0.00  0.00    +0.019 A 
ATOM     20  C   LIG    1       -6.738   0.003   0.461  0.00  0.00    +0.018 A 
ATOM     21 BR   LIG    1       -8.405   0.895   0.476  0.00  0.00    -0.050 Br
ATOM     22  C   LIG    1       -5.572   0.714   0.684  0.00  0.00    +0.022 A 
ATOM     23  C   LIG    1       -4.352   0.065   0.667  0.00  0.00    -0.004 A 
BRANCH  17  25
ATOM     24  C   LIG    1       -3.119  -3.351   0.183  0.00  0.00    +0.277 C 
ATOM     25  O   LIG    1       -3.099  -1.943   0.426  0.00  0.00    -0.495 OA
ENDBRANCH  17  25
ENDBRANCH  16  23
ENDBRANCH  15  16
ENDBRANCH   1  15
TORSDOF 5
