REMARK  Name = ZINC03975277
REMARK                            x       y       z     vdW  Elec       q    Type
REMARK                         _______ _______ _______ _____ _____    ______ ____
ROOT
ATOM      1  C   LIG    1        1.165   2.096   0.002  0.00  0.00    +0.031 A 
ATOM      2  C   LIG    1       -0.017   1.382   0.010  0.00  0.00    +0.043 A 
ATOM      3 CL   LIG    1       -1.534   2.225   0.021  0.00  0.00    -0.083 Cl
ATOM      4  C   LIG    1        0.002  -0.004   0.002  0.00  0.00    +0.043 A 
ATOM      5  C   LIG    1        1.202  -0.693  -0.013  0.00  0.00    +0.085 A 
ATOM      6 CL   LIG    1        1.209  -2.428  -0.022  0.00  0.00    -0.080 Cl
ATOM      7  C   LIG    1        2.397   0.006  -0.020  0.00  0.00    +0.147 A 
ATOM      8  O   LIG    1        3.590  -0.639  -0.035  0.00  0.00    -0.473 OA
ATOM      9  C   LIG    1        4.674  -0.027   0.666  0.00  0.00    +0.314 C 
ATOM     10  C   LIG    1        4.783   1.430   0.298  0.00  0.00    +0.086 C 
ATOM     11  C   LIG    1        3.665   2.129  -0.021  0.00  0.00    +0.026 C 
ATOM     12  C   LIG    1        2.381   1.412  -0.013  0.00  0.00    +0.020 A 
ENDROOT
BRANCH   9  13
ATOM     13  C   LIG    1        4.437  -0.153   2.172  0.00  0.00    +0.431 C 
ATOM     14  F   LIG    1        3.240   0.487   2.511  0.00  0.00    -0.167 F 
ATOM     15  F   LIG    1        5.497   0.445   2.862  0.00  0.00    -0.167 F 
ATOM     16  F   LIG    1        4.358  -1.505   2.520  0.00  0.00    -0.167 F 
ENDBRANCH   9  13
BRANCH  10  17
ATOM     17  C   LIG    1        6.049   2.068   0.287  0.00  0.00    +0.337 C 
ATOM     18  O   LIG    1        6.135   3.244  -0.010  0.00  0.00    -0.245 OA
BRANCH  17  19
ATOM     19  O   LIG    1        7.160   1.370   0.605  0.00  0.00    -0.477 OA
ATOM     20  H   LIG    1        7.094   0.464   0.833  0.00  0.00    +0.295 HD
ENDBRANCH  17  19
ENDBRANCH  10  17
TORSDOF 3
