REMARK  Name = ZINC03995923
REMARK                            x       y       z     vdW  Elec       q    Type
REMARK                         _______ _______ _______ _____ _____    ______ ____
ROOT
ATOM      1  C   LIG    1       -3.314  -2.385  -2.844  0.00  0.00    +0.084 C 
ENDROOT
BRANCH   1   2
ATOM      2  N   LIG    1       -4.633  -3.032  -2.858  0.00  0.00    -0.299 NA
ATOM      3  C   LIG    1       -5.696  -2.066  -2.550  0.00  0.00    +0.103 C 
ATOM      4  C   LIG    1       -7.028  -2.808  -2.395  0.00  0.00    +0.123 C 
ATOM      5  N   LIG    1       -7.254  -3.618  -3.602  0.00  0.00    -0.297 N 
ATOM      6  C   LIG    1       -6.176  -4.511  -4.052  0.00  0.00    +0.123 C 
ATOM      7  C   LIG    1       -4.878  -3.702  -4.142  0.00  0.00    +0.103 C 
BRANCH   5   8
ATOM      8  C   LIG    1       -8.450  -3.542  -4.295  0.00  0.00    +0.218 A 
ATOM      9  N   LIG    1       -9.397  -2.722  -3.863  0.00  0.00    -0.220 NA
ATOM     10  C   LIG    1      -10.552  -2.625  -4.501  0.00  0.00    +0.154 A 
ATOM     11  C   LIG    1      -10.764  -3.394  -5.636  0.00  0.00    +0.160 A 
ATOM     12  F   LIG    1      -11.931  -3.320  -6.312  0.00  0.00    -0.202 F 
ATOM     13  C   LIG    1       -9.751  -4.242  -6.061  0.00  0.00    +0.154 A 
ATOM     14  N   LIG    1       -8.618  -4.286  -5.378  0.00  0.00    -0.220 NA
ENDBRANCH   5   8
ENDBRANCH   1   2
BRANCH   1  15
ATOM     15  C   LIG    1       -2.990  -1.917  -1.424  0.00  0.00    +0.018 C 
BRANCH  15  16
ATOM     16  C   LIG    1       -1.617  -1.243  -1.410  0.00  0.00    +0.037 C 
BRANCH  16  17
ATOM     17  C   LIG    1       -1.293  -0.775   0.010  0.00  0.00    +0.145 C 
BRANCH  17  24
ATOM     18  C   LIG    1       -0.017   1.378   0.010  0.00  0.00    +0.009 A 
ATOM     19  C   LIG    1        1.170   2.086   0.002  0.00  0.00    +0.039 A 
ATOM     20  C   LIG    1        2.379   1.410  -0.013  0.00  0.00    +0.123 A 
ATOM     21  F   LIG    1        3.540   2.101  -0.021  0.00  0.00    -0.205 F 
ATOM     22  C   LIG    1        2.396   0.026  -0.021  0.00  0.00    +0.039 A 
ATOM     23  C   LIG    1        1.208  -0.680  -0.013  0.00  0.00    +0.009 A 
ATOM     24  C   LIG    1        0.002  -0.004   0.002  0.00  0.00    -0.019 A 
ENDBRANCH  17  24
BRANCH  17  25
ATOM     25  O   LIG    1       -1.166  -1.910   0.869  0.00  0.00    -0.387 OA
ATOM     26  H   LIG    1       -0.469  -2.526   0.606  0.00  0.00    +0.210 HD
ENDBRANCH  17  25
ENDBRANCH  16  17
ENDBRANCH  15  16
ENDBRANCH   1  15
TORSDOF 7
