REMARK  Name = ZINC03965738
REMARK                            x       y       z     vdW  Elec       q    Type
REMARK                         _______ _______ _______ _____ _____    ______ ____
ROOT
ATOM      1  N   LIG    1        4.080   2.444  -1.405  0.00  0.00    -0.233 N 
ATOM      2  C   LIG    1        5.057   1.690  -1.947  0.00  0.00    +0.408 C 
ATOM      3  O   LIG    1        5.367   0.634  -1.431  0.00  0.00    -0.226 OA
ENDROOT
BRANCH   1   6
ATOM      4  C   LIG    1        2.561   4.668  -3.910  0.00  0.00    +0.005 A 
ATOM      5  C   LIG    1        2.983   3.519  -3.269  0.00  0.00    +0.024 A 
ATOM      6  C   LIG    1        3.652   3.607  -2.056  0.00  0.00    +0.042 A 
ATOM      7  C   LIG    1        3.890   4.850  -1.485  0.00  0.00    +0.062 A 
ATOM      8  C   LIG    1        3.471   5.998  -2.133  0.00  0.00    +0.125 A 
ATOM      9  F   LIG    1        3.707   7.209  -1.583  0.00  0.00    -0.205 F 
ATOM     10  C   LIG    1        2.804   5.906  -3.344  0.00  0.00    +0.038 A 
ENDBRANCH   1   6
BRANCH   2  11
ATOM     11  O   LIG    1        5.690   2.106  -3.061  0.00  0.00    -0.448 OA
BRANCH  11  12
ATOM     12  C   LIG    1        6.731   1.243  -3.588  0.00  0.00    +0.165 C 
ATOM     13  C   LIG    1        6.124   0.265  -4.598  0.00  0.00    -0.033 C 
ATOM     14  N   LIG    1        6.745   0.445  -5.928  0.00  0.00    +0.382 N 
ATOM     15  H   LIG    1        6.323  -0.221  -6.586  0.00  0.00    -0.082 HD
ATOM     16  C   LIG    1        6.506   1.819  -6.417  0.00  0.00    -0.078 C 
ATOM     17  C   LIG    1        7.123   2.842  -5.458  0.00  0.00    -0.012 C 
ATOM     18  C   LIG    1        8.198   0.183  -5.848  0.00  0.00    -0.078 C 
ATOM     19  C   LIG    1        8.864   1.159  -4.873  0.00  0.00    -0.012 C 
ATOM     20  C   LIG    1        7.792   2.093  -4.299  0.00  0.00    +0.025 C 
ENDBRANCH  11  12
ENDBRANCH   2  11
BRANCH   1  21
ATOM     21  C   LIG    1        3.466   2.046  -0.136  0.00  0.00    +0.152 C 
BRANCH  21  22
ATOM     22  C   LIG    1        2.281   1.155  -0.408  0.00  0.00    -0.024 A 
ATOM     23  C   LIG    1        1.026   1.709  -0.576  0.00  0.00    +0.046 A 
ATOM     24  C   LIG    1       -0.064   0.893  -0.826  0.00  0.00    +0.162 A 
ATOM     25  F   LIG    1       -1.290   1.435  -0.995  0.00  0.00    -0.202 F 
ATOM     26  C   LIG    1        0.105  -0.481  -0.908  0.00  0.00    +0.193 A 
ATOM     27  F   LIG    1       -0.958  -1.279  -1.152  0.00  0.00    -0.199 F 
ATOM     28  C   LIG    1        1.364  -1.034  -0.740  0.00  0.00    +0.162 A 
ATOM     29  F   LIG    1        1.531  -2.372  -0.820  0.00  0.00    -0.202 F 
ATOM     30  C   LIG    1        2.451  -0.214  -0.490  0.00  0.00    +0.046 A 
ENDBRANCH  21  22
ENDBRANCH   1  21
TORSDOF 5
