REMARK  Name = ZINC03954245
REMARK                            x       y       z     vdW  Elec       q    Type
REMARK                         _______ _______ _______ _____ _____    ______ ____
ROOT
ATOM      1  C   LIG    1        1.299 -10.939   1.993  0.00  0.00    +0.007 A 
ATOM      2  C   LIG    1        1.409 -11.220   0.628  0.00  0.00    +0.035 A 
ATOM      3  C   LIG    1        2.650 -11.444   0.068  0.00  0.00    +0.071 A 
ATOM      4  N   LIG    1        3.770 -11.391   0.848  0.00  0.00    -0.302 N 
ATOM      5  C   LIG    1        4.942 -11.664   0.006  0.00  0.00    +0.162 C 
ATOM      6  C   LIG    1        4.422 -11.894  -1.390  0.00  0.00    +0.000 A 
ATOM      7  C   LIG    1        5.037 -12.183  -2.568  0.00  0.00    +0.017 A 
ATOM      8  C   LIG    1        4.235 -12.338  -3.716  0.00  0.00    +0.001 A 
ATOM      9  C   LIG    1        4.800 -12.637  -4.965  0.00  0.00    +0.010 A 
ATOM     10  C   LIG    1        3.993 -12.779  -6.053  0.00  0.00    +0.001 A 
ATOM     11  C   LIG    1        2.612 -12.632  -5.943  0.00  0.00    +0.002 A 
ATOM     12  C   LIG    1        2.029 -12.343  -4.748  0.00  0.00    +0.028 A 
ATOM     13  C   LIG    1        2.830 -12.188  -3.600  0.00  0.00    +0.072 A 
ATOM     14  N   LIG    1        2.283 -11.904  -2.417  0.00  0.00    -0.245 NA
ATOM     15  C   LIG    1        3.679 -11.121   2.166  0.00  0.00    +0.258 A 
ATOM     16  O   LIG    1        4.690 -11.077   2.848  0.00  0.00    -0.267 OA
ATOM     17  C   LIG    1        3.025 -11.756  -1.331  0.00  0.00    +0.093 A 
ATOM     18  C   LIG    1        2.427 -10.883   2.759  0.00  0.00    +0.049 A 
ENDROOT
BRANCH   1  19
ATOM     19  C   LIG    1       -0.053 -10.693   2.612  0.00  0.00    +0.187 C 
BRANCH  19  21
ATOM     20  C   LIG    1       -2.107 -11.899   3.368  0.00  0.00    +0.007 C 
ATOM     21  C   LIG    1       -0.589 -11.999   3.202  0.00  0.00    +0.048 C 
ENDBRANCH  19  21
BRANCH  19  22
ATOM     22  O   LIG    1       -0.956 -10.216   1.612  0.00  0.00    -0.373 OA
ATOM     23  H   LIG    1       -1.187 -10.876   0.944  0.00  0.00    +0.211 HD
ENDBRANCH  19  22
BRANCH  19  24
ATOM     24  C   LIG    1        0.075  -9.664   3.705  0.00  0.00    +0.341 C 
ATOM     25  O   LIG    1        0.929  -8.797   3.630  0.00  0.00    -0.247 OA
BRANCH  24  26
ATOM     26  O   LIG    1       -0.676  -9.697   4.665  0.00  0.00    -0.478 OA
ATOM     27  H   LIG    1       -1.333 -10.363   4.724  0.00  0.00    +0.295 HD
ENDBRANCH  24  26
ENDBRANCH  19  24
ENDBRANCH   1  19
BRANCH  18  28
ATOM     28  C   LIG    1        2.331 -10.575   4.231  0.00  0.00    +0.196 C 
BRANCH  28  29
ATOM     29  O   LIG    1        1.136 -11.152   4.761  0.00  0.00    -0.390 OA
ATOM     30  H   LIG    1        1.020 -11.012   5.711  0.00  0.00    +0.210 HD
ENDBRANCH  28  29
ENDBRANCH  18  28
TORSDOF 7
