REMARK  Name = ZINC03914813
REMARK                            x       y       z     vdW  Elec       q    Type
REMARK                         _______ _______ _______ _____ _____    ______ ____
ROOT
ATOM      1  C   LIG    1        1.795   1.397   1.429  0.00  0.00    -0.002 C 
ATOM      2  C   LIG    1        0.584   1.234   2.381  0.00  0.00    +0.004 C 
ATOM      3  C   LIG    1       -0.683   1.537   1.534  0.00  0.00    +0.005 C 
ATOM      4  C   LIG    1       -0.217   1.247   0.103  0.00  0.00    +0.001 C 
ATOM      5  C   LIG    1       -0.995   1.920  -1.012  0.00  0.00    +0.025 C 
ATOM      6  C   LIG    1       -2.440   1.417  -1.031  0.00  0.00    +0.118 C 
ATOM      7  C   LIG    1       -3.191   2.072  -2.192  0.00  0.00    +0.035 C 
ATOM      8  C   LIG    1       -2.509   1.710  -3.512  0.00  0.00    +0.000 C 
ATOM      9  C   LIG    1       -1.080   2.250  -3.477  0.00  0.00    -0.026 C 
ATOM     10  C   LIG    1       -1.063   3.766  -3.272  0.00  0.00    +0.012 C 
ATOM     11  C   LIG    1       -0.381   1.846  -4.815  0.00  0.00    +0.010 C 
ATOM     12  C   LIG    1       -0.395   0.327  -4.996  0.00  0.00    +0.032 C 
ATOM     13  C   LIG    1       -1.841  -0.172  -5.014  0.00  0.00    +0.115 C 
ATOM     14  C   LIG    1       -2.523   0.191  -3.693  0.00  0.00    +0.035 C 
ATOM     15  C   LIG    1       -0.326   1.571  -2.332  0.00  0.00    +0.001 C 
ATOM     16  C   LIG    1        1.139   1.992  -2.351  0.00  0.00    +0.005 C 
ATOM     17  C   LIG    1        1.907   1.403  -1.156  0.00  0.00    +0.007 C 
ATOM     18  C   LIG    1        1.205   1.870   0.104  0.00  0.00    -0.026 C 
ATOM     19  C   LIG    1        1.100   3.397   0.101  0.00  0.00    +0.012 C 
ENDROOT
BRANCH   1  21
ATOM     20  C   LIG    1        3.974   2.559   1.051  0.00  0.00    +0.008 C 
ATOM     21  C   LIG    1        2.765   2.444   1.981  0.00  0.00    -0.010 C 
BRANCH  21  22
ATOM     22  C   LIG    1        3.232   2.021   3.375  0.00  0.00    +0.013 C 
BRANCH  22  23
ATOM     23  C   LIG    1        4.103   3.125   3.978  0.00  0.00    +0.096 C 
BRANCH  23  24
ATOM     24  C   LIG    1        4.564   2.708   5.351  0.00  0.00    +0.213 C 
ATOM     25  N   LIG    1        5.348   3.529   6.077  0.00  0.00    -0.314 N 
ATOM     26  H   LIG    1        5.616   4.388   5.716  0.00  0.00    +0.149 HD
ATOM     27  O   LIG    1        4.228   1.633   5.803  0.00  0.00    -0.276 OA
BRANCH  25  28
ATOM     28  C   LIG    1        5.795   3.124   7.412  0.00  0.00    +0.129 C 
BRANCH  28  29
ATOM     29  C   LIG    1        6.666   4.228   8.015  0.00  0.00    +0.216 C 
BRANCH  29  30
ATOM     30  S   LIG    1        7.220   3.726   9.668  0.00  0.00    +0.081 S 
ATOM     31  O   LIG    1        8.123   2.633   9.570  0.00  0.00    -0.147 OA
ATOM     32  O   LIG    1        6.116   3.676  10.560  0.00  0.00    -0.147 OA
BRANCH  30  33
ATOM     33  O   LIG    1        8.069   4.888  10.165  0.00  0.00    -0.254 OA
ATOM     34  H   LIG    1        7.514   5.678  10.256  0.00  0.00    +0.244 HD
ENDBRANCH  30  33
ENDBRANCH  29  30
ENDBRANCH  28  29
ENDBRANCH  25  28
ENDBRANCH  23  24
ENDBRANCH  22  23
ENDBRANCH  21  22
ENDBRANCH   1  21
BRANCH   6  35
ATOM     35  O   LIG    1       -3.079   1.756   0.202  0.00  0.00    -0.391 OA
ATOM     36  H   LIG    1       -4.000   1.468   0.260  0.00  0.00    +0.210 HD
ENDBRANCH   6  35
BRANCH  13  37
ATOM     37  O   LIG    1       -1.853  -1.591  -5.182  0.00  0.00    -0.392 OA
ATOM     38  H   LIG    1       -1.436  -1.893  -6.001  0.00  0.00    +0.210 HD
ENDBRANCH  13  37
TORSDOF 10
