REMARK  Name = ZINC03875281
REMARK                            x       y       z     vdW  Elec       q    Type
REMARK                         _______ _______ _______ _____ _____    ______ ____
ROOT
ATOM      1  C   UNK A  0        0.810   3.526  -3.669  0.00  0.00    +0.026 C 
ATOM      2  C   UNK A  0        1.496   3.687  -2.311  0.00  0.00    -0.037 C 
ATOM      3  C   UNK A  0        2.124   5.079  -2.219  0.00  0.00    +0.132 C 
ATOM      4  C   UNK A  0        3.157   5.248  -3.336  0.00  0.00    +0.173 C 
ATOM      5  C   UNK A  0        2.470   5.087  -4.694  0.00  0.00    +0.179 C 
ATOM      6  C   UNK A  0        1.842   3.695  -4.785  0.00  0.00    +0.116 C 
ENDROOT
BRANCH   2   7
ATOM      7  N   SER A  1        0.494   3.527  -1.240  0.00  0.00    +0.388 N 
ATOM      8  H1  SER A  1        0.026   4.426  -1.078  0.00  0.00    -0.085 HD
ATOM      9  H2  SER A  1       -0.199   2.826  -1.527  0.00  0.00    -0.085 HD
BRANCH   7  10
ATOM     10  CA  SER A  1        1.145   3.085   0.008  0.00  0.00    -0.020 C 
BRANCH  10  11
ATOM     11  CB  SER A  1        0.285   3.510   1.200  0.00  0.00    +0.142 C 
BRANCH  11  12
ATOM     12  OG  SER A  1       -0.966   2.822   1.154  0.00  0.00    -0.397 OA
ATOM     13  H   SER A  1       -1.564   3.043   1.881  0.00  0.00    +0.209 HD
ENDBRANCH  11  12
ENDBRANCH  10  11
BRANCH  10  14
ATOM     14  C   SER A  1        1.286   1.562  -0.002  0.00  0.00    +0.142 C 
BRANCH  14  15
ATOM     15  O   SER A  1       -0.011   0.963   0.007  0.00  0.00    -0.397 OA
ATOM     16  H   SER A  1        0.002  -0.004   0.002  0.00  0.00    +0.209 HD
ENDBRANCH  14  15
ENDBRANCH  10  14
ENDBRANCH   7  10
ENDBRANCH   2   7
BRANCH   3  17
ATOM     17  O   UNK A  0        1.105   6.072  -2.359  0.00  0.00    -0.391 OA
ATOM     18  H   UNK A  0        1.432   6.980  -2.310  0.00  0.00    +0.210 HD
ENDBRANCH   3  17
BRANCH   4  19
ATOM     19  O   UNK A  0        3.743   6.548  -3.250  0.00  0.00    -0.387 OA
ATOM     20  H   UNK A  0        4.197   6.720  -2.413  0.00  0.00    +0.210 HD
ENDBRANCH   4  19
BRANCH   5  21
ATOM     21  O   UNK A  0        1.451   6.079  -4.833  0.00  0.00    -0.386 OA
ATOM     22  H   UNK A  0        1.778   6.988  -4.785  0.00  0.00    +0.210 HD
ENDBRANCH   5  21
BRANCH   6  23
ATOM     23  O   UNK A  0        2.861   2.702  -4.646  0.00  0.00    -0.384 OA
ATOM     24  H   UNK A  0        3.551   2.749  -5.322  0.00  0.00    +0.210 HD
ENDBRANCH   6  23
BRANCH   6  25
ATOM     25  C   UNK A  0        1.156   3.533  -6.143  0.00  0.00    +0.193 C 
BRANCH  25  26
ATOM     26  O   UNK A  0        2.120   3.691  -7.186  0.00  0.00    -0.392 OA
ATOM     27  H   UNK A  0        1.754   3.601  -8.077  0.00  0.00    +0.210 HD
ENDBRANCH  25  26
ENDBRANCH   6  25
TORSDOF 12
