REMARK  Name = ZINC03964325
REMARK                            x       y       z     vdW  Elec       q    Type
REMARK                         _______ _______ _______ _____ _____    ______ ____
ROOT
ATOM      1  C   LIG    1       -0.106  -5.127   3.392  0.00  0.00    +0.060 A 
ATOM      2  C   LIG    1        0.907  -6.032   3.009  0.00  0.00    -0.013 A 
ATOM      3  C   LIG    1        2.199  -5.692   2.312  0.00  0.00    +0.047 C 
ATOM      4  C   LIG    1        0.487  -7.289   3.396  0.00  0.00    +0.044 A 
ATOM      5  N   LIG    1       -0.748  -7.160   3.998  0.00  0.00    -0.358 N 
ATOM      6  H   LIG    1       -1.273  -7.888   4.364  0.00  0.00    +0.166 HD
ATOM      7  C   LIG    1       -1.104  -5.864   4.002  0.00  0.00    +0.026 A 
ATOM      8  C   LIG    1       -2.382  -5.307   4.574  0.00  0.00    +0.064 C 
ENDROOT
BRANCH   4   9
ATOM      9  C   LIG    1        1.196  -8.496   3.208  0.00  0.00    +0.039 C 
ATOM     10  C   LIG    1        0.510  -9.667   2.957  0.00  0.00    +0.048 C 
ATOM     11  C   LIG    1        1.065 -11.038   2.887  0.00  0.00    +0.011 A 
ATOM     12  C   LIG    1        2.347 -11.556   3.038  0.00  0.00    +0.048 A 
ATOM     13  C   LIG    1        2.555 -12.916   2.912  0.00  0.00    +0.124 A 
ATOM     14  F   LIG    1        3.798 -13.425   3.056  0.00  0.00    -0.205 F 
ATOM     15  C   LIG    1        1.489 -13.759   2.637  0.00  0.00    +0.040 A 
ATOM     16  C   LIG    1        0.214 -13.253   2.486  0.00  0.00    +0.027 A 
ATOM     17  C   LIG    1       -0.014 -11.887   2.609  0.00  0.00    +0.042 A 
ATOM     18  N   LIG    1       -1.177 -11.130   2.507  0.00  0.00    -0.281 N 
ATOM     19  H   LIG    1       -2.054 -11.498   2.319  0.00  0.00    +0.155 HD
ATOM     20  C   LIG    1       -0.929  -9.825   2.708  0.00  0.00    +0.249 C 
ATOM     21  O   LIG    1       -1.754  -8.928   2.684  0.00  0.00    -0.270 OA
ENDBRANCH   4   9
BRANCH   1  24
ATOM     22  N   LIG    1       -0.620  -3.144   2.058  0.00  0.00    -0.313 N 
ATOM     23  H   LIG    1       -1.000  -3.728   1.382  0.00  0.00    +0.149 HD
ATOM     24  C   LIG    1       -0.099  -3.667   3.185  0.00  0.00    +0.246 C 
ATOM     25  O   LIG    1        0.378  -2.936   4.031  0.00  0.00    -0.270 OA
BRANCH  22  26
ATOM     26  C   LIG    1       -0.613  -1.694   1.852  0.00  0.00    +0.086 C 
BRANCH  26  27
ATOM     27  C   LIG    1       -1.259  -1.366   0.504  0.00  0.00    -0.060 C 
BRANCH  27  28
ATOM     28  N   LIG    1       -1.252   0.088   0.298  0.00  0.00    +0.380 N 
ATOM     29  H   LIG    1       -1.701   0.541   1.080  0.00  0.00    -0.082 HD
BRANCH  28  31
ATOM     30  C   LIG    1        0.149   2.088   0.115  0.00  0.00    -0.017 C 
ATOM     31  C   LIG    1        0.135   0.560   0.189  0.00  0.00    -0.082 C 
ENDBRANCH  28  31
BRANCH  28  32
ATOM     32  C   LIG    1       -1.978   0.411  -0.938  0.00  0.00    -0.082 C 
ATOM     33  C   LIG    1       -3.455   0.048  -0.771  0.00  0.00    -0.017 C 
ENDBRANCH  28  32
ENDBRANCH  27  28
ENDBRANCH  26  27
ENDBRANCH  22  26
ENDBRANCH   1  24
TORSDOF 7
