REMARK  Name = ZINC03961882
REMARK                            x       y       z     vdW  Elec       q    Type
REMARK                         _______ _______ _______ _____ _____    ______ ____
ROOT
ATOM      1  C   LIG    1       -0.386   2.009  -1.026  0.00  0.00    +0.045 A 
ATOM      2  C   LIG    1        0.770   2.774  -1.056  0.00  0.00    +0.044 A 
ATOM      3  C   LIG    1        1.993   2.171  -1.289  0.00  0.00    +0.043 A 
ATOM      4 CL   LIG    1        3.439   3.130  -1.326  0.00  0.00    -0.083 Cl
ATOM      5  C   LIG    1        2.066   0.804  -1.494  0.00  0.00    +0.021 A 
ATOM      6  C   LIG    1        0.918   0.034  -1.465  0.00  0.00    +0.018 A 
ATOM      7  C   LIG    1       -0.312   0.631  -1.232  0.00  0.00    +0.034 A 
ENDROOT
BRANCH   1  14
ATOM      8  C   LIG    1       -3.054   4.609   2.101  0.00  0.00    -0.012 C 
ATOM      9  C   LIG    1       -3.040   3.874   0.759  0.00  0.00    -0.053 C 
ATOM     10  N   LIG    1       -3.353   4.835  -0.320  0.00  0.00    +0.390 N 
ATOM     11  H   LIG    1       -2.636   5.570  -0.331  0.00  0.00    -0.081 HD
ATOM     12  C   LIG    1       -3.351   4.143  -1.626  0.00  0.00    -0.058 C 
ATOM     13  C   LIG    1       -1.958   3.560  -1.874  0.00  0.00    +0.086 C 
ATOM     14  N   LIG    1       -1.625   2.618  -0.795  0.00  0.00    -0.332 N 
ATOM     15  C   LIG    1       -1.647   3.290   0.511  0.00  0.00    +0.089 C 
BRANCH  10  16
ATOM     16  C   LIG    1       -4.673   5.455  -0.078  0.00  0.00    +0.044 C 
BRANCH  16  17
ATOM     17  C   LIG    1       -5.761   4.412  -0.121  0.00  0.00    +0.288 C 
ATOM     18  O   LIG    1       -5.474   3.243  -0.222  0.00  0.00    -0.253 OA
BRANCH  17  19
ATOM     19  O   LIG    1       -7.049   4.783  -0.047  0.00  0.00    -0.482 OA
ATOM     20  H   LIG    1       -7.271   5.690   0.031  0.00  0.00    +0.295 HD
ENDBRANCH  17  19
ENDBRANCH  16  17
ENDBRANCH  10  16
ENDBRANCH   1  14
BRANCH   7  21
ATOM     21  S   LIG    1       -1.776  -0.348  -1.196  0.00  0.00    -0.088 S 
BRANCH  21  22
ATOM     22  C   LIG    1       -1.228  -1.952  -1.675  0.00  0.00    +0.013 A 
ATOM     23  C   LIG    1       -1.137  -2.283  -3.022  0.00  0.00    +0.018 A 
ATOM     24  C   LIG    1       -0.703  -3.538  -3.396  0.00  0.00    +0.047 A 
ATOM     25  C   LIG    1       -0.368  -4.474  -2.428  0.00  0.00    +0.120 A 
ATOM     26  C   LIG    1       -0.464  -4.147  -1.084  0.00  0.00    +0.047 A 
ATOM     27  C   LIG    1       -0.892  -2.890  -0.707  0.00  0.00    +0.018 A 
BRANCH  25  28
ATOM     28  O   LIG    1        0.055  -5.713  -2.798  0.00  0.00    -0.495 OA
ATOM     29  C   LIG    1        0.129  -5.981  -4.200  0.00  0.00    +0.277 C 
ENDBRANCH  25  28
ENDBRANCH  21  22
ENDBRANCH   7  21
TORSDOF 7
