REMARK  Name = ZINC04097343
REMARK                            x       y       z     vdW  Elec       q    Type
REMARK                         _______ _______ _______ _____ _____    ______ ____
ROOT
ATOM      1  C   LIG    1       10.383  10.290  -2.813  0.00  0.00    +0.030 A 
ATOM      2  C   LIG    1       10.571  10.095  -4.175  0.00  0.00    +0.027 A 
ATOM      3  C   LIG    1       11.276  11.025  -4.914  0.00  0.00    +0.047 A 
ATOM      4  C   LIG    1       11.808  12.145  -4.294  0.00  0.00    +0.121 A 
ATOM      5  C   LIG    1       11.626  12.337  -2.932  0.00  0.00    +0.047 A 
ATOM      6  C   LIG    1       10.915  11.412  -2.193  0.00  0.00    +0.027 A 
ENDROOT
BRANCH   1  10
ATOM      7  N   LIG    1        9.146   6.781  -0.957  0.00  0.00    -0.327 N 
ATOM      8  C   LIG    1        9.616   7.883  -0.107  0.00  0.00    +0.124 C 
ATOM      9  C   LIG    1       10.465   8.844  -0.944  0.00  0.00    +0.124 C 
ATOM     10  N   LIG    1        9.662   9.352  -2.065  0.00  0.00    -0.327 N 
ATOM     11  C   LIG    1        9.191   8.249  -2.915  0.00  0.00    +0.124 C 
ATOM     12  C   LIG    1        8.343   7.290  -2.078  0.00  0.00    +0.124 C 
BRANCH   7  16
ATOM     13  C   LIG    1        6.999   3.989   1.272  0.00  0.00    +0.053 A 
ATOM     14  C   LIG    1        6.417   4.586   0.162  0.00  0.00    +0.028 A 
ATOM     15  C   LIG    1        7.126   5.515  -0.573  0.00  0.00    +0.025 A 
ATOM     16  C   LIG    1        8.425   5.844  -0.209  0.00  0.00    +0.030 A 
ATOM     17  C   LIG    1        9.009   5.242   0.898  0.00  0.00    +0.025 A 
ATOM     18  C   LIG    1        8.298   4.317   1.636  0.00  0.00    +0.028 A 
BRANCH  13  21
ATOM     19  N   LIG    1        4.689   1.736   2.720  0.00  0.00    -0.210 N 
ATOM     20  C   LIG    1        5.014   2.643   1.775  0.00  0.00    +0.351 A 
ATOM     21  N   LIG    1        6.277   3.048   2.022  0.00  0.00    -0.250 N 
ATOM     22  C   LIG    1        6.734   2.381   3.134  0.00  0.00    +0.230 A 
ATOM     23  O   LIG    1        4.299   3.025   0.866  0.00  0.00    -0.244 OA
ATOM     24  N   LIG    1        5.798   1.600   3.567  0.00  0.00    -0.157 NA
BRANCH  19  25
ATOM     25  C   LIG    1        3.412   1.030   2.843  0.00  0.00    +0.109 C 
ATOM     26  C   LIG    1        2.777   1.355   4.197  0.00  0.00    +0.033 C 
BRANCH  25  28
ATOM     27  C   LIG    1        4.168  -0.817   1.341  0.00  0.00    +0.006 C 
ATOM     28  C   LIG    1        3.650  -0.477   2.740  0.00  0.00    +0.023 C 
ENDBRANCH  25  28
ENDBRANCH  19  25
ENDBRANCH  13  21
ENDBRANCH   7  16
ENDBRANCH   1  10
BRANCH   4  29
ATOM     29  O   LIG    1       12.508  13.057  -5.021  0.00  0.00    -0.489 OA
BRANCH  29  30
ATOM     30  C   LIG    1       12.657  12.796  -6.418  0.00  0.00    +0.263 C 
BRANCH  30  31
ATOM     31  C   LIG    1       13.467  13.922  -7.064  0.00  0.00    +0.185 C 
ATOM     32  C   LIG    1       13.648  13.666  -8.581  0.00  0.00    +0.198 C 
ATOM     33  O   LIG    1       13.820  15.011  -9.087  0.00  0.00    -0.341 OA
ATOM     34  C   LIG    1       12.949  15.822  -8.282  0.00  0.00    +0.219 C 
ATOM     35  O   LIG    1       12.733  15.163  -7.027  0.00  0.00    -0.334 OA
BRANCH  34  36
ATOM     36  C   LIG    1       13.586  17.167  -8.044  0.00  0.00    +0.031 A 
ATOM     37  C   LIG    1       13.707  17.656  -6.756  0.00  0.00    +0.012 A 
ATOM     38  C   LIG    1       14.291  18.889  -6.537  0.00  0.00    +0.020 A 
ATOM     39  C   LIG    1       14.755  19.636  -7.607  0.00  0.00    +0.042 A 
ATOM     40 CL   LIG    1       15.488  21.185  -7.331  0.00  0.00    -0.083 Cl
ATOM     41  C   LIG    1       14.633  19.147  -8.895  0.00  0.00    +0.040 A 
ATOM     42  C   LIG    1       14.053  17.910  -9.113  0.00  0.00    +0.051 A 
ATOM     43 CL   LIG    1       13.906  17.293 -10.729  0.00  0.00    -0.083 Cl
ENDBRANCH  34  36
BRANCH  34  44
ATOM     44  C   LIG    1       11.611  16.010  -9.001  0.00  0.00    +0.215 C 
BRANCH  44  45
ATOM     45  N   LIG    1       10.749  16.889  -8.207  0.00  0.00    -0.246 N 
ATOM     46  C   LIG    1       10.188  18.043  -8.606  0.00  0.00    +0.219 A 
ATOM     47  N   LIG    1        9.492  18.523  -7.608  0.00  0.00    -0.223 NA
ATOM     48  C   LIG    1        9.584  17.707  -6.559  0.00  0.00    +0.244 A 
ATOM     49  N   LIG    1       10.339  16.689  -6.878  0.00  0.00    -0.158 NA
ENDBRANCH  44  45
ENDBRANCH  34  44
ENDBRANCH  30  31
ENDBRANCH  29  30
ENDBRANCH   4  29
TORSDOF 11
