REMARK  Name = ZINC03963610
REMARK                            x       y       z     vdW  Elec       q    Type
REMARK                         _______ _______ _______ _____ _____    ______ ____
ROOT
ATOM      1  N   LIG    1       -3.623   3.258  -0.096  0.00  0.00    -0.297 N 
ATOM      2  C   LIG    1       -3.640   1.891   0.081  0.00  0.00    +0.138 A 
ATOM      3  C   LIG    1       -2.482   1.139   0.022  0.00  0.00    +0.021 A 
ATOM      4  C   LIG    1       -1.207   1.820  -0.238  0.00  0.00    +0.004 A 
ATOM      5  C   LIG    1        0.008   1.140  -0.315  0.00  0.00    +0.029 A 
ATOM      6  C   LIG    1        1.155   1.864  -0.569  0.00  0.00    +0.115 A 
ATOM      7  N   LIG    1        1.124   3.175  -0.732  0.00  0.00    -0.221 NA
ATOM      8  C   LIG    1        0.003   3.874  -0.664  0.00  0.00    +0.228 A 
ATOM      9  C   LIG    1       -1.210   3.223  -0.411  0.00  0.00    +0.109 A 
ATOM     10  C   LIG    1       -2.484   3.941  -0.325  0.00  0.00    +0.265 A 
ATOM     11  O   LIG    1       -2.516   5.149  -0.475  0.00  0.00    -0.267 OA
ENDROOT
BRANCH   3  12
ATOM     12  C   LIG    1       -2.527  -0.325   0.216  0.00  0.00    -0.008 A 
ATOM     13  C   LIG    1       -2.904  -0.856   1.451  0.00  0.00    +0.058 A 
ATOM     14  C   LIG    1       -2.950  -2.227   1.629  0.00  0.00    +0.166 A 
ATOM     15  C   LIG    1       -2.610  -3.077   0.580  0.00  0.00    +0.204 A 
ATOM     16  C   LIG    1       -2.229  -2.550  -0.650  0.00  0.00    +0.166 A 
ATOM     17  C   LIG    1       -2.187  -1.181  -0.835  0.00  0.00    +0.058 A 
BRANCH  14  18
ATOM     18  O   LIG    1       -3.323  -2.744   2.830  0.00  0.00    -0.491 OA
ATOM     19  C   LIG    1       -3.658  -1.814   3.861  0.00  0.00    +0.277 C 
ENDBRANCH  14  18
BRANCH  15  20
ATOM     20  O   LIG    1       -2.651  -4.425   0.759  0.00  0.00    -0.488 OA
ATOM     21  C   LIG    1       -1.456  -5.054   1.226  0.00  0.00    +0.277 C 
ENDBRANCH  15  20
BRANCH  16  22
ATOM     22  O   LIG    1       -1.898  -3.384  -1.673  0.00  0.00    -0.491 OA
ATOM     23  C   LIG    1       -1.516  -2.776  -2.908  0.00  0.00    +0.277 C 
ENDBRANCH  16  22
ENDBRANCH   3  12
BRANCH   2  24
ATOM     24  C   LIG    1       -4.920   1.218   0.341  0.00  0.00    +0.356 C 
ATOM     25  O   LIG    1       -4.975   0.004   0.363  0.00  0.00    -0.243 OA
BRANCH  24  26
ATOM     26  O   LIG    1       -6.035   1.947   0.554  0.00  0.00    -0.463 OA
ATOM     27  C   LIG    1       -7.263   1.215   0.804  0.00  0.00    +0.280 C 
ENDBRANCH  24  26
ENDBRANCH   2  24
BRANCH   1  28
ATOM     28  C   LIG    1       -4.886   3.997  -0.020  0.00  0.00    +0.161 C 
BRANCH  28  32
ATOM     29  C   LIG    1       -8.118   2.202  -3.407  0.00  0.00    +0.065 C 
ATOM     30  C   LIG    1       -7.060   3.196  -3.005  0.00  0.00    +0.039 A 
ATOM     31  C   LIG    1       -6.497   3.123  -1.745  0.00  0.00    +0.028 A 
ATOM     32  C   LIG    1       -5.524   4.042  -1.385  0.00  0.00    -0.025 A 
ATOM     33  C   LIG    1       -5.155   5.009  -2.308  0.00  0.00    +0.025 A 
ATOM     34  C   LIG    1       -5.758   5.017  -3.552  0.00  0.00    +0.111 A 
ATOM     35  N   LIG    1       -6.681   4.126  -3.860  0.00  0.00    -0.260 NA
ENDBRANCH  28  32
ENDBRANCH   1  28
BRANCH   8  36
ATOM     36  O   LIG    1        0.028   5.217  -0.839  0.00  0.00    -0.468 OA
BRANCH  36  37
ATOM     37  C   LIG    1        1.302   5.814  -1.094  0.00  0.00    +0.306 C 
BRANCH  37  38
ATOM     38  C   LIG    1        1.134   7.303  -1.260  0.00  0.00    +0.167 A 
ATOM     39  N   LIG    1        0.910   7.792  -2.463  0.00  0.00    -0.237 NA
ATOM     40  C   LIG    1        0.754   9.093  -2.647  0.00  0.00    +0.114 A 
ATOM     41  C   LIG    1        0.839   9.943  -1.556  0.00  0.00    +0.039 A 
ATOM     42  C   LIG    1        1.080   9.392  -0.308  0.00  0.00    +0.114 A 
ATOM     43  N   LIG    1        1.221   8.080  -0.200  0.00  0.00    -0.237 NA
ENDBRANCH  37  38
ENDBRANCH  36  37
ENDBRANCH   8  36
TORSDOF 11
