REMARK  Name = ZINC04025449
REMARK                            x       y       z     vdW  Elec       q    Type
REMARK                         _______ _______ _______ _____ _____    ______ ____
ROOT
ATOM      1  C   LIG    1       -0.017   1.378   0.010  0.00  0.00    +0.006 A 
ATOM      2  C   LIG    1        1.171   2.086   0.002  0.00  0.00    +0.033 A 
ATOM      3  C   LIG    1        2.377   1.411  -0.013  0.00  0.00    +0.122 A 
ATOM      4  C   LIG    1        2.396   0.029  -0.020  0.00  0.00    +0.033 A 
ATOM      5  C   LIG    1        1.208  -0.679  -0.012  0.00  0.00    +0.006 A 
ATOM      6  C   LIG    1        0.002  -0.004   0.002  0.00  0.00    -0.046 A 
ENDROOT
BRANCH   3   7
ATOM      7  N   LIG    1        3.649   2.168  -0.022  0.00  0.00    +0.006 N 
ATOM      8  O   LIG    1        3.633   3.377  -0.016  0.00  0.00    -0.130 OA
BRANCH   7   9
ATOM      9  O   LIG    1        4.704   1.578  -0.035  0.00  0.00    -0.396 OA
ATOM     10  H   LIG    1        4.717   0.641  -0.040  0.00  0.00    +0.329 HD
ENDBRANCH   7   9
ENDBRANCH   3   7
BRANCH   6  11
ATOM     11  C   LIG    1       -1.293  -0.775   0.010  0.00  0.00    +0.056 C 
BRANCH  11  12
ATOM     12  C   LIG    1       -1.744  -1.028  -1.429  0.00  0.00    +0.127 C 
BRANCH  12  13
ATOM     13  N   LIG    1       -3.003  -1.778  -1.421  0.00  0.00    -0.337 N 
ATOM     14  C   LIG    1       -3.137  -3.140  -1.422  0.00  0.00    +0.106 A 
ATOM     15  C   LIG    1       -4.458  -3.402  -1.412  0.00  0.00    +0.130 A 
ATOM     16  N   LIG    1       -5.113  -2.231  -1.406  0.00  0.00    -0.244 NA
ATOM     17  C   LIG    1       -4.248  -1.254  -1.406  0.00  0.00    +0.199 A 
ENDBRANCH  12  13
ENDBRANCH  11  12
ENDBRANCH   6  11
TORSDOF 5
