REMARK  Name = ZINC03881421
REMARK                            x       y       z     vdW  Elec       q    Type
REMARK                         _______ _______ _______ _____ _____    ______ ____
ROOT
ATOM      1  C   LIG    1       -0.019   1.526   0.010  0.00  0.00    +0.019 C 
ATOM      2  C   LIG    1        0.002  -0.004   0.002  0.00  0.00    +0.029 C 
ATOM      3  C   LIG    1       -1.416  -0.534   0.074  0.00  0.00    +0.015 C 
ATOM      4  C   LIG    1       -2.078   0.105   1.305  0.00  0.00    +0.006 C 
ATOM      5  C   LIG    1       -1.299  -0.193   2.582  0.00  0.00    +0.006 C 
ATOM      6  C   LIG    1        0.172   0.234   2.465  0.00  0.00    -0.002 C 
ATOM      7  C   LIG    1        0.923  -0.152   3.741  0.00  0.00    +0.008 C 
ATOM      8  C   LIG    1        0.346   0.620   4.932  0.00  0.00    +0.032 C 
ATOM      9  C   LIG    1       -1.146   0.354   4.989  0.00  0.00    -0.056 C 
ATOM     10  C   LIG    1       -1.684  -0.056   6.129  0.00  0.00    +0.051 C 
ATOM     11  C   LIG    1       -3.124  -0.342   6.217  0.00  0.00    +0.179 C 
ATOM     12  C   LIG    1       -3.942  -0.207   5.000  0.00  0.00    +0.047 C 
ATOM     13  C   LIG    1       -3.386   0.210   3.874  0.00  0.00    -0.012 C 
ATOM     14  O   LIG    1       -3.628  -0.684   7.271  0.00  0.00    -0.288 OA
ATOM     15  C   LIG    1       -1.926   0.575   3.749  0.00  0.00    +0.011 C 
ATOM     16  C   LIG    1       -1.847   2.067   3.421  0.00  0.00    +0.020 C 
ATOM     17  C   LIG    1        0.845  -0.491  -1.139  0.00  0.00    +0.139 C 
ATOM     18  O   LIG    1        0.470  -0.778  -2.250  0.00  0.00    -0.297 OA
ATOM     19  C   LIG    1        2.274  -0.552  -0.608  0.00  0.00    +0.075 C 
ATOM     20  C   LIG    1        2.204  -0.183   0.899  0.00  0.00    +0.012 C 
ATOM     21  C   LIG    1        0.752  -0.523   1.258  0.00  0.00    +0.006 C 
ENDROOT
TORSDOF 0
