REMARK  Name = ZINC03881873
REMARK                            x       y       z     vdW  Elec       q    Type
REMARK                         _______ _______ _______ _____ _____    ______ ____
ROOT
ATOM      1  C   LIG    1       -0.168   1.083   0.368  0.00  0.00    +0.012 C 
ATOM      2  C   LIG    1       -0.041  -0.434   0.275  0.00  0.00    +0.013 C 
ATOM      3  C   LIG    1        0.538  -0.803  -1.098  0.00  0.00    +0.011 C 
ATOM      4  C   LIG    1        0.660  -2.320  -1.200  0.00  0.00    -0.003 C 
ATOM      5  C   LIG    1        1.622  -2.841  -0.137  0.00  0.00    +0.002 C 
ATOM      6  C   LIG    1        1.147  -2.487   1.272  0.00  0.00    -0.007 C 
ATOM      7  C   LIG    1       -0.162  -3.242   1.537  0.00  0.00    +0.016 C 
ATOM      8  C   LIG    1        2.155  -2.990   2.288  0.00  0.00    +0.019 C 
ATOM      9  C   LIG    1        2.010  -2.299   3.642  0.00  0.00    +0.080 C 
ATOM     10  C   LIG    1        2.149  -0.809   3.402  0.00  0.00    +0.156 C 
ATOM     11  O   LIG    1        2.876  -0.118   4.082  0.00  0.00    -0.293 OA
ATOM     12  C   LIG    1        1.328  -0.240   2.323  0.00  0.00    +0.046 C 
ATOM     13  C   LIG    1        2.997  -2.224  -0.409  0.00  0.00    +0.005 C 
ATOM     14  C   LIG    1        3.515  -2.791  -1.728  0.00  0.00    +0.011 C 
ATOM     15  C   LIG    1        2.585  -2.544  -2.891  0.00  0.00    +0.018 C 
ATOM     16  C   LIG    1        2.978  -3.559  -3.989  0.00  0.00    +0.016 C 
ATOM     17  C   LIG    1        2.744  -1.149  -3.504  0.00  0.00    +0.176 C 
ATOM     18  C   LIG    1        1.325  -0.648  -3.833  0.00  0.00    +0.057 C 
ATOM     19  C   LIG    1        0.383  -1.851  -3.634  0.00  0.00    +0.009 C 
ATOM     20  C   LIG    1        1.100  -2.753  -2.594  0.00  0.00    +0.003 C 
ATOM     21  C   LIG    1        0.844  -1.014   1.359  0.00  0.00    -0.057 C 
ENDROOT
BRANCH  17  22
ATOM     22  C   LIG    1        3.556  -1.243  -4.776  0.00  0.00    +0.174 C 
ATOM     23  C   LIG    1        5.059  -1.156  -4.719  0.00  0.00    +0.090 C 
ATOM     24  O   LIG    1        2.999  -1.388  -5.838  0.00  0.00    -0.293 OA
ENDBRANCH  17  22
BRANCH  17  25
ATOM     25  O   LIG    1        3.389  -0.259  -2.593  0.00  0.00    -0.450 OA
BRANCH  25  26
ATOM     26  C   LIG    1        3.541   1.014  -2.990  0.00  0.00    +0.305 C 
ATOM     27  C   LIG    1        4.289   1.991  -2.120  0.00  0.00    +0.136 C 
ATOM     28  O   LIG    1        3.078   1.377  -4.046  0.00  0.00    -0.251 OA
ENDBRANCH  25  26
ENDBRANCH  17  25
TORSDOF 3
