REMARK  Name = ZINC03881332
REMARK                            x       y       z     vdW  Elec       q    Type
REMARK                         _______ _______ _______ _____ _____    ______ ____
ROOT
ATOM      1  C   LIG    1        4.943   0.807  -0.167  0.00  0.00    -0.002 C 
ATOM      2  C   LIG    1        4.841   0.035  -1.506  0.00  0.00    +0.004 C 
ATOM      3  C   LIG    1        6.159   0.319  -2.277  0.00  0.00    +0.004 C 
ATOM      4  C   LIG    1        7.140   0.680  -1.157  0.00  0.00    -0.001 C 
ATOM      5  C   LIG    1        8.352   1.493  -1.577  0.00  0.00    +0.000 C 
ATOM      6  C   LIG    1        9.252   0.660  -2.494  0.00  0.00    +0.031 C 
ATOM      7  C   LIG    1       10.520   1.417  -2.764  0.00  0.00    -0.027 C 
ATOM      8  C   LIG    1       11.004   2.304  -1.944  0.00  0.00    -0.065 C 
ATOM      9  C   LIG    1       10.357   2.683  -0.645  0.00  0.00    -0.008 C 
ATOM     10  C   LIG    1        9.903   4.140  -0.745  0.00  0.00    +0.016 C 
ATOM     11  C   LIG    1       11.398   2.583   0.474  0.00  0.00    +0.014 C 
ATOM     12  C   LIG    1       12.610   3.445   0.118  0.00  0.00    +0.032 C 
ATOM     13  C   LIG    1       13.272   2.883  -1.141  0.00  0.00    +0.119 C 
ATOM     14  C   LIG    1       12.302   2.998  -2.321  0.00  0.00    +0.062 C 
ATOM     15  C   LIG    1        9.146   1.831  -0.306  0.00  0.00    +0.003 C 
ATOM     16  C   LIG    1        8.292   2.541   0.741  0.00  0.00    +0.005 C 
ATOM     17  C   LIG    1        7.012   1.754   1.062  0.00  0.00    +0.007 C 
ATOM     18  C   LIG    1        6.260   1.573  -0.242  0.00  0.00    -0.026 C 
ATOM     19  C   LIG    1        6.032   2.932  -0.908  0.00  0.00    +0.012 C 
ENDROOT
BRANCH   1  21
ATOM     20  C   LIG    1        3.910   2.558   1.286  0.00  0.00    +0.008 C 
ATOM     21  C   LIG    1        3.771   1.780  -0.024  0.00  0.00    -0.010 C 
BRANCH  21  22
ATOM     22  C   LIG    1        2.457   0.997  -0.016  0.00  0.00    +0.014 C 
BRANCH  22  23
ATOM     23  C   LIG    1        1.280   1.975   0.000  0.00  0.00    +0.121 C 
BRANCH  23  24
ATOM     24  C   LIG    1       -0.014   1.204   0.009  0.00  0.00    +0.307 C 
ATOM     25  O   LIG    1        0.002  -0.004   0.002  0.00  0.00    -0.251 OA
BRANCH  24  26
ATOM     26  O   LIG    1       -1.186   1.859   0.018  0.00  0.00    -0.468 OA
ATOM     27  C   LIG    1       -2.393   1.052   0.019  0.00  0.00    +0.280 C 
ENDBRANCH  24  26
ENDBRANCH  23  24
ENDBRANCH  22  23
ENDBRANCH  21  22
ENDBRANCH   1  21
BRANCH  13  28
ATOM     28  O   LIG    1       14.460   3.624  -1.427  0.00  0.00    -0.391 OA
ATOM     29  H   LIG    1       14.932   3.323  -2.215  0.00  0.00    +0.210 HD
ENDBRANCH  13  28
TORSDOF 6
