REMARK  Name = ZINC03874317
REMARK                            x       y       z     vdW  Elec       q    Type
REMARK                         _______ _______ _______ _____ _____    ______ ____
ROOT
ATOM      1  C   LIG    1        1.168   3.567   0.010  0.00  0.00    +0.181 A 
ATOM      2  C   LIG    1        2.352   4.236   0.100  0.00  0.00    +0.208 A 
ATOM      3  C   LIG    1        2.353   5.655   0.109  0.00  0.00    +0.238 A 
ATOM      4  C   LIG    1        1.050   6.333   0.017  0.00  0.00    +0.109 A 
ATOM      5  C   LIG    1        0.957   7.731   0.018  0.00  0.00    +0.135 A 
ATOM      6  C   LIG    1       -0.285   8.331  -0.070  0.00  0.00    +0.091 A 
ATOM      7  C   LIG    1       -1.433   7.551  -0.158  0.00  0.00    +0.124 A 
ATOM      8  C   LIG    1       -1.349   6.168  -0.160  0.00  0.00    +0.092 A 
ATOM      9  C   LIG    1       -0.112   5.547  -0.073  0.00  0.00    +0.147 A 
ATOM     10  O   LIG    1        3.393   6.288   0.189  0.00  0.00    -0.283 OA
ATOM     11  O   LIG    1       -0.013   4.201  -0.079  0.00  0.00    -0.451 OA
ENDROOT
BRANCH   1  13
ATOM     12  C   LIG    1        2.073   1.406  -0.831  0.00  0.00    +0.061 A 
ATOM     13  C   LIG    1        1.185   2.092   0.002  0.00  0.00    +0.028 A 
ATOM     14  C   LIG    1        0.313   1.378   0.828  0.00  0.00    +0.061 A 
ATOM     15  C   LIG    1        0.331  -0.005   0.819  0.00  0.00    +0.163 A 
ATOM     16  C   LIG    1        1.217  -0.685  -0.012  0.00  0.00    +0.201 A 
ATOM     17  C   LIG    1        2.087   0.024  -0.835  0.00  0.00    +0.163 A 
BRANCH  15  18
ATOM     18  O   LIG    1       -0.517  -0.700   1.623  0.00  0.00    -0.503 OA
ATOM     19  H   LIG    1       -1.369  -0.905   1.212  0.00  0.00    +0.292 HD
ENDBRANCH  15  18
BRANCH  16  20
ATOM     20  O   LIG    1        1.232  -2.045  -0.018  0.00  0.00    -0.501 OA
ATOM     21  H   LIG    1        0.631  -2.442  -0.663  0.00  0.00    +0.292 HD
ENDBRANCH  16  20
BRANCH  17  22
ATOM     22  O   LIG    1        2.950  -0.645  -1.646  0.00  0.00    -0.503 OA
ATOM     23  H   LIG    1        3.806  -0.834  -1.237  0.00  0.00    +0.292 HD
ENDBRANCH  17  22
ENDBRANCH   1  13
BRANCH   2  24
ATOM     24  O   LIG    1        3.524   3.549   0.183  0.00  0.00    -0.501 OA
ATOM     25  H   LIG    1        4.307   4.112   0.244  0.00  0.00    +0.292 HD
ENDBRANCH   2  24
BRANCH   5  26
ATOM     26  O   LIG    1        2.079   8.491   0.106  0.00  0.00    -0.506 OA
ATOM     27  H   LIG    1        2.469   8.716  -0.750  0.00  0.00    +0.292 HD
ENDBRANCH   5  26
BRANCH   7  28
ATOM     28  O   LIG    1       -2.648   8.150  -0.243  0.00  0.00    -0.507 OA
ATOM     29  H   LIG    1       -2.936   8.329  -1.149  0.00  0.00    +0.292 HD
ENDBRANCH   7  28
TORSDOF 7
