REMARK  Name = ZINC03920638
REMARK                            x       y       z     vdW  Elec       q    Type
REMARK                         _______ _______ _______ _____ _____    ______ ____
ROOT
ATOM      1  N   ASP A  3        3.611  -2.479   5.549  0.00  0.00    -0.302 N 
ATOM      2  H   ASP A  3        3.042  -3.186   5.891  0.00  0.00    +0.150 HD
ATOM      3  C   GLY A  2        3.917  -1.423   6.329  0.00  0.00    +0.231 C 
ATOM      4  O   GLY A  2        4.699  -0.584   5.935  0.00  0.00    -0.274 OA
ENDROOT
BRANCH   3   5
ATOM      5  CA  GLY A  2        3.287  -1.285   7.691  0.00  0.00    +0.200 C 
BRANCH   5   6
ATOM      6  N   GLY A  2        3.778  -0.065   8.335  0.00  0.00    -0.308 N 
ATOM      7  H   GLY A  2        4.413   0.506   7.874  0.00  0.00    +0.149 HD
ATOM      8  C   ARG A  1        3.348   0.266   9.569  0.00  0.00    +0.199 C 
ATOM      9  O   ARG A  1        2.555  -0.447  10.146  0.00  0.00    -0.278 OA
BRANCH   8  10
ATOM     10  CA  ARG A  1        3.853   1.522  10.232  0.00  0.00    +0.013 C 
BRANCH  10  11
ATOM     11  N   ARG A  1        2.907   1.920  11.288  0.00  0.00    +0.386 N 
ATOM     12  H1  ARG A  1        1.977   2.056  10.875  0.00  0.00    -0.089 HD
ATOM     13  H2  ARG A  1        3.210   2.792  11.719  0.00  0.00    -0.089 HD
ATOM     14  H3  ARG A  1        2.851   1.192  11.999  0.00  0.00    -0.089 HD
ENDBRANCH  10  11
BRANCH  10  15
ATOM     15  CB  ARG A  1        5.239   1.264  10.825  0.00  0.00    -0.004 C 
BRANCH  15  16
ATOM     16  CG  ARG A  1        5.805   2.569  11.388  0.00  0.00    +0.036 C 
BRANCH  16  17
ATOM     17  CD  ARG A  1        7.191   2.311  11.982  0.00  0.00    +0.195 C 
BRANCH  17  18
ATOM     18  NE  ARG A  1        7.733   3.561  12.520  0.00  0.00    -0.279 N 
ATOM     19  HE  ARG A  1        7.215   4.379  12.462  0.00  0.00    +0.258 HD
BRANCH  18  20
ATOM     20  CZ  ARG A  1        8.975   3.575  13.108  0.00  0.00    +0.341 C 
ATOM     21  NH2 ARG A  1        9.632   2.425  13.157  0.00  0.00    -0.292 N 
ATOM     22 HH21 ARG A  1        9.210   1.575  12.765  0.00  0.00    +0.255 HD
ATOM     23 HH22 ARG A  1       10.558   2.384  13.583  0.00  0.00    +0.255 HD
BRANCH  20  24
ATOM     24  NH1 ARG A  1        9.484   4.748  13.614  0.00  0.00    -0.292 N 
ATOM     25 HH11 ARG A  1       10.360   4.758  14.029  0.00  0.00    +0.255 HD
ATOM     26 HH12 ARG A  1        8.966   5.566  13.555  0.00  0.00    +0.255 HD
ENDBRANCH  20  24
ENDBRANCH  18  20
ENDBRANCH  17  18
ENDBRANCH  16  17
ENDBRANCH  15  16
ENDBRANCH  10  15
ENDBRANCH   8  10
ENDBRANCH   5   6
ENDBRANCH   3   5
BRANCH   1  27
ATOM     27  CA  ASP A  3        4.139  -2.558   4.185  0.00  0.00    +0.169 C 
BRANCH  27  30
ATOM     28  N   PHE A  4        3.474  -3.562   2.024  0.00  0.00    -0.301 N 
ATOM     29  H   PHE A  4        4.286  -3.196   1.640  0.00  0.00    +0.150 HD
ATOM     30  C   ASP A  3        3.192  -3.357   3.326  0.00  0.00    +0.235 C 
ATOM     31  O   ASP A  3        2.177  -3.814   3.806  0.00  0.00    -0.274 OA
BRANCH  28  32
ATOM     32  CA  PHE A  4        2.554  -4.339   1.189  0.00  0.00    +0.186 C 
BRANCH  32  33
ATOM     33  C   PHE A  4        2.858  -5.807   1.338  0.00  0.00    +0.326 C 
ATOM     34  O   PHE A  4        3.752  -6.168   2.067  0.00  0.00    -0.249 OA
BRANCH  33  35
ATOM     35  OXT PHE A  4        2.136  -6.714   0.661  0.00  0.00    -0.479 OA
ATOM     36  HXT PHE A  4        1.443  -6.434   0.096  0.00  0.00    +0.295 HD
ENDBRANCH  33  35
ENDBRANCH  32  33
BRANCH  32  37
ATOM     37  CB  PHE A  4        2.724  -3.928  -0.275  0.00  0.00    +0.069 C 
BRANCH  37  41
ATOM     38  CZ  PHE A  4        1.529   0.144  -0.761  0.00  0.00    +0.000 A 
ATOM     39  CE1 PHE A  4        2.842  -0.159  -0.453  0.00  0.00    +0.000 A 
ATOM     40  CD1 PHE A  4        3.229  -1.477  -0.295  0.00  0.00    +0.004 A 
ATOM     41  CG  PHE A  4        2.303  -2.492  -0.446  0.00  0.00    -0.045 A 
ATOM     42  CD2 PHE A  4        0.991  -2.189  -0.760  0.00  0.00    +0.004 A 
ATOM     43  CE2 PHE A  4        0.603  -0.871  -0.913  0.00  0.00    +0.000 A 
ENDBRANCH  37  41
ENDBRANCH  32  37
ENDBRANCH  28  32
ENDBRANCH  27  30
BRANCH  27  44
ATOM     44  CB  ASP A  3        5.508  -3.241   4.206  0.00  0.00    +0.152 C 
BRANCH  44  45
ATOM     45  CG  ASP A  3        5.381  -4.601   4.843  0.00  0.00    +0.307 C 
ATOM     46  OD1 ASP A  3        4.294  -5.015   5.171  0.00  0.00    -0.251 OA
BRANCH  45  47
ATOM     47  OD2 ASP A  3        6.474  -5.352   5.046  0.00  0.00    -0.481 OA
ATOM     48  HD2 ASP A  3        7.317  -5.031   4.791  0.00  0.00    +0.295 HD
ENDBRANCH  45  47
ENDBRANCH  44  45
ENDBRANCH  27  44
ENDBRANCH   1  27
TORSDOF 20
