REMARK  Name = ZINC04097193
REMARK                            x       y       z     vdW  Elec       q    Type
REMARK                         _______ _______ _______ _____ _____    ______ ____
ROOT
ATOM      1  C   LIG    1       -2.493  -2.860   0.011  0.00  0.00    +0.193 C 
ATOM      2  O   LIG    1       -3.555  -2.271   0.111  0.00  0.00    -0.287 OA
ENDROOT
BRANCH   1   3
ATOM      3  C   LIG    1       -2.474  -4.327  -0.108  0.00  0.00    +0.104 A 
ATOM      4  C   LIG    1       -2.419  -4.932  -1.374  0.00  0.00    +0.135 A 
ATOM      5  C   LIG    1       -2.401  -6.310  -1.477  0.00  0.00    +0.091 A 
ATOM      6  C   LIG    1       -2.436  -7.097  -0.333  0.00  0.00    +0.124 A 
ATOM      7  C   LIG    1       -2.490  -6.507   0.923  0.00  0.00    +0.091 A 
ATOM      8  C   LIG    1       -2.504  -5.129   1.044  0.00  0.00    +0.135 A 
BRANCH   4   9
ATOM      9  O   LIG    1       -2.385  -4.165  -2.493  0.00  0.00    -0.506 OA
ATOM     10  H   LIG    1       -1.492  -3.934  -2.784  0.00  0.00    +0.292 HD
ENDBRANCH   4   9
BRANCH   6  11
ATOM     11  O   LIG    1       -2.418  -8.450  -0.443  0.00  0.00    -0.507 OA
ATOM     12  H   LIG    1       -1.531  -8.833  -0.441  0.00  0.00    +0.292 HD
ENDBRANCH   6  11
BRANCH   8  13
ATOM     13  O   LIG    1       -2.552  -4.555   2.272  0.00  0.00    -0.506 OA
ATOM     14  H   LIG    1       -3.448  -4.397   2.599  0.00  0.00    +0.292 HD
ENDBRANCH   8  13
ENDBRANCH   1   3
BRANCH   1  16
ATOM     15  C   LIG    1       -1.258  -0.759   0.013  0.00  0.00    +0.012 C 
ATOM     16  C   LIG    1       -1.238  -2.110   0.010  0.00  0.00    +0.052 C 
BRANCH  15  22
ATOM     17  C   LIG    1       -0.015   1.395   0.015  0.00  0.00    +0.011 A 
ATOM     18  C   LIG    1        1.169   2.096   0.014  0.00  0.00    +0.046 A 
ATOM     19  C   LIG    1        2.382   1.417   0.010  0.00  0.00    +0.117 A 
ATOM     20  C   LIG    1        2.406   0.027   0.007  0.00  0.00    +0.046 A 
ATOM     21  C   LIG    1        1.228  -0.684   0.007  0.00  0.00    +0.011 A 
ATOM     22  C   LIG    1        0.003  -0.005   0.012  0.00  0.00    -0.025 A 
BRANCH  19  23
ATOM     23  O   LIG    1        3.547   2.113   0.009  0.00  0.00    -0.507 OA
ATOM     24  H   LIG    1        3.887   2.313   0.892  0.00  0.00    +0.292 HD
ENDBRANCH  19  23
ENDBRANCH  15  22
ENDBRANCH   1  16
TORSDOF 7
