REMARK  Name = ZINC03876174
REMARK                            x       y       z     vdW  Elec       q    Type
REMARK                         _______ _______ _______ _____ _____    ______ ____
ROOT
ATOM      1  C   LIG    1       -2.222  -0.034  -1.170  0.00  0.00    +0.087 A 
ATOM      2  C   LIG    1       -3.632  -0.014  -1.125  0.00  0.00    +0.200 A 
ATOM      3  C   LIG    1       -4.342   0.489  -2.319  0.00  0.00    +0.064 A 
ATOM      4  C   LIG    1       -5.733   0.546  -2.366  0.00  0.00    +0.015 A 
ATOM      5  C   LIG    1       -6.356   1.022  -3.499  0.00  0.00    +0.001 A 
ATOM      6  C   LIG    1       -5.605   1.441  -4.587  0.00  0.00    +0.004 A 
ATOM      7  C   LIG    1       -4.228   1.390  -4.552  0.00  0.00    +0.047 A 
ATOM      8  C   LIG    1       -3.580   0.913  -3.419  0.00  0.00    +0.143 A 
ATOM      9  O   LIG    1       -2.233   0.855  -3.363  0.00  0.00    -0.425 OA
ATOM     10  O   LIG    1       -4.242  -0.396  -0.139  0.00  0.00    -0.287 OA
ATOM     11  C   LIG    1       -1.580   0.406  -2.283  0.00  0.00    +0.292 A 
ENDROOT
BRANCH  11  12
ATOM     12  O   LIG    1       -0.231   0.385  -2.304  0.00  0.00    -0.480 OA
ATOM     13  H   LIG    1        0.155   0.712  -3.128  0.00  0.00    +0.295 HD
ENDBRANCH  11  12
BRANCH   1  14
ATOM     14  C   LIG    1       -1.433  -0.534   0.013  0.00  0.00    +0.059 C 
BRANCH  14  15
ATOM     15  C   LIG    1       -1.057  -1.976  -0.208  0.00  0.00    -0.040 A 
ATOM     16  C   LIG    1       -0.153  -2.311  -1.199  0.00  0.00    +0.004 A 
ATOM     17  C   LIG    1        0.192  -3.634  -1.402  0.00  0.00    +0.000 A 
ATOM     18  C   LIG    1       -0.366  -4.622  -0.613  0.00  0.00    +0.000 A 
ATOM     19  C   LIG    1       -1.269  -4.288   0.379  0.00  0.00    +0.000 A 
ATOM     20  C   LIG    1       -1.611  -2.964   0.584  0.00  0.00    +0.004 A 
ENDBRANCH  14  15
BRANCH  14  22
ATOM     21  C   LIG    1       -0.528   1.792   0.138  0.00  0.00    +0.005 C 
ATOM     22  C   LIG    1       -0.164   0.306   0.171  0.00  0.00    +0.010 C 
ENDBRANCH  14  22
ENDBRANCH   1  14
TORSDOF 4
