REMARK  Name = ZINC03932135
REMARK                            x       y       z     vdW  Elec       q    Type
REMARK                         _______ _______ _______ _____ _____    ______ ____
ROOT
ATOM      1  O   LIG    1       -1.187  -0.529   0.596  0.00  0.00    -0.489 OA
ENDROOT
BRANCH   1   2
ATOM      2  C   LIG    1       -0.004   0.001  -0.004  0.00  0.00    +0.155 C 
ATOM      3  C   LIG    1        0.106   1.527   0.253  0.00  0.00    +0.023 C 
ATOM      4  C   LIG    1        1.637   1.750   0.167  0.00  0.00    -0.079 C 
ATOM      5  N   LIG    1        2.223   0.545   0.783  0.00  0.00    +0.381 N 
ATOM      6  H   LIG    1        3.087   0.291   0.289  0.00  0.00    -0.086 HD
ATOM      7  H   LIG    1        2.436   0.732   1.770  0.00  0.00    -0.086 HD
ATOM      8  C   LIG    1        1.257  -0.559   0.687  0.00  0.00    -0.038 C 
ENDBRANCH   1   2
BRANCH   1  11
ATOM      9  C   LIG    1       -1.538  -3.523  -1.437  0.00  0.00    +0.023 A 
ATOM     10  C   LIG    1       -0.991  -2.354  -0.930  0.00  0.00    +0.049 A 
ATOM     11  C   LIG    1       -1.684  -1.679   0.069  0.00  0.00    +0.139 A 
ATOM     12  C   LIG    1       -2.887  -2.199   0.524  0.00  0.00    +0.156 A 
ATOM     13  N   LIG    1       -3.376  -3.311   0.012  0.00  0.00    -0.260 NA
ATOM     14  C   LIG    1       -2.744  -3.975  -0.936  0.00  0.00    +0.111 A 
ENDBRANCH   1  11
TORSDOF 2
