REMARK  Name = ZINC03920670
REMARK                            x       y       z     vdW  Elec       q    Type
REMARK                         _______ _______ _______ _____ _____    ______ ____
ROOT
ATOM      1  C   LIG    1        3.224   8.167  -2.176  0.00  0.00    +0.042 C 
ATOM      2  C   LIG    1        1.786   7.759  -2.503  0.00  0.00    +0.115 C 
ENDROOT
BRANCH   2   3
ATOM      3  N   LIG    1        0.882   8.292  -1.480  0.00  0.00    -0.267 N 
ATOM      4  H   LIG    1        0.340   7.688  -0.950  0.00  0.00    +0.153 HD
ATOM      5  C   LIG    1        0.805   9.622  -1.276  0.00  0.00    +0.401 C 
ATOM      6  O   LIG    1        1.485  10.379  -1.940  0.00  0.00    -0.226 OA
BRANCH   5   7
ATOM      7  O   LIG    1       -0.025  10.112  -0.336  0.00  0.00    -0.447 OA
BRANCH   7   8
ATOM      8  C   LIG    1       -0.057  11.554  -0.171  0.00  0.00    +0.184 C 
ATOM      9  C   LIG    1        0.988  11.972   0.866  0.00  0.00    +0.031 C 
ATOM     10  C   LIG    1        0.955  13.492   1.039  0.00  0.00    +0.010 C 
ATOM     11  C   LIG    1       -0.435  13.921   1.514  0.00  0.00    -0.010 C 
ATOM     12  C   LIG    1       -0.747  13.247   2.852  0.00  0.00    +0.007 C 
ATOM     13  C   LIG    1       -0.714  11.728   2.679  0.00  0.00    -0.010 C 
ATOM     14  C   LIG    1       -1.758  11.310   1.642  0.00  0.00    +0.010 C 
ATOM     15  C   LIG    1       -1.480  13.503   0.477  0.00  0.00    +0.010 C 
ATOM     16  C   LIG    1        0.676  11.299   2.204  0.00  0.00    +0.010 C 
ATOM     17  C   LIG    1       -1.446  11.983   0.304  0.00  0.00    +0.031 C 
ENDBRANCH   7   8
ENDBRANCH   5   7
ENDBRANCH   2   3
BRANCH   2  18
ATOM     18  C   LIG    1        1.684   6.256  -2.529  0.00  0.00    +0.237 C 
ATOM     19  N   LIG    1        1.480   5.574  -1.385  0.00  0.00    -0.311 N 
ATOM     20  H   LIG    1        1.399   6.051  -0.544  0.00  0.00    +0.149 HD
ATOM     21  O   LIG    1        1.785   5.660  -3.580  0.00  0.00    -0.273 OA
BRANCH  19  22
ATOM     22  C   LIG    1        1.381   4.113  -1.410  0.00  0.00    +0.131 C 
BRANCH  22  23
ATOM     23  C   LIG    1        1.151   3.592   0.010  0.00  0.00    +0.120 C 
BRANCH  23  24
ATOM     24  C   LIG    1        1.171   2.086   0.002  0.00  0.00    -0.026 A 
ATOM     25  C   LIG    1       -0.017   1.378   0.010  0.00  0.00    +0.005 A 
ATOM     26  C   LIG    1        0.002  -0.004   0.002  0.00  0.00    +0.000 A 
ATOM     27  C   LIG    1        1.208  -0.679  -0.014  0.00  0.00    +0.000 A 
ATOM     28  C   LIG    1        2.396   0.029  -0.021  0.00  0.00    +0.000 A 
ATOM     29  C   LIG    1        2.377   1.411  -0.014  0.00  0.00    +0.005 A 
ENDBRANCH  23  24
BRANCH  23  30
ATOM     30  N   LIG    1        2.210   4.090   0.890  0.00  0.00    -0.307 N 
ATOM     31  H   LIG    1        3.073   4.335   0.521  0.00  0.00    +0.149 HD
ATOM     32  C   LIG    1        1.986   4.209   2.214  0.00  0.00    +0.214 C 
ATOM     33  O   LIG    1        0.907   3.904   2.676  0.00  0.00    -0.276 OA
BRANCH  32  34
ATOM     34  C   LIG    1        3.076   4.722   3.120  0.00  0.00    +0.107 C 
BRANCH  34  35
ATOM     35  C   LIG    1        2.566   4.759   4.562  0.00  0.00    +0.129 C 
BRANCH  35  36
ATOM     36  C   LIG    1        3.656   5.271   5.467  0.00  0.00    +0.305 C 
ATOM     37  O   LIG    1        4.731   5.576   5.007  0.00  0.00    -0.251 OA
BRANCH  36  38
ATOM     38  O   LIG    1        3.433   5.390   6.786  0.00  0.00    -0.481 OA
ATOM     39  H   LIG    1        2.599   5.154   7.143  0.00  0.00    +0.295 HD
ENDBRANCH  36  38
ENDBRANCH  35  36
ENDBRANCH  34  35
ENDBRANCH  32  34
ENDBRANCH  23  30
ENDBRANCH  22  23
ENDBRANCH  19  22
ENDBRANCH   2  18
BRANCH   2  40
ATOM     40  C   LIG    1        1.395   8.321  -3.871  0.00  0.00    +0.072 C 
BRANCH  40  41
ATOM     41  C   LIG    1       -0.058   8.025  -4.140  0.00  0.00    -0.020 A 
ATOM     42  C   LIG    1       -0.546   6.983  -4.831  0.00  0.00    +0.087 A 
ATOM     43  N   LIG    1       -1.912   7.044  -4.864  0.00  0.00    -0.360 N 
ATOM     44  C   LIG    1       -2.348   8.159  -4.185  0.00  0.00    +0.047 A 
ATOM     45  C   LIG    1       -3.606   8.689  -3.921  0.00  0.00    +0.026 A 
ATOM     46  C   LIG    1       -3.720   9.853  -3.192  0.00  0.00    +0.002 A 
ATOM     47  C   LIG    1       -2.590  10.504  -2.717  0.00  0.00    +0.001 A 
ATOM     48  C   LIG    1       -1.343  10.001  -2.965  0.00  0.00    +0.010 A 
ATOM     49  H   LIG    1       -2.488   6.399  -5.304  0.00  0.00    +0.165 HD
ATOM     50  C   LIG    1       -1.205   8.823  -3.701  0.00  0.00    +0.003 A 
ENDBRANCH  40  41
ENDBRANCH   2  40
TORSDOF 14
