REMARK  Name = ZINC03918293
REMARK                            x       y       z     vdW  Elec       q    Type
REMARK                         _______ _______ _______ _____ _____    ______ ____
ROOT
ATOM      1  C   LIG    1        0.404  -7.016   0.441  0.00  0.00    +0.158 A 
ATOM      2  C   LIG    1        0.241  -8.341   0.144  0.00  0.00    +0.017 A 
ATOM      3  C   LIG    1       -0.437  -8.681  -1.022  0.00  0.00    +0.021 A 
ATOM      4  C   LIG    1       -0.911  -7.696  -1.818  0.00  0.00    -0.007 A 
ATOM      5  S   LIG    1       -0.415  -6.226  -0.934  0.00  0.00    -0.072 S 
ENDROOT
BRANCH   2   6
ATOM      6  C   LIG    1        0.777  -9.391   1.044  0.00  0.00    -0.015 A 
ATOM      7  C   LIG    1        2.099  -9.330   1.482  0.00  0.00    +0.009 A 
ATOM      8  C   LIG    1        2.591 -10.309   2.320  0.00  0.00    +0.006 A 
ATOM      9  C   LIG    1        1.777 -11.352   2.724  0.00  0.00    -0.028 A 
ATOM     10  C   LIG    1        0.465 -11.418   2.292  0.00  0.00    +0.006 A 
ATOM     11  C   LIG    1       -0.041 -10.441   1.459  0.00  0.00    +0.009 A 
BRANCH   9  12
ATOM     12  C   LIG    1        2.321 -12.419   3.639  0.00  0.00    +0.160 C 
BRANCH  12  13
ATOM     13  N   LIG    1        2.209 -11.973   5.030  0.00  0.00    -0.308 N 
ATOM     14  C   LIG    1        1.199 -12.271   5.892  0.00  0.00    +0.112 A 
ATOM     15  N   LIG    1        1.417 -11.712   7.046  0.00  0.00    -0.230 NA
ATOM     16  C   LIG    1        2.582 -11.018   7.001  0.00  0.00    +0.111 A 
ATOM     17  C   LIG    1        3.287 -10.245   7.928  0.00  0.00    -0.020 A 
ATOM     18  C   LIG    1        2.765 -10.047   9.328  0.00  0.00    +0.046 C 
ATOM     19  C   LIG    1        4.484  -9.680   7.530  0.00  0.00    +0.028 A 
ATOM     20  C   LIG    1        4.940  -9.883   6.237  0.00  0.00    +0.041 A 
ATOM     21  C   LIG    1        6.242  -9.258   5.807  0.00  0.00    +0.065 C 
ATOM     22  N   LIG    1        4.258 -10.611   5.377  0.00  0.00    -0.233 NA
ATOM     23  C   LIG    1        3.111 -11.181   5.707  0.00  0.00    +0.161 A 
BRANCH  14  24
ATOM     24  C   LIG    1        0.002 -13.123   5.558  0.00  0.00    +0.071 C 
ATOM     25  C   LIG    1        0.265 -14.566   5.994  0.00  0.00    +0.012 C 
ENDBRANCH  14  24
ENDBRANCH  12  13
ENDBRANCH   9  12
ENDBRANCH   2   6
BRANCH   1  26
ATOM     26  S   LIG    1        1.207  -6.280   1.826  0.00  0.00    +0.111 S 
ATOM     27  O   LIG    1        0.440  -6.626   2.971  0.00  0.00    -0.146 OA
ATOM     28  O   LIG    1        2.587  -6.596   1.710  0.00  0.00    -0.146 OA
BRANCH  26  30
ATOM     29  C   LIG    1        1.594  -3.849   2.543  0.00  0.00    +0.407 C 
ATOM     30  N   LIG    1        1.080  -4.639   1.649  0.00  0.00    -0.054 NA
BRANCH  29  31
ATOM     31  O   LIG    1        2.231  -4.365   3.615  0.00  0.00    -0.465 OA
ATOM     32  H   LIG    1        2.601  -3.795   4.260  0.00  0.00    +0.297 HD
ENDBRANCH  29  31
BRANCH  29  33
ATOM     33  O   LIG    1        1.491  -2.510   2.399  0.00  0.00    -0.449 OA
BRANCH  33  34
ATOM     34  C   LIG    1        0.804  -2.033   1.240  0.00  0.00    +0.234 C 
BRANCH  34  35
ATOM     35  C   LIG    1        0.788  -0.503   1.250  0.00  0.00    +0.041 C 
BRANCH  35  37
ATOM     36  C   LIG    1        0.038   1.538   0.020  0.00  0.00    +0.004 C 
ATOM     37  C   LIG    1        0.053   0.008   0.010  0.00  0.00    -0.000 C 
ENDBRANCH  35  37
ENDBRANCH  34  35
ENDBRANCH  33  34
ENDBRANCH  29  33
ENDBRANCH  26  30
ENDBRANCH   1  26
BRANCH   4  38
ATOM     38  C   LIG    1       -1.668  -7.809  -3.116  0.00  0.00    +0.045 C 
BRANCH  38  39
ATOM     39  C   LIG    1       -3.170  -7.858  -2.827  0.00  0.00    -0.012 C 
ATOM     40  C   LIG    1       -3.499  -9.136  -2.054  0.00  0.00    +0.007 C 
ATOM     41  C   LIG    1       -3.943  -7.847  -4.147  0.00  0.00    +0.007 C 
ENDBRANCH  38  39
ENDBRANCH   4  38
TORSDOF 13
