REMARK  Name = ZINC03887001
REMARK                            x       y       z     vdW  Elec       q    Type
REMARK                         _______ _______ _______ _____ _____    ______ ____
ROOT
ATOM      1  C   LIG    1        0.708  -2.304  -0.017  0.00  0.00    +0.172 C 
ATOM      2  C   LIG    1        1.248  -0.860  -0.020  0.00  0.00    +0.090 C 
ATOM      3  C   LIG    1        0.002  -0.004   0.002  0.00  0.00    +0.075 C 
ATOM      4  N   LIG    1       -1.042  -0.764   0.007  0.00  0.00    -0.181 NA
ATOM      5  N   LIG    1       -0.753  -2.127  -0.003  0.00  0.00    -0.194 N 
ENDROOT
BRANCH   1   8
ATOM      6  C   LIG    1        2.231  -4.400   2.604  0.00  0.00    +0.041 A 
ATOM      7  C   LIG    1        2.135  -3.973   1.260  0.00  0.00    +0.046 A 
ATOM      8  C   LIG    1        1.164  -3.043   1.215  0.00  0.00    +0.127 A 
ATOM      9  O   LIG    1        0.673  -2.881   2.455  0.00  0.00    -0.466 OA
ATOM     10  C   LIG    1        1.313  -3.706   3.300  0.00  0.00    +0.195 A 
ENDBRANCH   1   8
BRANCH   3  11
ATOM     11  C   LIG    1       -0.018   1.463   0.010  0.00  0.00    +0.035 A 
ATOM     12  C   LIG    1       -1.104   2.321   0.019  0.00  0.00    +0.017 A 
ATOM     13  C   LIG    1       -0.866   3.676   0.029  0.00  0.00    +0.008 A 
ATOM     14  C   LIG    1        0.415   4.126   0.019  0.00  0.00    +0.046 A 
ATOM     15  S   LIG    1        1.353   2.607   0.003  0.00  0.00    -0.095 S 
ENDBRANCH   3  11
BRANCH   5  16
ATOM     16  C   LIG    1       -1.663  -3.121   0.000  0.00  0.00    +0.151 C 
ATOM     17  S   LIG    1       -1.147  -4.753  -0.012  0.00  0.00    -0.017 S 
BRANCH  16  18
ATOM     18  N   LIG    1       -2.979  -2.830   0.014  0.00  0.00    -0.339 N 
ATOM     19  H   LIG    1       -3.634  -3.546   0.016  0.00  0.00    +0.144 HD
ATOM     20  H   LIG    1       -3.271  -1.905   0.021  0.00  0.00    +0.144 HD
ENDBRANCH  16  18
ENDBRANCH   5  16
TORSDOF 4
