REMARK  Name = ZINC04040585
REMARK                            x       y       z     vdW  Elec       q    Type
REMARK                         _______ _______ _______ _____ _____    ______ ____
ROOT
ATOM      1  N   LIG    1        5.435  -1.671  -1.522  0.00  0.00    +0.383 N 
ATOM      2  H   LIG    1        5.745  -1.752  -2.498  0.00  0.00    -0.081 HD
ATOM      3  C   LIG    1        6.447  -0.930  -0.755  0.00  0.00    -0.047 C 
ATOM      4  C   LIG    1        7.729  -1.720  -0.681  0.00  0.00    -0.082 C 
ATOM      5  C   LIG    1        8.995  -0.974  -0.325  0.00  0.00    +0.034 C 
ATOM      6  C   LIG    1        9.886  -1.822   0.579  0.00  0.00    +0.040 C 
ATOM      7  C   LIG    1       10.097  -3.171  -0.056  0.00  0.00    -0.040 A 
ATOM      8  C   LIG    1        9.055  -3.745  -0.785  0.00  0.00    -0.019 A 
ATOM      9  C   LIG    1        9.231  -4.989  -1.387  0.00  0.00    +0.008 A 
ATOM     10  C   LIG    1       10.438  -5.646  -1.253  0.00  0.00    +0.001 A 
ATOM     11  C   LIG    1       11.466  -5.072  -0.527  0.00  0.00    +0.000 A 
ATOM     12  C   LIG    1       11.296  -3.835   0.072  0.00  0.00    +0.004 A 
ATOM     13  C   LIG    1        7.767  -3.021  -0.909  0.00  0.00    -0.044 C 
ATOM     14  C   LIG    1        6.541  -3.812  -1.286  0.00  0.00    +0.017 C 
ATOM     15  C   LIG    1        5.277  -3.023  -0.951  0.00  0.00    -0.074 C 
ENDROOT
BRANCH   1  16
ATOM     16  C   LIG    1        4.142  -0.948  -1.487  0.00  0.00    -0.074 C 
BRANCH  16  17
ATOM     17  C   LIG    1        3.711  -0.707  -0.039  0.00  0.00    +0.016 C 
BRANCH  17  21
ATOM     18  C   LIG    1       -0.017   1.378   0.010  0.00  0.00    +0.000 A 
ATOM     19  C   LIG    1        1.171   2.086   0.002  0.00  0.00    +0.000 A 
ATOM     20  C   LIG    1        2.377   1.411  -0.014  0.00  0.00    +0.003 A 
ATOM     21  C   LIG    1        2.396   0.029  -0.022  0.00  0.00    -0.049 A 
ATOM     22  C   LIG    1        1.208  -0.679  -0.014  0.00  0.00    +0.003 A 
ATOM     23  C   LIG    1        0.002  -0.004   0.002  0.00  0.00    +0.000 A 
ENDBRANCH  17  21
ENDBRANCH  16  17
ENDBRANCH   1  16
TORSDOF 3
