REMARK  Name = ZINC04096261
REMARK                            x       y       z     vdW  Elec       q    Type
REMARK                         _______ _______ _______ _____ _____    ______ ____
ROOT
ATOM      1  C   LIG    1        1.246  -1.872   1.243  0.00  0.00    +0.200 C 
ENDROOT
BRANCH   1   2
ATOM      2  C   LIG    1        2.118  -3.075   0.993  0.00  0.00    +0.241 C 
ATOM      3  N   LIG    1        1.773  -3.974   0.050  0.00  0.00    -0.288 N 
ATOM      4  C   LIG    1        0.526  -3.959  -0.736  0.00  0.00    +0.109 C 
ATOM      5  C   LIG    1        0.863  -4.741  -2.030  0.00  0.00    +0.021 C 
ATOM      6  C   LIG    1        1.800  -5.852  -1.487  0.00  0.00    +0.033 C 
ATOM      7  C   LIG    1        2.582  -5.127  -0.372  0.00  0.00    +0.161 C 
ATOM      8  O   LIG    1        3.130  -3.235   1.642  0.00  0.00    -0.273 OA
BRANCH   7   9
ATOM      9  C   LIG    1        3.913  -4.654  -0.899  0.00  0.00    +0.201 C 
ATOM     10  N   LIG    1        4.934  -5.442  -0.871  0.00  0.00    -0.270 NA
ATOM     11  H   LIG    1        5.791  -5.138  -1.210  0.00  0.00    +0.190 HD
BRANCH   9  12
ATOM     12  O   LIG    1        4.036  -3.408  -1.400  0.00  0.00    -0.494 OA
ATOM     13  H   LIG    1        4.926  -3.196  -1.713  0.00  0.00    +0.293 HD
ENDBRANCH   9  12
ENDBRANCH   7   9
ENDBRANCH   1   2
BRANCH   1  14
ATOM     14  N   LIG    1        1.571  -1.295   2.549  0.00  0.00    -0.240 NA
ATOM     15  C   LIG    1        0.725  -1.378   3.520  0.00  0.00    +0.209 C 
BRANCH  15  16
ATOM     16  C   LIG    1       -0.516  -2.219   3.368  0.00  0.00    +0.194 C 
ATOM     17  C   LIG    1       -1.778  -1.365   3.627  0.00  0.00    +0.046 C 
ATOM     18  C   LIG    1       -2.682  -2.389   4.357  0.00  0.00    +0.097 C 
ATOM     19  C   LIG    1       -1.703  -3.384   4.941  0.00  0.00    +0.183 C 
ATOM     20  N   LIG    1       -0.546  -3.271   4.391  0.00  0.00    -0.242 NA
BRANCH  19  21
ATOM     21  O   LIG    1       -2.005  -4.273   5.909  0.00  0.00    -0.496 OA
ATOM     22  H   LIG    1       -1.264  -4.837   6.170  0.00  0.00    +0.293 HD
ENDBRANCH  19  21
ENDBRANCH  15  16
BRANCH  15  23
ATOM     23  O   LIG    1        0.952  -0.711   4.671  0.00  0.00    -0.494 OA
ATOM     24  H   LIG    1        0.263  -0.834   5.339  0.00  0.00    +0.293 HD
ENDBRANCH  15  23
ENDBRANCH   1  14
BRANCH   1  25
ATOM     25  C   LIG    1        1.490  -0.830   0.150  0.00  0.00    +0.093 C 
BRANCH  25  31
ATOM     26  C   LIG    1        0.883   1.621   0.454  0.00  0.00    +0.107 A 
ATOM     27  N   LIG    1       -0.280   2.326   0.609  0.00  0.00    -0.351 N 
ATOM     28  C   LIG    1       -1.295   1.436   0.571  0.00  0.00    +0.196 A 
ATOM     29  N   LIG    1       -0.797   0.241   0.410  0.00  0.00    -0.241 NA
ATOM     30  H   LIG    1       -0.361   3.287   0.720  0.00  0.00    +0.166 HD
ATOM     31  C   LIG    1        0.539   0.325   0.335  0.00  0.00    +0.061 A 
ENDBRANCH  25  31
ENDBRANCH   1  25
TORSDOF 9
