REMARK  Name = ZINC03976469
REMARK                            x       y       z     vdW  Elec       q    Type
REMARK                         _______ _______ _______ _____ _____    ______ ____
ROOT
ATOM      1  C   LIG    1       -1.173   3.402   0.131  0.00  0.00    +0.129 A 
ATOM      2  C   LIG    1        0.041   4.074   0.133  0.00  0.00    +0.048 A 
ATOM      3  C   LIG    1        0.067   5.450   0.241  0.00  0.00    +0.030 A 
ATOM      4  C   LIG    1       -1.115   6.158   0.359  0.00  0.00    +0.088 A 
ATOM      5  C   LIG    1       -2.326   5.491   0.363  0.00  0.00    +0.030 A 
ATOM      6  C   LIG    1       -2.358   4.115   0.249  0.00  0.00    +0.048 A 
ENDROOT
BRANCH   4   7
ATOM      7  S   LIG    1       -1.078   7.914   0.504  0.00  0.00    -0.002 S 
ATOM      8  O   LIG    1       -2.333   8.346  -0.004  0.00  0.00    -0.169 OA
ATOM      9  O   LIG    1        0.133   8.305  -0.128  0.00  0.00    -0.169 OA
BRANCH   7  10
ATOM     10  C   LIG    1       -0.982   8.232   2.288  0.00  0.00    +0.186 C 
BRANCH  10  11
ATOM     11  C   LIG    1       -0.944   9.742   2.535  0.00  0.00    +0.078 C 
ATOM     12  C   LIG    1       -0.863  10.203   3.991  0.00  0.00    +0.085 C 
ATOM     13  S   LIG    1        0.651  10.453   3.024  0.00  0.00    -0.154 S 
ENDBRANCH  10  11
ENDBRANCH   7  10
ENDBRANCH   4   7
BRANCH   1  14
ATOM     14  O   LIG    1       -1.202   2.048   0.019  0.00  0.00    -0.456 OA
BRANCH  14  18
ATOM     15  C   LIG    1        2.387   0.015   0.065  0.00  0.00    +0.000 A 
ATOM     16  C   LIG    1        1.949   0.667   1.203  0.00  0.00    +0.004 A 
ATOM     17  C   LIG    1        0.749   1.351   1.189  0.00  0.00    +0.046 A 
ATOM     18  C   LIG    1       -0.018   1.381   0.033  0.00  0.00    +0.128 A 
ATOM     19  C   LIG    1        0.424   0.726  -1.107  0.00  0.00    +0.046 A 
ATOM     20  C   LIG    1        1.626   0.044  -1.088  0.00  0.00    +0.004 A 
ENDBRANCH  14  18
ENDBRANCH   1  14
TORSDOF 5
