REMARK  Name = ZINC03981490
REMARK                            x       y       z     vdW  Elec       q    Type
REMARK                         _______ _______ _______ _____ _____    ______ ____
ROOT
ATOM      1  C   LIG    1       -3.836  -6.021  -7.997  0.00  0.00    +0.053 C 
ENDROOT
BRANCH   1   2
ATOM      2  C   LIG    1       -5.296  -5.858  -7.662  0.00  0.00    -0.027 C 
ATOM      3  C   LIG    1       -6.130  -6.847  -7.868  0.00  0.00    -0.031 C 
BRANCH   3   4
ATOM      4  C   LIG    1       -5.609  -8.198  -8.285  0.00  0.00    +0.027 C 
BRANCH   4   5
ATOM      5  C   LIG    1       -6.167  -9.271  -7.348  0.00  0.00    +0.006 C 
BRANCH   5   6
ATOM      6  C   LIG    1       -5.637 -10.643  -7.771  0.00  0.00    +0.028 C 
BRANCH   6   7
ATOM      7  C   LIG    1       -6.196 -11.716  -6.835  0.00  0.00    +0.160 C 
BRANCH   7   8
ATOM      8  O   LIG    1       -5.701 -12.997  -7.230  0.00  0.00    -0.372 OA
BRANCH   8   9
ATOM      9  C   LIG    1       -6.165 -14.076  -6.415  0.00  0.00    +0.169 C 
BRANCH   9  10
ATOM     10  C   LIG    1       -5.108 -15.182  -6.384  0.00  0.00    +0.189 C 
BRANCH  10  11
ATOM     11  O   LIG    1       -4.958 -15.735  -7.694  0.00  0.00    -0.392 OA
ATOM     12  H   LIG    1       -4.302 -16.444  -7.748  0.00  0.00    +0.210 HD
ENDBRANCH  10  11
ENDBRANCH   9  10
BRANCH   9  13
ATOM     13  C   LIG    1       -7.467 -14.631  -6.997  0.00  0.00    +0.189 C 
BRANCH  13  14
ATOM     14  O   LIG    1       -7.208 -15.209  -8.278  0.00  0.00    -0.392 OA
ATOM     15  H   LIG    1       -7.991 -15.581  -8.706  0.00  0.00    +0.210 HD
ENDBRANCH  13  14
ENDBRANCH   9  13
ENDBRANCH   8   9
ENDBRANCH   7   8
ENDBRANCH   6   7
ENDBRANCH   5   6
ENDBRANCH   4   5
ENDBRANCH   3   4
ENDBRANCH   1   2
BRANCH   1  17
ATOM     16  C   LIG    1       -2.360  -4.168  -8.589  0.00  0.00    -0.027 C 
ATOM     17  C   LIG    1       -3.401  -4.899  -8.904  0.00  0.00    -0.027 C 
BRANCH  16  18
ATOM     18  C   LIG    1       -1.495  -4.556  -7.418  0.00  0.00    +0.053 C 
BRANCH  18  20
ATOM     19  C   LIG    1        0.866  -3.965  -7.224  0.00  0.00    -0.027 C 
ATOM     20  C   LIG    1       -0.057  -4.640  -7.862  0.00  0.00    -0.027 C 
BRANCH  19  21
ATOM     21  C   LIG    1        0.522  -3.236  -5.951  0.00  0.00    +0.053 C 
BRANCH  21  23
ATOM     22  C   LIG    1        2.147  -2.719  -4.203  0.00  0.00    -0.031 C 
ATOM     23  C   LIG    1        1.488  -3.637  -4.865  0.00  0.00    -0.027 C 
BRANCH  22  24
ATOM     24  C   LIG    1        1.823  -1.262  -4.410  0.00  0.00    +0.027 C 
BRANCH  24  25
ATOM     25  C   LIG    1        1.563  -0.600  -3.055  0.00  0.00    +0.004 C 
BRANCH  25  26
ATOM     26  C   LIG    1        1.234   0.879  -3.264  0.00  0.00    +0.000 C 
BRANCH  26  28
ATOM     27  C   LIG    1        0.645   3.020  -2.118  0.00  0.00    +0.004 C 
ATOM     28  C   LIG    1        0.975   1.541  -1.909  0.00  0.00    -0.003 C 
ENDBRANCH  26  28
ENDBRANCH  25  26
ENDBRANCH  24  25
ENDBRANCH  22  24
ENDBRANCH  21  23
ENDBRANCH  19  21
ENDBRANCH  18  20
ENDBRANCH  16  18
ENDBRANCH   1  17
TORSDOF 20
