REMARK  Name = ZINC03875364
REMARK                            x       y       z     vdW  Elec       q    Type
REMARK                         _______ _______ _______ _____ _____    ______ ____
ROOT
ATOM      1  C   LIG    1       -0.003   1.526   0.019  0.00  0.00    +0.012 C 
ATOM      2  C   LIG    1        0.019  -0.004   0.011  0.00  0.00    -0.026 C 
ATOM      3  C   LIG    1       -1.416  -0.536   0.030  0.00  0.00    +0.010 C 
ATOM      4  C   LIG    1       -1.392  -2.066   0.016  0.00  0.00    +0.032 C 
ATOM      5  C   LIG    1       -0.644  -2.575   1.250  0.00  0.00    +0.115 C 
ATOM      6  C   LIG    1        0.790  -2.041   1.235  0.00  0.00    +0.035 C 
ATOM      7  C   LIG    1        0.732  -0.498  -1.248  0.00  0.00    -0.001 C 
ATOM      8  C   LIG    1       -0.045  -0.072  -2.489  0.00  0.00    +0.005 C 
ATOM      9  C   LIG    1        0.694  -0.472  -3.777  0.00  0.00    +0.015 C 
ATOM     10  C   LIG    1        2.067   0.167  -3.726  0.00  0.00    +0.029 C 
ATOM     11  C   LIG    1        1.925   1.673  -3.495  0.00  0.00    +0.019 C 
ATOM     12  C   LIG    1        2.846  -0.441  -2.530  0.00  0.00    +0.006 C 
ATOM     13  C   LIG    1        4.264   0.093  -2.772  0.00  0.00    +0.012 C 
ATOM     14  C   LIG    1        4.412  -0.035  -4.313  0.00  0.00    +0.075 C 
ATOM     15  C   LIG    1        2.976  -0.080  -4.893  0.00  0.00    +0.139 C 
ATOM     16  O   LIG    1        2.653  -0.237  -6.046  0.00  0.00    -0.297 OA
ATOM     17  C   LIG    1        2.167   0.050  -1.264  0.00  0.00    -0.003 C 
ATOM     18  C   LIG    1        2.913  -0.460  -0.029  0.00  0.00    +0.004 C 
ATOM     19  C   LIG    1        2.198   0.025   1.234  0.00  0.00    +0.004 C 
ATOM     20  C   LIG    1        0.765  -0.511   1.248  0.00  0.00    -0.002 C 
ENDROOT
BRANCH   5  21
ATOM     21  O   LIG    1       -0.620  -4.004   1.236  0.00  0.00    -0.392 OA
ATOM     22  H   LIG    1       -1.496  -4.412   1.245  0.00  0.00    +0.210 HD
ENDBRANCH   5  21
TORSDOF 1
