REMARK  Name = ZINC03875417
REMARK                            x       y       z     vdW  Elec       q    Type
REMARK                         _______ _______ _______ _____ _____    ______ ____
ROOT
ATOM      1  C   LIG    1       -2.503  -0.394   0.013  0.00  0.00    +0.250 C 
ATOM      2  N   LIG    1       -3.142  -0.206   1.184  0.00  0.00    -0.298 N 
ATOM      3  H   LIG    1       -2.673  -0.351   2.021  0.00  0.00    +0.150 HD
ATOM      4  O   LIG    1       -3.091  -0.212  -1.037  0.00  0.00    -0.270 OA
ENDROOT
BRANCH   2   5
ATOM      5  CA  LIG    1       -4.545   0.216   1.194  0.00  0.00    +0.190 C 
ATOM      6  C   LIG    1       -5.282  -0.167   2.472  0.00  0.00    +0.165 C 
ATOM      7  N   LIG    1       -5.168   1.271   2.794  0.00  0.00    -0.271 N 
ATOM      8  CA  LIG    1       -4.300   1.605   3.929  0.00  0.00    +0.201 C 
ATOM      9  C   LIG    1       -4.204   0.433   4.944  0.00  0.00    +0.042 C 
ATOM     10  C   LIG    1       -5.415   0.397   5.878  0.00  0.00    +0.025 C 
ATOM     11  C   LIG    1       -2.893   0.478   5.732  0.00  0.00    +0.025 C 
ATOM     12  S   LIG    1       -4.233  -0.993   3.736  0.00  0.00    -0.127 S 
ATOM     13  C   LIG    1       -4.731   1.666   1.565  0.00  0.00    +0.240 C 
ATOM     14  O   LIG    1       -4.562   2.730   1.007  0.00  0.00    -0.273 OA
BRANCH   8  15
ATOM     15  C   LIG    1       -4.854   2.817   4.631  0.00  0.00    +0.327 C 
ATOM     16  O   LIG    1       -5.951   3.253   4.323  0.00  0.00    -0.249 OA
BRANCH  15  17
ATOM     17  OXT LIG    1       -4.207   3.363   5.509  0.00  0.00    -0.479 OA
ATOM     18  HXT LIG    1       -3.365   3.028   5.746  0.00  0.00    +0.295 HD
ENDBRANCH  15  17
ENDBRANCH   8  15
ENDBRANCH   2   5
BRANCH   1  21
ATOM     19  C   LIG    1       -0.018   1.503   0.010  0.00  0.00    +0.090 C 
ATOM     20  C   LIG    1        0.002  -0.004   0.002  0.00  0.00    +0.147 A 
ATOM     21  C   LIG    1       -1.092  -0.818   0.003  0.00  0.00    +0.106 A 
ATOM     22  C   LIG    1       -0.593  -2.201  -0.008  0.00  0.00    +0.127 A 
ATOM     23  N   LIG    1        0.715  -2.133  -0.014  0.00  0.00    -0.077 NA
ATOM     24  O   LIG    1        1.095  -0.772  -0.013  0.00  0.00    -0.359 OA
BRANCH  22  25
ATOM     25  C   LIG    1       -1.413  -3.437  -0.011  0.00  0.00    +0.023 A 
ATOM     26  C   LIG    1       -2.804  -3.353  -0.009  0.00  0.00    +0.011 A 
ATOM     27  C   LIG    1       -3.562  -4.506  -0.012  0.00  0.00    +0.001 A 
ATOM     28  C   LIG    1       -2.944  -5.744  -0.017  0.00  0.00    +0.001 A 
ATOM     29  C   LIG    1       -1.565  -5.834  -0.018  0.00  0.00    +0.020 A 
ATOM     30  C   LIG    1       -0.795  -4.687  -0.021  0.00  0.00    +0.050 A 
ATOM     31 CL   LIG    1        0.937  -4.802  -0.030  0.00  0.00    -0.083 Cl
ENDBRANCH  22  25
ENDBRANCH   1  21
TORSDOF 5
