REMARK  Name = ZINC03881874
REMARK                            x       y       z     vdW  Elec       q    Type
REMARK                         _______ _______ _______ _____ _____    ______ ____
ROOT
ATOM      1  C   LIG    1        0.871   2.212  -0.639  0.00  0.00    +0.012 C 
ATOM      2  C   LIG    1        0.659   0.702  -0.519  0.00  0.00    +0.013 C 
ATOM      3  C   LIG    1        1.330  -0.006  -1.697  0.00  0.00    +0.011 C 
ATOM      4  C   LIG    1        1.218  -1.523  -1.505  0.00  0.00    -0.003 C 
ATOM      5  C   LIG    1        2.008  -1.937  -0.266  0.00  0.00    +0.002 C 
ATOM      6  C   LIG    1        1.419  -1.260   0.979  0.00  0.00    -0.007 C 
ATOM      7  C   LIG    1        0.000  -1.797   1.180  0.00  0.00    +0.016 C 
ATOM      8  C   LIG    1        2.244  -1.647   2.193  0.00  0.00    +0.019 C 
ATOM      9  C   LIG    1        1.954  -0.732   3.384  0.00  0.00    +0.080 C 
ATOM     10  C   LIG    1        2.272   0.680   2.934  0.00  0.00    +0.156 C 
ATOM     11  O   LIG    1        2.979   1.416   3.590  0.00  0.00    -0.293 OA
ATOM     12  C   LIG    1        1.679   1.110   1.663  0.00  0.00    +0.046 C 
ATOM     13  C   LIG    1        1.909  -3.459  -0.105  0.00  0.00    +0.005 C 
ATOM     14  C   LIG    1        2.554  -4.125  -1.317  0.00  0.00    +0.011 C 
ATOM     15  C   LIG    1        1.795  -3.760  -2.596  0.00  0.00    +0.018 C 
ATOM     16  C   LIG    1        0.425  -4.438  -2.658  0.00  0.00    +0.016 C 
ATOM     17  C   LIG    1        2.704  -4.173  -3.785  0.00  0.00    +0.176 C 
ATOM     18  C   LIG    1        3.611  -2.942  -4.078  0.00  0.00    +0.057 C 
ATOM     19  C   LIG    1        3.154  -1.819  -3.118  0.00  0.00    +0.009 C 
ATOM     20  C   LIG    1        1.720  -2.233  -2.739  0.00  0.00    +0.003 C 
ATOM     21  C   LIG    1        1.280   0.202   0.772  0.00  0.00    -0.057 C 
ENDROOT
BRANCH  17  22
ATOM     22  C   LIG    1        1.859  -4.546  -4.976  0.00  0.00    +0.174 C 
ATOM     23  C   LIG    1        1.407  -5.972  -5.163  0.00  0.00    +0.090 C 
ATOM     24  O   LIG    1        1.545  -3.703  -5.781  0.00  0.00    -0.293 OA
ENDBRANCH  17  22
BRANCH  17  25
ATOM     25  O   LIG    1        3.535  -5.273  -3.408  0.00  0.00    -0.450 OA
BRANCH  25  26
ATOM     26  C   LIG    1        4.417  -5.710  -4.320  0.00  0.00    +0.305 C 
ATOM     27  C   LIG    1        5.263  -6.923  -4.029  0.00  0.00    +0.136 C 
ATOM     28  O   LIG    1        4.534  -5.131  -5.374  0.00  0.00    -0.251 OA
ENDBRANCH  25  26
ENDBRANCH  17  25
TORSDOF 3
