REMARK  Name = ZINC03920720
REMARK                            x       y       z     vdW  Elec       q    Type
REMARK                         _______ _______ _______ _____ _____    ______ ____
ROOT
ATOM      1  C   LIG    1        1.212   2.072  -0.011  0.00  0.00    +0.035 A 
ATOM      2  C   LIG    1        0.004   1.475   0.222  0.00  0.00    +0.066 A 
ATOM      3  C   LIG    1        0.251   0.024   0.211  0.00  0.00    +0.020 A 
ATOM      4  C   LIG    1        1.603  -0.127  -0.030  0.00  0.00    +0.058 A 
ATOM      5  N   LIG    1        2.155   1.121  -0.159  0.00  0.00    -0.342 N 
ENDROOT
BRANCH   4   6
ATOM      6  C   LIG    1        2.327  -1.410  -0.132  0.00  0.00    -0.001 A 
ATOM      7  C   LIG    1        1.896  -2.389  -1.029  0.00  0.00    +0.013 A 
ATOM      8  C   LIG    1        2.580  -3.583  -1.123  0.00  0.00    +0.039 A 
ATOM      9  C   LIG    1        3.687  -3.816  -0.322  0.00  0.00    +0.123 A 
ATOM     10  F   LIG    1        4.350  -4.989  -0.415  0.00  0.00    -0.205 F 
ATOM     11  C   LIG    1        4.115  -2.850   0.575  0.00  0.00    +0.039 A 
ATOM     12  C   LIG    1        3.442  -1.650   0.674  0.00  0.00    +0.013 A 
ENDBRANCH   4   6
BRANCH   3  13
ATOM     13  C   LIG    1       -0.745  -1.052   0.416  0.00  0.00    -0.015 A 
ATOM     14  C   LIG    1       -0.662  -1.879   1.537  0.00  0.00    +0.008 A 
ATOM     15  C   LIG    1       -1.596  -2.877   1.726  0.00  0.00    +0.001 A 
ATOM     16  C   LIG    1       -2.607  -3.065   0.800  0.00  0.00    +0.000 A 
ATOM     17  C   LIG    1       -2.692  -2.252  -0.316  0.00  0.00    +0.001 A 
ATOM     18  C   LIG    1       -1.767  -1.248  -0.513  0.00  0.00    +0.008 A 
ENDBRANCH   3  13
BRANCH   2  19
ATOM     19  C   LIG    1       -1.286   2.149   0.434  0.00  0.00    +0.251 C 
ATOM     20  N   LIG    1       -2.080   2.432  -0.618  0.00  0.00    -0.281 N 
ATOM     21  H   LIG    1       -1.833   2.130  -1.506  0.00  0.00    +0.155 HD
ATOM     22  O   LIG    1       -1.637   2.451   1.559  0.00  0.00    -0.270 OA
BRANCH  20  23
ATOM     23  C   LIG    1       -3.259   3.160  -0.429  0.00  0.00    +0.034 A 
ATOM     24  C   LIG    1       -4.006   2.986   0.729  0.00  0.00    +0.023 A 
ATOM     25  C   LIG    1       -5.167   3.710   0.915  0.00  0.00    +0.002 A 
ATOM     26  C   LIG    1       -5.592   4.600  -0.055  0.00  0.00    +0.000 A 
ATOM     27  C   LIG    1       -4.853   4.772  -1.211  0.00  0.00    +0.002 A 
ATOM     28  C   LIG    1       -3.688   4.054  -1.401  0.00  0.00    +0.023 A 
ENDBRANCH  20  23
ENDBRANCH   2  19
BRANCH   1  30
ATOM     29  C   LIG    1        0.609   4.151  -1.220  0.00  0.00    +0.014 C 
ATOM     30  C   LIG    1        1.451   3.558  -0.088  0.00  0.00    +0.030 C 
ATOM     31  C   LIG    1        1.054   4.208   1.238  0.00  0.00    +0.014 C 
ENDBRANCH   1  30
BRANCH   5  32
ATOM     32  C   LIG    1        3.572   1.384  -0.422  0.00  0.00    +0.126 C 
BRANCH  32  33
ATOM     33  C   LIG    1        3.788   1.554  -1.927  0.00  0.00    +0.066 C 
BRANCH  33  34
ATOM     34  C   LIG    1        5.242   1.951  -2.192  0.00  0.00    +0.181 C 
ATOM     35  C   LIG    1        5.431   2.236  -3.684  0.00  0.00    +0.076 C 
ATOM     36  C   LIG    1        6.898   2.581  -3.954  0.00  0.00    +0.129 C 
ATOM     37  C   LIG    1        7.775   1.395  -3.535  0.00  0.00    +0.152 C 
ATOM     38  C   LIG    1        7.426   1.022  -2.111  0.00  0.00    +0.310 C 
ATOM     39  O   LIG    1        8.288   0.873  -1.278  0.00  0.00    -0.251 OA
ATOM     40  O   LIG    1        6.123   0.863  -1.797  0.00  0.00    -0.461 OA
BRANCH  36  41
ATOM     41  O   LIG    1        7.266   3.737  -3.198  0.00  0.00    -0.391 OA
ATOM     42  H   LIG    1        8.187   4.008  -3.316  0.00  0.00    +0.210 HD
ENDBRANCH  36  41
ENDBRANCH  33  34
ENDBRANCH  32  33
ENDBRANCH   5  32
TORSDOF 9
