REMARK  Name = ZINC03882963
REMARK                            x       y       z     vdW  Elec       q    Type
REMARK                         _______ _______ _______ _____ _____    ______ ____
ROOT
ATOM      1  C   LIG    1       -0.013   1.076   0.008  0.00  0.00    +0.001 A 
ATOM      2  C   LIG    1       -1.234   1.747   0.017  0.00  0.00    +0.002 A 
ATOM      3  C   LIG    1       -1.287   3.107   0.031  0.00  0.00    +0.028 A 
ATOM      4  C   LIG    1       -0.094   3.852   0.023  0.00  0.00    +0.072 A 
ATOM      5  C   LIG    1        1.147   3.167   0.008  0.00  0.00    +0.000 A 
ATOM      6  C   LIG    1        2.344   3.912  -0.000  0.00  0.00    +0.012 A 
ATOM      7  C   LIG    1        2.260   5.271   0.005  0.00  0.00    +0.028 A 
ATOM      8  C   LIG    1        0.999   5.894   0.021  0.00  0.00    +0.065 A 
ATOM      9  N   LIG    1       -0.120   5.187   0.029  0.00  0.00    -0.247 NA
ATOM     10  C   LIG    1        1.163   1.764   0.000  0.00  0.00    +0.010 A 
ENDROOT
BRANCH   8  11
ATOM     11  C   LIG    1        0.921   7.364   0.028  0.00  0.00    +0.028 C 
ATOM     12  C   LIG    1       -0.277   7.974   0.042  0.00  0.00    +0.013 C 
BRANCH  12  13
ATOM     13  C   LIG    1       -0.354   9.444   0.050  0.00  0.00    +0.016 A 
ATOM     14  C   LIG    1        0.815  10.209   0.042  0.00  0.00    +0.011 A 
ATOM     15  C   LIG    1        0.736  11.585   0.048  0.00  0.00    +0.001 A 
ATOM     16  C   LIG    1       -0.498  12.214   0.063  0.00  0.00    +0.004 A 
ATOM     17  C   LIG    1       -1.662  11.469   0.071  0.00  0.00    +0.046 A 
ATOM     18  C   LIG    1       -1.602  10.085   0.059  0.00  0.00    +0.124 A 
BRANCH  18  19
ATOM     19  O   LIG    1       -2.745   9.352   0.060  0.00  0.00    -0.506 OA
ATOM     20  H   LIG    1       -3.072   9.135   0.944  0.00  0.00    +0.292 HD
ENDBRANCH  18  19
ENDBRANCH  12  13
ENDBRANCH   8  11
TORSDOF 3
