REMARK  Name = ZINC03988699
REMARK                            x       y       z     vdW  Elec       q    Type
REMARK                         _______ _______ _______ _____ _____    ______ ____
ROOT
ATOM      1  C   LIG    1        9.373   4.406  -0.705  0.00  0.00    +0.162 C 
ATOM      2  C   LIG    1       10.113   3.488  -1.607  0.00  0.00    +0.234 C 
ATOM      3  N   LIG    1       10.697   2.382  -1.101  0.00  0.00    -0.308 N 
ATOM      4  H   LIG    1       11.269   1.834  -1.660  0.00  0.00    +0.149 HD
ATOM      5  CA  LIG    1       10.461   2.013   0.293  0.00  0.00    +0.103 C 
ATOM      6  C   LIG    1        9.324   1.008   0.375  0.00  0.00    +0.061 C 
ATOM      7  C   LIG    1        7.997   1.683   0.549  0.00  0.00    -0.023 A 
ATOM      8  C   LIG    1        6.851   0.911   0.631  0.00  0.00    +0.028 A 
ATOM      9  C   LIG    1        5.605   1.505   0.757  0.00  0.00    +0.034 A 
ATOM     10  C   LIG    1        5.498   2.889   0.816  0.00  0.00    +0.025 A 
ATOM     11  C   LIG    1        6.636   3.666   0.753  0.00  0.00    +0.025 A 
ATOM     12  C   LIG    1        7.884   3.075   0.624  0.00  0.00    +0.033 A 
ATOM     13  O   LIG    1       10.193   3.732  -2.792  0.00  0.00    -0.274 OA
ATOM     14  N   LIG    1        9.033   3.854   0.587  0.00  0.00    -0.321 N 
ATOM     15  C   LIG    1        8.992   4.903   1.614  0.00  0.00    +0.130 C 
ENDROOT
BRANCH   9  16
ATOM     16  N   LIG    1        4.455   0.710   0.831  0.00  0.00    -0.282 N 
ATOM     17  H   LIG    1        3.704   0.993   1.377  0.00  0.00    +0.155 HD
ATOM     18  C   LIG    1        4.391  -0.448   0.145  0.00  0.00    +0.241 C 
ATOM     19  O   LIG    1        5.287  -0.751  -0.622  0.00  0.00    -0.270 OA
BRANCH  18  20
ATOM     20  C   LIG    1        3.281  -1.311   0.315  0.00  0.00    +0.067 C 
ATOM     21  C   LIG    1        3.216  -2.477  -0.377  0.00  0.00    +0.005 C 
BRANCH  21  22
ATOM     22  C   LIG    1        2.110  -3.338  -0.207  0.00  0.00    +0.001 C 
ATOM     23  C   LIG    1        2.048  -4.503  -0.892  0.00  0.00    +0.008 C 
BRANCH  23  24
ATOM     24  C   LIG    1        0.899  -5.402  -0.711  0.00  0.00    -0.025 A 
ATOM     25  C   LIG    1       -0.130  -5.059   0.173  0.00  0.00    +0.008 A 
ATOM     26  C   LIG    1       -1.207  -5.905   0.333  0.00  0.00    +0.013 A 
ATOM     27  C   LIG    1       -1.266  -7.096  -0.370  0.00  0.00    +0.055 A 
ATOM     28  C   LIG    1       -0.250  -7.445  -1.242  0.00  0.00    +0.013 A 
ATOM     29  C   LIG    1        0.831  -6.608  -1.417  0.00  0.00    +0.008 A 
BRANCH  27  30
ATOM     30  C   LIG    1       -2.444  -8.018  -0.184  0.00  0.00    +0.417 C 
ATOM     31  F   LIG    1       -2.670  -8.731  -1.367  0.00  0.00    -0.166 F 
ATOM     32  F   LIG    1       -3.580  -7.265   0.131  0.00  0.00    -0.166 F 
ATOM     33  F   LIG    1       -2.175  -8.914   0.856  0.00  0.00    -0.166 F 
ENDBRANCH  27  30
ENDBRANCH  23  24
ENDBRANCH  21  22
ENDBRANCH  18  20
ENDBRANCH   9  16
BRANCH   1  35
ATOM     34  C   LIG    1       11.576   5.255   0.114  0.00  0.00    +0.009 C 
ATOM     35  C   LIG    1       10.226   5.657  -0.485  0.00  0.00    +0.012 C 
ATOM     36  C   LIG    1       10.451   6.362  -1.823  0.00  0.00    +0.009 C 
ENDBRANCH   1  35
BRANCH   5  37
ATOM     37  C   LIG    1       11.732   1.393   0.876  0.00  0.00    +0.178 C 
BRANCH  37  38
ATOM     38  O   LIG    1       12.768   2.376   0.914  0.00  0.00    -0.393 OA
ATOM     39  H   LIG    1       13.605   2.051   1.274  0.00  0.00    +0.209 HD
ENDBRANCH  37  38
ENDBRANCH   5  37
TORSDOF 8
