REMARK  Name = ZINC03924157
REMARK                            x       y       z     vdW  Elec       q    Type
REMARK                         _______ _______ _______ _____ _____    ______ ____
ROOT
ATOM      1  C   LIG    1       -0.897   1.732  -3.398  0.00  0.00    +0.141 C 
ATOM      2  C   LIG    1       -2.012   1.061  -3.929  0.00  0.00    +0.097 C 
ATOM      3  C   LIG    1       -2.790  -0.038  -3.495  0.00  0.00    +0.112 C 
ATOM      4  N   LIG    1       -3.728  -0.250  -4.372  0.00  0.00    -0.198 NA
ATOM      5  N   LIG    1       -3.625   0.683  -5.409  0.00  0.00    -0.251 N 
ATOM      6  H   LIG    1       -4.224   0.739  -6.208  0.00  0.00    +0.170 HD
ATOM      7  C   LIG    1       -2.566   1.505  -5.145  0.00  0.00    +0.167 C 
ATOM      8  N   LIG    1       -2.068   2.566  -5.860  0.00  0.00    -0.296 NA
ATOM      9  H   LIG    1       -2.487   2.868  -6.747  0.00  0.00    +0.124 HD
ATOM     10  C   LIG    1       -0.992   3.189  -5.327  0.00  0.00    +0.096 C 
ATOM     11  C   LIG    1       -0.380   2.819  -4.121  0.00  0.00    +0.104 C 
ENDROOT
BRANCH  11  12
ATOM     12  C   LIG    1        0.791   3.559  -3.620  0.00  0.00    +0.175 C 
ATOM     13  O   LIG    1        1.353   3.194  -2.606  0.00  0.00    -0.291 OA
BRANCH  12  14
ATOM     14  C   LIG    1        1.281   4.744  -4.350  0.00  0.00    +0.088 A 
ATOM     15  C   LIG    1        2.334   4.622  -5.264  0.00  0.00    +0.137 A 
ATOM     16  F   LIG    1        2.906   3.418  -5.481  0.00  0.00    -0.205 F 
ATOM     17  C   LIG    1        2.784   5.737  -5.947  0.00  0.00    +0.042 A 
ATOM     18  C   LIG    1        2.204   6.972  -5.721  0.00  0.00    -0.045 A 
ATOM     19  C   LIG    1        2.704   8.182  -6.466  0.00  0.00    +0.044 C 
ATOM     20  C   LIG    1        1.166   7.103  -4.815  0.00  0.00    +0.042 A 
ATOM     21  C   LIG    1        0.700   5.998  -4.128  0.00  0.00    +0.137 A 
ATOM     22  F   LIG    1       -0.314   6.128  -3.244  0.00  0.00    -0.205 F 
ENDBRANCH  12  14
ENDBRANCH  11  12
BRANCH   1  23
ATOM     23  O   LIG    1       -0.338   1.341  -2.230  0.00  0.00    -0.375 OA
BRANCH  23  24
ATOM     24  C   LIG    1       -0.841   1.943  -1.035  0.00  0.00    +0.160 C 
BRANCH  24  25
ATOM     25  C   LIG    1       -0.092   1.379   0.174  0.00  0.00    +0.028 C 
BRANCH  25  27
ATOM     26  C   LIG    1        0.119   1.460   2.662  0.00  0.00    +0.004 C 
ATOM     27  C   LIG    1       -0.630   2.024   1.453  0.00  0.00    -0.001 C 
ENDBRANCH  25  27
ENDBRANCH  24  25
ENDBRANCH  23  24
ENDBRANCH   1  23
TORSDOF 6
