REMARK  Name = ZINC03896836
REMARK                            x       y       z     vdW  Elec       q    Type
REMARK                         _______ _______ _______ _____ _____    ______ ____
ROOT
ATOM      1  C   LIG    1       -4.936  -2.606   0.036  0.00  0.00    +0.026 C 
ATOM      2  C   LIG    1       -5.096  -3.794  -0.651  0.00  0.00    +0.101 C 
ATOM      3  C   LIG    1       -6.412  -4.452  -0.761  0.00  0.00    +0.256 C 
ATOM      4  N   LIG    1       -6.481  -5.611  -1.450  0.00  0.00    -0.238 N 
ATOM      5  H   LIG    1       -7.335  -6.063  -1.537  0.00  0.00    +0.159 HD
ATOM      6  C   LIG    1       -5.378  -6.155  -2.024  0.00  0.00    +0.278 C 
ATOM      7  N   LIG    1       -4.185  -5.619  -1.961  0.00  0.00    -0.127 NA
ATOM      8  O   LIG    1       -7.403  -3.965  -0.248  0.00  0.00    -0.270 OA
ATOM      9  C   LIG    1       -3.957  -4.464  -1.315  0.00  0.00    +0.276 C 
ATOM     10  O   LIG    1       -2.838  -3.981  -1.274  0.00  0.00    -0.268 OA
ENDROOT
BRANCH   1  14
ATOM     11  C   LIG    1       -1.058  -1.130   0.833  0.00  0.00    +0.120 A 
ATOM     12  C   LIG    1       -2.039  -0.272   0.344  0.00  0.00    +0.046 A 
ATOM     13  C   LIG    1       -3.294  -0.743   0.084  0.00  0.00    +0.011 A 
ATOM     14  C   LIG    1       -3.594  -2.095   0.311  0.00  0.00    -0.024 A 
ATOM     15  C   LIG    1       -2.600  -2.955   0.804  0.00  0.00    +0.011 A 
ATOM     16  C   LIG    1       -1.347  -2.473   1.054  0.00  0.00    +0.046 A 
BRANCH  11  18
ATOM     17  C   LIG    1        0.417   0.732   0.839  0.00  0.00    +0.277 C 
ATOM     18  O   LIG    1        0.187  -0.656   1.089  0.00  0.00    -0.495 OA
ENDBRANCH  11  18
ENDBRANCH   1  14
BRANCH   6  19
ATOM     19  O   LIG    1       -5.518  -7.314  -2.697  0.00  0.00    -0.483 OA
ATOM     20  H   LIG    1       -6.360  -7.720  -2.759  0.00  0.00    +0.295 HD
ENDBRANCH   6  19
TORSDOF 3
