REMARK  Name = ZINC03931735
REMARK                            x       y       z     vdW  Elec       q    Type
REMARK                         _______ _______ _______ _____ _____    ______ ____
ROOT
ATOM      1  C   LIG    1       -0.013   1.086   0.008  0.00  0.00    +0.178 C 
ATOM      2  C   LIG    1        1.423   1.616  -0.003  0.00  0.00    +0.177 C 
ATOM      3  C   LIG    1        2.120   1.158  -1.288  0.00  0.00    +0.179 C 
ATOM      4  C   LIG    1        1.317   1.656  -2.495  0.00  0.00    +0.205 C 
ATOM      5  C   LIG    1       -0.120   1.155  -2.385  0.00  0.00    +0.242 C 
ATOM      6  C   LIG    1       -0.164  -0.349  -2.524  0.00  0.00    +0.272 C 
ATOM      7  N   LIG    1       -0.913  -0.588  -3.620  0.00  0.00    -0.264 N 
ATOM      8  H   LIG    1       -1.117  -1.474  -3.959  0.00  0.00    +0.157 HD
ATOM      9  C   LIG    1       -1.341   0.549  -4.182  0.00  0.00    +0.139 C 
ATOM     10  S   LIG    1       -2.314   0.608  -5.589  0.00  0.00    -0.018 S 
ATOM     11  O   LIG    1        0.363  -1.169  -1.802  0.00  0.00    -0.270 OA
ATOM     12  N   LIG    1       -0.919   1.641  -3.517  0.00  0.00    -0.289 N 
ATOM     13  H   LIG    1       -1.105   2.566  -3.742  0.00  0.00    +0.151 HD
ATOM     14  O   LIG    1       -0.703   1.560  -1.151  0.00  0.00    -0.338 OA
ENDROOT
BRANCH   2  15
ATOM     15  O   LIG    1        2.129   1.107   1.131  0.00  0.00    -0.386 OA
ATOM     16  H   LIG    1        1.740   1.355   1.980  0.00  0.00    +0.210 HD
ENDBRANCH   2  15
BRANCH   3  17
ATOM     17  O   LIG    1        3.442   1.698  -1.334  0.00  0.00    -0.386 OA
ATOM     18  H   LIG    1        4.003   1.428  -0.594  0.00  0.00    +0.210 HD
ENDBRANCH   3  17
BRANCH   4  19
ATOM     19  O   LIG    1        1.906   1.157  -3.698  0.00  0.00    -0.384 OA
ATOM     20  H   LIG    1        2.823   1.434  -3.831  0.00  0.00    +0.210 HD
ENDBRANCH   4  19
BRANCH   1  21
ATOM     21  C   LIG    1       -0.730   1.580   1.266  0.00  0.00    +0.190 C 
BRANCH  21  22
ATOM     22  O   LIG    1       -2.030   0.992   1.335  0.00  0.00    -0.392 OA
ATOM     23  H   LIG    1       -2.543   1.261   2.110  0.00  0.00    +0.210 HD
ENDBRANCH  21  22
ENDBRANCH   1  21
TORSDOF 5
