REMARK  Name = ZINC03964182
REMARK                            x       y       z     vdW  Elec       q    Type
REMARK                         _______ _______ _______ _____ _____    ______ ____
ROOT
ATOM      1  C   LIG    1       -3.062  -1.088  -1.622  0.00  0.00    +0.124 A 
ATOM      2  C   LIG    1       -1.971  -1.906  -1.876  0.00  0.00    +0.048 A 
ATOM      3  C   LIG    1       -0.691  -1.384  -1.850  0.00  0.00    +0.031 A 
ATOM      4  C   LIG    1       -0.499  -0.042  -1.565  0.00  0.00    +0.079 A 
ATOM      5  C   LIG    1       -1.593   0.780  -1.304  0.00  0.00    +0.146 A 
ATOM      6  O   LIG    1       -1.390   2.095  -1.024  0.00  0.00    -0.481 OA
ATOM      7  C   LIG    1       -0.189   2.426  -0.324  0.00  0.00    +0.325 C 
ATOM      8  C   LIG    1        0.979   1.712  -0.956  0.00  0.00    +0.258 C 
ATOM      9  O   LIG    1        2.081   2.220  -0.945  0.00  0.00    -0.271 OA
ATOM     10  N   LIG    1        0.794   0.506  -1.534  0.00  0.00    -0.261 N 
ATOM     11  C   LIG    1       -2.873   0.255  -1.331  0.00  0.00    +0.093 A 
ENDROOT
BRANCH   1  12
ATOM     12  O   LIG    1       -4.319  -1.605  -1.654  0.00  0.00    -0.488 OA
BRANCH  12  16
ATOM     13  N   LIG    1       -7.882  -0.107  -0.118  0.00  0.00    -0.228 N 
ATOM     14  C   LIG    1       -7.834  -0.280  -1.577  0.00  0.00    +0.229 C 
ATOM     15  C   LIG    1       -6.694  -1.243  -1.922  0.00  0.00    +0.088 C 
ATOM     16  C   LIG    1       -5.391  -0.726  -1.307  0.00  0.00    +0.181 C 
ATOM     17  C   LIG    1       -5.531  -0.669   0.216  0.00  0.00    +0.088 C 
ATOM     18  C   LIG    1       -6.658   0.301   0.585  0.00  0.00    +0.229 C 
BRANCH  13  20
ATOM     19  C   LIG    1       -9.116  -0.011   2.045  0.00  0.00    +0.140 C 
ATOM     20  C   LIG    1       -9.046  -0.322   0.572  0.00  0.00    +0.235 C 
ATOM     21  N   LIG    1      -10.064  -0.800  -0.107  0.00  0.00    -0.293 N 
ATOM     22  H   LIG    1       -9.966  -0.996  -1.110  0.00  0.00    +0.301 HD
ATOM     23  H   LIG    1      -10.953  -0.977   0.362  0.00  0.00    +0.301 HD
ENDBRANCH  13  20
ENDBRANCH  12  16
ENDBRANCH   1  12
BRANCH  10  24
ATOM     24  C   LIG    1        1.923  -0.219  -2.121  0.00  0.00    +0.149 C 
BRANCH  24  25
ATOM     25  C   LIG    1        2.071   0.167  -3.570  0.00  0.00    -0.029 A 
ATOM     26  C   LIG    1        2.882   1.247  -3.914  0.00  0.00    +0.006 A 
ATOM     27  C   LIG    1        3.037   1.622  -5.213  0.00  0.00    +0.009 A 
ATOM     28  C   LIG    1        2.370   0.913  -6.227  0.00  0.00    -0.018 A 
ATOM     29  C   LIG    1        2.510   1.276  -7.579  0.00  0.00    +0.009 A 
ATOM     30  C   LIG    1        1.855   0.577  -8.541  0.00  0.00    +0.016 A 
ATOM     31  C   LIG    1        1.034  -0.514  -8.207  0.00  0.00    +0.061 A 
ATOM     32  C   LIG    1        0.876  -0.896  -6.886  0.00  0.00    +0.024 A 
ATOM     33  C   LIG    1        1.545  -0.186  -5.878  0.00  0.00    -0.017 A 
ATOM     34  C   LIG    1        1.413  -0.547  -4.525  0.00  0.00    +0.013 A 
BRANCH  31  35
ATOM     35  C   LIG    1        0.332  -1.259  -9.276  0.00  0.00    +0.266 C 
ATOM     36  N   LIG    1       -0.427  -2.277  -8.901  0.00  0.00    -0.288 N 
ATOM     37  H   LIG    1       -0.509  -2.518  -7.906  0.00  0.00    +0.301 HD
ATOM     38  H   LIG    1       -0.931  -2.822  -9.601  0.00  0.00    +0.301 HD
BRANCH  35  39
ATOM     39  N   LIG    1        0.485  -0.883 -10.592  0.00  0.00    -0.250 N 
ATOM     40  H   LIG    1        0.025  -1.371 -11.293  0.00  0.00    +0.288 HD
ATOM     41  H   LIG    1        1.052  -0.129 -10.819  0.00  0.00    +0.288 HD
ENDBRANCH  35  39
ENDBRANCH  31  35
ENDBRANCH  24  25
ENDBRANCH  10  24
TORSDOF 7
