REMARK  Name = ZINC04005594
REMARK                            x       y       z     vdW  Elec       q    Type
REMARK                         _______ _______ _______ _____ _____    ______ ____
ROOT
ATOM      1  C   LIG    1        3.336   7.372  -0.045  0.00  0.00    +0.033 A 
ATOM      2  C   LIG    1        3.882   6.097  -0.137  0.00  0.00    +0.018 A 
ATOM      3  C   LIG    1        5.252   5.934  -0.180  0.00  0.00    +0.024 A 
ATOM      4  C   LIG    1        6.086   7.044  -0.120  0.00  0.00    +0.035 A 
ATOM      5  C   LIG    1        5.542   8.318  -0.023  0.00  0.00    +0.044 A 
ATOM      6  C   LIG    1        4.170   8.482   0.015  0.00  0.00    +0.056 A 
ATOM      7 CL   LIG    1        3.490  10.074   0.137  0.00  0.00    -0.082 Cl
ENDROOT
BRANCH   4   8
ATOM      8  N   LIG    1        7.476   6.877  -0.158  0.00  0.00    -0.281 N 
ATOM      9  H   LIG    1        7.865   6.174  -0.701  0.00  0.00    +0.155 HD
ATOM     10  C   LIG    1        8.272   7.694   0.560  0.00  0.00    +0.252 C 
ATOM     11  O   LIG    1        7.791   8.627   1.173  0.00  0.00    -0.270 OA
BRANCH  10  12
ATOM     12  C   LIG    1        9.727   7.456   0.601  0.00  0.00    +0.081 A 
ATOM     13  C   LIG    1       10.284   6.385  -0.103  0.00  0.00    +0.036 A 
ATOM     14  C   LIG    1       11.645   6.167  -0.061  0.00  0.00    +0.043 A 
ATOM     15 CL   LIG    1       12.335   4.836  -0.935  0.00  0.00    -0.083 Cl
ATOM     16  C   LIG    1       12.465   7.008   0.677  0.00  0.00    +0.043 A 
ATOM     17  C   LIG    1       11.927   8.070   1.377  0.00  0.00    +0.084 A 
ATOM     18 CL   LIG    1       12.963   9.116   2.297  0.00  0.00    -0.080 Cl
ATOM     19  C   LIG    1       10.559   8.306   1.341  0.00  0.00    +0.147 A 
BRANCH  19  20
ATOM     20  O   LIG    1       10.030   9.352   2.024  0.00  0.00    -0.505 OA
ATOM     21  H   LIG    1        9.773   9.140   2.931  0.00  0.00    +0.292 HD
ENDBRANCH  19  20
ENDBRANCH  10  12
ENDBRANCH   4   8
BRANCH   1  22
ATOM     22  S   LIG    1        1.587   7.580   0.002  0.00  0.00    -0.061 S 
BRANCH  22  29
ATOM     23  C   LIG    1       -0.967   9.503  -5.590  0.00  0.00    +0.002 A 
ATOM     24  C   LIG    1        0.266   9.649  -6.208  0.00  0.00    +0.001 A 
ATOM     25  C   LIG    1        1.418   9.372  -5.495  0.00  0.00    +0.017 A 
ATOM     26  C   LIG    1        1.323   8.952  -4.191  0.00  0.00    +0.040 A 
ATOM     27  C   LIG    1        0.085   8.787  -3.531  0.00  0.00    +0.079 A 
ATOM     28  N   LIG    1        0.155   8.367  -2.249  0.00  0.00    -0.232 NA
ATOM     29  C   LIG    1        1.299   8.127  -1.648  0.00  0.00    +0.140 A 
ATOM     30  S   LIG    1        2.489   8.496  -2.930  0.00  0.00    -0.061 S 
ATOM     31  C   LIG    1       -1.072   9.079  -4.291  0.00  0.00    +0.029 A 
ENDBRANCH  22  29
ENDBRANCH   1  22
TORSDOF 5
