REMARK  Name = ZINC04097188
REMARK                            x       y       z     vdW  Elec       q    Type
REMARK                         _______ _______ _______ _____ _____    ______ ____
ROOT
ATOM      1  C   LIG    1       -0.019   1.526   0.010  0.00  0.00    -0.013 C 
ATOM      2  C   LIG    1        0.002  -0.004   0.002  0.00  0.00    -0.068 C 
ATOM      3  C   LIG    1        0.627  -0.518  -1.312  0.00  0.00    -0.020 C 
ATOM      4  C   LIG    1        1.751   0.461  -1.733  0.00  0.00    +0.003 C 
ATOM      5  C   LIG    1        3.088  -0.317  -1.604  0.00  0.00    +0.004 C 
ATOM      6  C   LIG    1        2.651  -1.781  -1.732  0.00  0.00    -0.003 C 
ATOM      7  C   LIG    1        3.608  -2.805  -1.144  0.00  0.00    +0.000 C 
ATOM      8  C   LIG    1        4.905  -2.815  -1.961  0.00  0.00    +0.031 C 
ATOM      9  C   LIG    1        5.780  -3.939  -1.488  0.00  0.00    -0.027 C 
ATOM     10  C   LIG    1        5.309  -5.016  -0.930  0.00  0.00    -0.069 C 
ATOM     11  C   LIG    1        3.779  -5.294  -0.665  0.00  0.00    -0.008 C 
ATOM     12  C   LIG    1        3.525  -5.331   0.843  0.00  0.00    +0.016 C 
ATOM     13  C   LIG    1        3.385  -6.661  -1.233  0.00  0.00    +0.010 C 
ATOM     14  C   LIG    1        4.285  -7.740  -0.626  0.00  0.00    -0.014 C 
ATOM     15  C   LIG    1        5.738  -7.487  -1.029  0.00  0.00    -0.065 C 
ATOM     16  C   LIG    1        6.292  -6.091  -0.499  0.00  0.00    +0.016 C 
ATOM     17  C   LIG    1        2.902  -4.208  -1.266  0.00  0.00    +0.003 C 
ATOM     18  C   LIG    1        1.526  -4.239  -0.608  0.00  0.00    +0.005 C 
ATOM     19  C   LIG    1        0.619  -3.114  -1.135  0.00  0.00    +0.006 C 
ATOM     20  C   LIG    1        1.339  -1.810  -0.893  0.00  0.00    -0.040 C 
ATOM     21  C   LIG    1        1.679  -1.618   0.591  0.00  0.00    -0.071 C 
ATOM     22  N   LIG    1        0.855  -0.504   1.094  0.00  0.00    +0.380 N 
ATOM     23  H   LIG    1        0.276  -0.828   1.854  0.00  0.00    -0.082 HD
ATOM     24  C   LIG    1        1.729   0.577   1.569  0.00  0.00    -0.096 C 
ENDROOT
BRANCH  15  25
ATOM     25  N   LIG    1        6.584  -8.574  -0.519  0.00  0.00    +0.378 N 
ATOM     26  H   LIG    1        6.516  -8.609   0.487  0.00  0.00    -0.082 HD
ATOM     27  C   LIG    1        7.980  -8.331  -0.906  0.00  0.00    -0.096 C 
ATOM     28  C   LIG    1        6.134  -9.852  -1.086  0.00  0.00    -0.096 C 
ENDBRANCH  15  25
TORSDOF 1
