REMARK  Name = ZINC03905768
REMARK                            x       y       z     vdW  Elec       q    Type
REMARK                         _______ _______ _______ _____ _____    ______ ____
ROOT
ATOM      1  C   LIG    1        1.323   2.173   0.001  0.00  0.00    +0.078 C 
ATOM      2  C   LIG    1        2.436   1.407  -0.014  0.00  0.00    +0.021 C 
ATOM      3  C   LIG    1        3.790   2.068  -0.024  0.00  0.00    +0.061 C 
ATOM      4  N   LIG    1        2.353   0.044  -0.020  0.00  0.00    -0.273 N 
ATOM      5  H   LIG    1        3.179  -0.464  -0.031  0.00  0.00    +0.156 HD
ATOM      6  C   LIG    1        1.196  -0.629  -0.013  0.00  0.00    +0.304 C 
ATOM      7  N   LIG    1        0.002  -0.004   0.002  0.00  0.00    -0.288 N 
ATOM      8  H   LIG    1       -0.824  -0.512   0.007  0.00  0.00    +0.151 HD
ATOM      9  O   LIG    1        1.223  -1.845  -0.019  0.00  0.00    -0.252 OA
ATOM     10  C   LIG    1       -0.018   1.468   0.010  0.00  0.00    +0.143 C 
ENDROOT
BRANCH  10  11
ATOM     11  C   LIG    1       -0.793   1.929  -1.197  0.00  0.00    -0.022 A 
ATOM     12  C   LIG    1       -0.634   1.282  -2.409  0.00  0.00    +0.008 A 
ATOM     13  C   LIG    1       -1.349   1.702  -3.515  0.00  0.00    +0.033 A 
ATOM     14  C   LIG    1       -2.214   2.775  -3.413  0.00  0.00    +0.122 A 
ATOM     15  C   LIG    1       -2.369   3.425  -2.203  0.00  0.00    +0.033 A 
ATOM     16  C   LIG    1       -1.658   3.002  -1.095  0.00  0.00    +0.008 A 
BRANCH  14  17
ATOM     17  N   LIG    1       -2.975   3.228  -4.599  0.00  0.00    +0.006 N 
ATOM     18  O   LIG    1       -3.737   4.174  -4.509  0.00  0.00    -0.130 OA
BRANCH  17  19
ATOM     19  O   LIG    1       -2.839   2.655  -5.665  0.00  0.00    -0.396 OA
ATOM     20  H   LIG    1       -2.252   1.927  -5.734  0.00  0.00    +0.329 HD
ENDBRANCH  17  19
ENDBRANCH  14  17
ENDBRANCH  10  11
BRANCH   1  21
ATOM     21  C   LIG    1        1.408   3.585   0.007  0.00  0.00    +0.339 C 
ATOM     22  O   LIG    1        2.496   4.130   0.000  0.00  0.00    -0.245 OA
BRANCH  21  23
ATOM     23  O   LIG    1        0.281   4.328   0.022  0.00  0.00    -0.460 OA
BRANCH  23  24
ATOM     24  C   LIG    1        0.441   5.748   0.027  0.00  0.00    +0.243 C 
BRANCH  24  25
ATOM     25  C   LIG    1       -0.935   6.416   0.044  0.00  0.00    +0.110 C 
BRANCH  25  26
ATOM     26  S   LIG    1       -0.733   8.219   0.051  0.00  0.00    -0.158 S 
BRANCH  26  28
ATOM     27  C   LIG    1       -2.408  10.381   0.077  0.00  0.00    +0.015 C 
ATOM     28  C   LIG    1       -2.433   8.851   0.070  0.00  0.00    +0.066 C 
ENDBRANCH  26  28
ENDBRANCH  25  26
ENDBRANCH  24  25
ENDBRANCH  23  24
ENDBRANCH  21  23
ENDBRANCH   1  21
TORSDOF 9
