REMARK  Name = ZINC04091593
REMARK                            x       y       z     vdW  Elec       q    Type
REMARK                         _______ _______ _______ _____ _____    ______ ____
ROOT
ATOM      1  C   LIG    1        3.691  -0.679  -0.038  0.00  0.00    +0.012 C 
ATOM      2  C   LIG    1        3.713  -2.030  -0.045  0.00  0.00    +0.053 C 
ENDROOT
BRANCH   1   6
ATOM      3  C   LIG    1       -0.017   1.380   0.010  0.00  0.00    +0.000 A 
ATOM      4  C   LIG    1        1.168   2.096   0.002  0.00  0.00    +0.001 A 
ATOM      5  C   LIG    1        2.377   1.434  -0.013  0.00  0.00    +0.008 A 
ATOM      6  C   LIG    1        2.405   0.035  -0.021  0.00  0.00    -0.025 A 
ATOM      7  C   LIG    1        1.203  -0.681  -0.013  0.00  0.00    +0.008 A 
ATOM      8  C   LIG    1        0.002  -0.004   0.002  0.00  0.00    +0.001 A 
ENDBRANCH   1   6
BRANCH   2   9
ATOM      9  C   LIG    1        4.953  -2.719  -0.062  0.00  0.00    +0.204 C 
ATOM     10  O   LIG    1        5.997  -2.093  -0.069  0.00  0.00    -0.286 OA
BRANCH   9  11
ATOM     11  C   LIG    1        4.978  -4.200  -0.070  0.00  0.00    +0.110 A 
ATOM     12  C   LIG    1        6.200  -4.871  -0.081  0.00  0.00    +0.031 A 
ATOM     13  C   LIG    1        6.207  -6.256  -0.088  0.00  0.00    +0.004 A 
ATOM     14  C   LIG    1        4.992  -6.924  -0.085  0.00  0.00    +0.020 A 
ATOM     15  C   LIG    1        3.815  -6.193  -0.074  0.00  0.00    +0.111 A 
ATOM     16  N   LIG    1        3.837  -4.878  -0.062  0.00  0.00    -0.252 NA
ENDBRANCH   9  11
ENDBRANCH   2   9
TORSDOF 3
