REMARK  Name = ZINC03995631
REMARK                            x       y       z     vdW  Elec       q    Type
REMARK                         _______ _______ _______ _____ _____    ______ ____
ROOT
ATOM      1  C   LIG    1        0.002  -0.004   0.002  0.00  0.00    +0.007 C 
ATOM      2  C   LIG    1       -0.797  -0.686   0.822  0.00  0.00    +0.089 C 
ENDROOT
BRANCH   2   3
ATOM      3  C   LIG    1       -0.777  -2.153   0.814  0.00  0.00    +0.329 C 
ATOM      4  O   LIG    1       -0.027  -2.750   0.054  0.00  0.00    -0.246 OA
BRANCH   3   5
ATOM      5  O   LIG    1       -1.511  -2.779   1.567  0.00  0.00    -0.478 OA
ATOM      6  H   LIG    1       -2.086  -2.321   2.149  0.00  0.00    +0.295 HD
ENDBRANCH   3   5
ENDBRANCH   2   3
BRANCH   1   7
ATOM      7  C   LIG    1       -0.018   1.503   0.010  0.00  0.00    +0.183 C 
BRANCH   7   8
ATOM      8  O   LIG    1        1.322   1.997   0.000  0.00  0.00    -0.391 OA
ATOM      9  H   LIG    1        1.385   2.962   0.005  0.00  0.00    +0.210 HD
ENDBRANCH   7   8
ENDBRANCH   1   7
TORSDOF 4
