REMARK  Name = ZINC03873275
REMARK                            x       y       z     vdW  Elec       q    Type
REMARK                         _______ _______ _______ _____ _____    ______ ____
ROOT
ATOM      1  C   LIG    1        0.039  -3.208  -1.640  0.00  0.00    +0.169 C 
ATOM      2  O   LIG    1        0.057  -4.336  -1.193  0.00  0.00    -0.292 OA
ENDROOT
BRANCH   1   6
ATOM      3  C   LIG    1       -0.018   1.461   0.010  0.00  0.00    +0.149 C 
ATOM      4  N   LIG    1        0.002  -0.004   0.002  0.00  0.00    -0.349 N 
ATOM      5  C   LIG    1        0.008  -0.763  -1.110  0.00  0.00    +0.098 A 
ATOM      6  C   LIG    1        0.028  -2.097  -0.760  0.00  0.00    +0.043 A 
ATOM      7  C   LIG    1        0.035  -2.135   0.715  0.00  0.00    +0.010 A 
ATOM      8  C   LIG    1        0.054  -3.160   1.656  0.00  0.00    +0.011 A 
ATOM      9  C   LIG    1        0.069  -2.853   3.000  0.00  0.00    +0.001 A 
ATOM     10  C   LIG    1        0.053  -1.530   3.415  0.00  0.00    +0.002 A 
ATOM     11  C   LIG    1        0.031  -0.505   2.494  0.00  0.00    +0.026 A 
ATOM     12  C   LIG    1        0.024  -0.795   1.133  0.00  0.00    +0.050 A 
ENDBRANCH   1   6
BRANCH   1  13
ATOM     13  C   LIG    1        0.029  -2.988  -3.131  0.00  0.00    +0.066 C 
ATOM     14  C   LIG    1        0.652  -4.199  -3.830  0.00  0.00    +0.018 C 
ATOM     15  C   LIG    1        0.872  -3.879  -5.314  0.00  0.00    +0.058 C 
ATOM     16  C   LIG    1       -0.412  -3.320  -5.875  0.00  0.00    +0.062 A 
ATOM     17  C   LIG    1       -1.425  -2.848  -5.118  0.00  0.00    +0.039 A 
ATOM     18  N   LIG    1       -2.403  -2.435  -5.970  0.00  0.00    -0.348 N 
ATOM     19  C   LIG    1       -1.957  -2.666  -7.226  0.00  0.00    +0.196 A 
ATOM     20  H   LIG    1       -3.257  -2.047  -5.723  0.00  0.00    +0.166 HD
ATOM     21  N   LIG    1       -0.764  -3.196  -7.158  0.00  0.00    -0.241 NA
ATOM     22  C   LIG    1       -1.417  -2.809  -3.612  0.00  0.00    +0.066 C 
ENDBRANCH   1  13
TORSDOF 2
