REMARK  Name = ZINC03875041
REMARK                            x       y       z     vdW  Elec       q    Type
REMARK                         _______ _______ _______ _____ _____    ______ ____
ROOT
ATOM      1  C   LIG    1       -0.019   1.532   0.011  0.00  0.00    -0.016 C 
ATOM      2  C   LIG    1        1.403   2.093  -0.000  0.00  0.00    +0.028 C 
ATOM      3  C   LIG    1        2.212   1.492  -1.161  0.00  0.00    +0.104 C 
ATOM      4  C   LIG    1        2.157  -0.023  -1.020  0.00  0.00    -0.008 C 
ATOM      5  C   LIG    1        2.858  -0.774  -2.165  0.00  0.00    +0.130 C 
ATOM      6  C   LIG    1        2.137  -2.150  -2.136  0.00  0.00    +0.125 C 
ATOM      7  C   LIG    1        0.785  -1.879  -1.434  0.00  0.00    -0.044 C 
ATOM      8  N   LIG    1        0.737  -0.433  -1.179  0.00  0.00    +0.387 N 
ATOM      9  H   LIG    1        0.348   0.027  -1.988  0.00  0.00    -0.081 HD
ATOM     10  C   LIG    1        0.002  -0.004   0.002  0.00  0.00    -0.078 C 
ENDROOT
BRANCH   3  11
ATOM     11  O   LIG    1        3.567   1.940  -1.090  0.00  0.00    -0.393 OA
ATOM     12  H   LIG    1        3.668   2.900  -1.144  0.00  0.00    +0.210 HD
ENDBRANCH   3  11
BRANCH   5  13
ATOM     13  O   LIG    1        2.647  -0.113  -3.414  0.00  0.00    -0.391 OA
ATOM     14  H   LIG    1        3.070  -0.549  -4.167  0.00  0.00    +0.210 HD
ENDBRANCH   5  13
BRANCH   6  15
ATOM     15  O   LIG    1        1.922  -2.626  -3.466  0.00  0.00    -0.391 OA
ATOM     16  H   LIG    1        1.475  -3.483  -3.510  0.00  0.00    +0.210 HD
ENDBRANCH   6  15
TORSDOF 3
