REMARK  Name = ZINC03979066
REMARK                            x       y       z     vdW  Elec       q    Type
REMARK                         _______ _______ _______ _____ _____    ______ ____
ROOT
ATOM      1  C   LIG    1        1.525  -2.196  -2.654  0.00  0.00    +0.183 C 
ATOM      2  C   LIG    1        3.030  -2.419  -2.374  0.00  0.00    +0.045 C 
ATOM      3  C   LIG    1        3.458  -3.641  -3.211  0.00  0.00    +0.008 C 
ATOM      4  C   LIG    1        2.204  -4.074  -4.015  0.00  0.00    +0.002 C 
ATOM      5  C   LIG    1        2.203  -3.312  -5.333  0.00  0.00    -0.003 C 
ATOM      6  C   LIG    1        3.375  -3.733  -6.217  0.00  0.00    +0.008 C 
ATOM      7  C   LIG    1        3.174  -5.176  -6.683  0.00  0.00    +0.032 C 
ATOM      8  C   LIG    1        1.862  -5.247  -7.442  0.00  0.00    -0.060 C 
ATOM      9  C   LIG    1        1.884  -5.757  -8.670  0.00  0.00    +0.046 C 
ATOM     10  C   LIG    1        0.660  -5.881  -9.463  0.00  0.00    +0.156 C 
ATOM     11  C   LIG    1       -0.658  -5.687  -8.744  0.00  0.00    +0.080 C 
ATOM     12  C   LIG    1       -0.516  -4.519  -7.777  0.00  0.00    +0.019 C 
ATOM     13  O   LIG    1        0.699  -6.150 -10.649  0.00  0.00    -0.293 OA
ATOM     14  C   LIG    1        0.618  -4.732  -6.775  0.00  0.00    -0.007 C 
ATOM     15  C   LIG    1        0.155  -5.809  -5.798  0.00  0.00    +0.016 C 
ATOM     16  C   LIG    1        0.886  -3.412  -6.072  0.00  0.00    +0.002 C 
ATOM     17  C   LIG    1       -0.271  -2.942  -5.202  0.00  0.00    +0.005 C 
ATOM     18  C   LIG    1       -0.289  -3.557  -3.814  0.00  0.00    +0.011 C 
ATOM     19  C   LIG    1        1.047  -3.582  -3.124  0.00  0.00    +0.008 C 
ATOM     20  C   LIG    1        0.946  -4.506  -1.902  0.00  0.00    +0.015 C 
ENDROOT
BRANCH   1  21
ATOM     21  O   LIG    1        0.846  -1.807  -1.459  0.00  0.00    -0.461 OA
BRANCH  21  22
ATOM     22  C   LIG    1        0.707  -0.490  -1.238  0.00  0.00    +0.307 C 
ATOM     23  O   LIG    1        1.148   0.305  -2.033  0.00  0.00    -0.251 OA
BRANCH  22  25
ATOM     24  C   LIG    1       -0.019   1.526   0.010  0.00  0.00    +0.015 C 
ATOM     25  C   LIG    1        0.002  -0.004   0.002  0.00  0.00    +0.117 C 
ENDBRANCH  22  25
ENDBRANCH  21  22
ENDBRANCH   1  21
TORSDOF 3
