REMARK  Name = ZINC04016526
REMARK                            x       y       z     vdW  Elec       q    Type
REMARK                         _______ _______ _______ _____ _____    ______ ____
ROOT
ATOM      1  N   LIG    1        1.237  -2.082  -0.022  0.00  0.00    -0.210 N 
ATOM      2  C   LIG    1        2.369  -2.787  -0.130  0.00  0.00    +0.231 C 
ATOM      3  C   LIG    1        2.047  -4.264  -0.106  0.00  0.00    +0.095 C 
ATOM      4  C   LIG    1        2.568  -4.856   1.241  0.00  0.00    +0.025 C 
ATOM      5  C   LIG    1        1.466  -5.943   1.521  0.00  0.00    +0.016 C 
ATOM      6  C   LIG    1        0.294  -4.896   1.484  0.00  0.00    +0.025 C 
ATOM      7  C   LIG    1        0.864  -3.831   2.429  0.00  0.00    -0.027 C 
ATOM      8  C   LIG    1        2.194  -3.798   2.286  0.00  0.00    -0.027 C 
ATOM      9  C   LIG    1        0.496  -4.289   0.037  0.00  0.00    +0.095 C 
ATOM     10  O   LIG    1        3.480  -2.314  -0.232  0.00  0.00    -0.274 OA
ATOM     11  C   LIG    1        0.128  -2.824   0.083  0.00  0.00    +0.231 C 
ATOM     12  O   LIG    1       -0.997  -2.388   0.195  0.00  0.00    -0.274 OA
ENDROOT
BRANCH   1  17
ATOM     13  C   LIG    1        0.827   1.383   1.144  0.00  0.00    +0.002 A 
ATOM     14  C   LIG    1        1.169   2.086   0.003  0.00  0.00    +0.012 A 
ATOM     15  C   LIG    1        1.534   1.409  -1.146  0.00  0.00    +0.057 A 
ATOM     16  C   LIG    1        1.558   0.028  -1.157  0.00  0.00    +0.036 A 
ATOM     17  C   LIG    1        1.214  -0.680  -0.014  0.00  0.00    +0.044 A 
ATOM     18  C   LIG    1        0.849   0.002   1.139  0.00  0.00    +0.024 A 
BRANCH  15  19
ATOM     19  C   LIG    1        1.906   2.178  -2.387  0.00  0.00    +0.417 C 
ATOM     20  F   LIG    1        1.037   1.833  -3.428  0.00  0.00    -0.166 F 
ATOM     21  F   LIG    1        3.220   1.865  -2.753  0.00  0.00    -0.166 F 
ATOM     22  F   LIG    1        1.808   3.550  -2.132  0.00  0.00    -0.166 F 
ENDBRANCH  15  19
ENDBRANCH   1  17
TORSDOF 2
