REMARK  Name = ZINC03874886
REMARK                            x       y       z     vdW  Elec       q    Type
REMARK                         _______ _______ _______ _____ _____    ______ ____
ROOT
ATOM      1  C   LIG    1        1.381  -3.029  -2.963  0.00  0.00    +0.041 A 
ATOM      2  C   LIG    1        2.026  -2.076  -3.740  0.00  0.00    +0.134 A 
ATOM      3  C   LIG    1        3.347  -2.286  -4.147  0.00  0.00    +0.059 A 
ATOM      4  C   LIG    1        4.021  -3.454  -3.773  0.00  0.00    +0.147 A 
ATOM      5  O   LIG    1        5.300  -3.632  -4.183  0.00  0.00    -0.481 OA
ATOM      6  C   LIG    1        5.654  -3.106  -5.463  0.00  0.00    +0.124 C 
ATOM      7  C   LIG    1        5.012  -3.964  -6.556  0.00  0.00    +0.060 C 
ATOM      8  C   LIG    1        7.175  -3.143  -5.621  0.00  0.00    +0.060 C 
ATOM      9  C   LIG    1        5.173  -1.685  -5.600  0.00  0.00    +0.020 C 
ATOM     10  C   LIG    1        3.367  -4.411  -2.990  0.00  0.00    +0.106 A 
ATOM     11  C   LIG    1        4.064  -1.294  -4.975  0.00  0.00    +0.015 C 
ATOM     12  C   LIG    1        2.040  -4.185  -2.583  0.00  0.00    +0.138 A 
ENDROOT
BRANCH   2  13
ATOM     13  O   LIG    1        1.376  -0.943  -4.104  0.00  0.00    -0.506 OA
ATOM     14  H   LIG    1        0.490  -0.802  -3.831  0.00  0.00    +0.292 HD
ENDBRANCH   2  13
BRANCH  10  15
ATOM     15  C   LIG    1        4.065  -5.643  -2.590  0.00  0.00    +0.193 C 
ATOM     16  O   LIG    1        4.079  -6.605  -3.338  0.00  0.00    -0.287 OA
BRANCH  15  17
ATOM     17  C   LIG    1        4.742  -5.714  -1.294  0.00  0.00    +0.052 C 
ATOM     18  C   LIG    1        5.290  -6.875  -0.882  0.00  0.00    +0.012 C 
BRANCH  18  19
ATOM     19  C   LIG    1        5.971  -6.946   0.421  0.00  0.00    -0.025 A 
ATOM     20  C   LIG    1        6.048  -5.812   1.237  0.00  0.00    +0.008 A 
ATOM     21  C   LIG    1        6.687  -5.887   2.456  0.00  0.00    +0.001 A 
ATOM     22  C   LIG    1        7.252  -7.079   2.874  0.00  0.00    +0.000 A 
ATOM     23  C   LIG    1        7.181  -8.205   2.072  0.00  0.00    +0.001 A 
ATOM     24  C   LIG    1        6.540  -8.149   0.852  0.00  0.00    +0.008 A 
ENDBRANCH  18  19
ENDBRANCH  15  17
ENDBRANCH  10  15
BRANCH  12  25
ATOM     25  O   LIG    1        1.401  -5.106  -1.820  0.00  0.00    -0.506 OA
ATOM     26  H   LIG    1        0.926  -5.777  -2.328  0.00  0.00    +0.292 HD
ENDBRANCH  12  25
BRANCH   1  27
ATOM     27  C   LIG    1       -0.042  -2.799  -2.525  0.00  0.00    +0.085 C 
BRANCH  27  31
ATOM     28  C   LIG    1       -0.086   1.506   0.043  0.00  0.00    +0.051 C 
ATOM     29  C   LIG    1       -0.072  -0.001   0.030  0.00  0.00    +0.034 A 
ATOM     30  C   LIG    1       -0.064  -0.683  -1.180  0.00  0.00    +0.130 A 
ATOM     31  C   LIG    1       -0.051  -2.072  -1.205  0.00  0.00    +0.041 A 
ATOM     32  C   LIG    1       -0.047  -2.789  -0.024  0.00  0.00    +0.138 A 
ATOM     33  C   LIG    1       -0.055  -2.107   1.208  0.00  0.00    +0.101 A 
ATOM     34  C   LIG    1       -0.063  -0.700   1.222  0.00  0.00    +0.137 A 
BRANCH  33  35
ATOM     35  C   LIG    1       -0.051  -2.856   2.463  0.00  0.00    +0.167 C 
ATOM     36  C   LIG    1       -1.351  -3.165   3.160  0.00  0.00    +0.092 C 
ATOM     37  O   LIG    1        0.999  -3.229   2.943  0.00  0.00    -0.292 OA
ENDBRANCH  33  35
BRANCH  30  38
ATOM     38  O   LIG    1       -0.069   0.012  -2.345  0.00  0.00    -0.506 OA
ATOM     39  H   LIG    1        0.814   0.222  -2.682  0.00  0.00    +0.292 HD
ENDBRANCH  30  38
BRANCH  32  40
ATOM     40  O   LIG    1       -0.035  -4.145  -0.051  0.00  0.00    -0.506 OA
ATOM     41  H   LIG    1        0.852  -4.530  -0.057  0.00  0.00    +0.292 HD
ENDBRANCH  32  40
BRANCH  34  42
ATOM     42  O   LIG    1       -0.066  -0.032   2.403  0.00  0.00    -0.506 OA
ATOM     43  H   LIG    1       -0.950   0.154   2.747  0.00  0.00    +0.292 HD
ENDBRANCH  34  42
ENDBRANCH  27  31
ENDBRANCH   1  27
TORSDOF 11
