REMARK  Name = ZINC04096261
REMARK                            x       y       z     vdW  Elec       q    Type
REMARK                         _______ _______ _______ _____ _____    ______ ____
ROOT
ATOM      1  C   LIG    1        1.769   3.723   1.440  0.00  0.00    +0.200 C 
ENDROOT
BRANCH   1   2
ATOM      2  C   LIG    1        2.457   5.063   1.471  0.00  0.00    +0.241 C 
ATOM      3  N   LIG    1        3.796   5.137   1.334  0.00  0.00    -0.288 N 
ATOM      4  C   LIG    1        4.693   4.004   1.041  0.00  0.00    +0.109 C 
ATOM      5  C   LIG    1        5.941   4.646   0.386  0.00  0.00    +0.021 C 
ATOM      6  C   LIG    1        6.072   5.965   1.192  0.00  0.00    +0.033 C 
ATOM      7  C   LIG    1        4.603   6.361   1.446  0.00  0.00    +0.161 C 
ATOM      8  O   LIG    1        1.806   6.076   1.618  0.00  0.00    -0.273 OA
BRANCH   7   9
ATOM      9  C   LIG    1        4.154   7.366   0.417  0.00  0.00    +0.201 C 
ATOM     10  N   LIG    1        4.352   8.626   0.618  0.00  0.00    -0.270 NA
ATOM     11  H   LIG    1        4.063   9.273  -0.045  0.00  0.00    +0.190 HD
BRANCH   9  12
ATOM     12  O   LIG    1        3.547   6.950  -0.713  0.00  0.00    -0.494 OA
ATOM     13  H   LIG    1        3.297   7.666  -1.312  0.00  0.00    +0.293 HD
ENDBRANCH   9  12
ENDBRANCH   7   9
ENDBRANCH   1   2
BRANCH   1  14
ATOM     14  N   LIG    1        0.526   3.795   2.212  0.00  0.00    -0.240 NA
ATOM     15  C   LIG    1        0.355   3.025   3.234  0.00  0.00    +0.209 C 
BRANCH  15  16
ATOM     16  C   LIG    1       -0.923   3.099   4.028  0.00  0.00    +0.194 C 
ATOM     17  C   LIG    1       -1.601   1.710   4.086  0.00  0.00    +0.046 C 
ATOM     18  C   LIG    1       -3.094   2.107   4.000  0.00  0.00    +0.097 C 
ATOM     19  C   LIG    1       -3.071   3.460   3.325  0.00  0.00    +0.183 C 
ATOM     20  N   LIG    1       -1.892   3.972   3.354  0.00  0.00    -0.242 NA
BRANCH  19  21
ATOM     21  O   LIG    1       -4.146   4.053   2.766  0.00  0.00    -0.496 OA
ATOM     22  H   LIG    1       -3.960   4.918   2.376  0.00  0.00    +0.293 HD
ENDBRANCH  19  21
ENDBRANCH  15  16
BRANCH  15  23
ATOM     23  O   LIG    1        1.322   2.155   3.592  0.00  0.00    -0.494 OA
ATOM     24  H   LIG    1        1.103   1.622   4.368  0.00  0.00    +0.293 HD
ENDBRANCH  15  23
ENDBRANCH   1  14
BRANCH   1  25
ATOM     25  C   LIG    1        1.449   3.346  -0.007  0.00  0.00    +0.091 C 
BRANCH  25  27
ATOM     26  C   LIG    1       -0.425   1.622   0.135  0.00  0.00    +0.105 A 
ATOM     27  C   LIG    1        0.867   1.957  -0.048  0.00  0.00    +0.036 A 
ATOM     28  N   LIG    1        1.549   0.793  -0.279  0.00  0.00    -0.350 N 
ATOM     29  C   LIG    1        0.649  -0.214  -0.229  0.00  0.00    +0.171 A 
ATOM     30  H   LIG    1        2.500   0.707  -0.448  0.00  0.00    +0.166 HD
ATOM     31  N   LIG    1       -0.528   0.290   0.020  0.00  0.00    -0.352 N 
ATOM     32  H   LIG    1       -1.350  -0.219   0.107  0.00  0.00    +0.166 HD
ENDBRANCH  25  27
ENDBRANCH   1  25
TORSDOF 9
