REMARK  Name = ZINC03938751
REMARK                            x       y       z     vdW  Elec       q    Type
REMARK                         _______ _______ _______ _____ _____    ______ ____
ROOT
ATOM      1  C   LIG    1        0.531  -2.209  -3.221  0.00  0.00    +0.252 C 
ATOM      2  O   LIG    1        0.742  -2.678  -1.873  0.00  0.00    -0.345 OA
ATOM      3  C   LIG    1        1.307  -3.997  -2.020  0.00  0.00    +0.161 C 
ATOM      4  C   LIG    1        2.489  -4.126  -1.021  0.00  0.00    +0.039 C 
ATOM      5  C   LIG    1        3.680  -3.587  -1.821  0.00  0.00    +0.004 C 
ATOM      6  C   LIG    1        5.050  -4.036  -1.345  0.00  0.00    -0.000 C 
ATOM      7  C   LIG    1        5.302  -3.518   0.072  0.00  0.00    +0.008 C 
ATOM      8  C   LIG    1        6.670  -4.003   0.564  0.00  0.00    +0.032 C 
ATOM      9  C   LIG    1        7.715  -3.569  -0.446  0.00  0.00    -0.056 C 
ATOM     10  C   LIG    1        8.784  -2.910  -0.022  0.00  0.00    +0.051 C 
ATOM     11  C   LIG    1        9.809  -2.454  -0.974  0.00  0.00    +0.179 C 
ATOM     12  C   LIG    1        9.595  -2.705  -2.409  0.00  0.00    +0.047 C 
ATOM     13  C   LIG    1        8.524  -3.372  -2.810  0.00  0.00    -0.012 C 
ATOM     14  O   LIG    1       10.810  -1.883  -0.585  0.00  0.00    -0.288 OA
ATOM     15  C   LIG    1        7.485  -3.913  -1.888  0.00  0.00    +0.013 C 
ATOM     16  C   LIG    1        7.496  -5.438  -2.013  0.00  0.00    +0.020 C 
ATOM     17  C   LIG    1        6.088  -3.458  -2.319  0.00  0.00    +0.035 C 
ATOM     18  C   LIG    1        5.816  -3.894  -3.756  0.00  0.00    +0.120 C 
ATOM     19  C   LIG    1        4.382  -3.552  -4.190  0.00  0.00    +0.042 C 
ATOM     20  C   LIG    1        3.431  -4.216  -3.218  0.00  0.00    +0.012 C 
ATOM     21  C   LIG    1        3.735  -5.715  -3.173  0.00  0.00    +0.015 C 
ATOM     22  C   LIG    1        1.927  -4.000  -3.449  0.00  0.00    +0.164 C 
ATOM     23  O   LIG    1        1.684  -2.673  -3.956  0.00  0.00    -0.334 OA
ENDROOT
BRANCH  18  24
ATOM     24  O   LIG    1        6.008  -5.306  -3.859  0.00  0.00    -0.391 OA
ATOM     25  H   LIG    1        5.854  -5.660  -4.745  0.00  0.00    +0.210 HD
ENDBRANCH  18  24
BRANCH  22  26
ATOM     26  C   LIG    1        1.324  -5.069  -4.323  0.00  0.00    +0.193 C 
ATOM     27  O   LIG    1        1.767  -6.192  -4.297  0.00  0.00    -0.292 OA
BRANCH  26  28
ATOM     28  C   LIG    1        0.167  -4.737  -5.229  0.00  0.00    +0.233 C 
BRANCH  28  29
ATOM     29  O   LIG    1       -0.225  -5.907  -5.950  0.00  0.00    -0.387 OA
ATOM     30  H   LIG    1       -0.967  -5.767  -6.554  0.00  0.00    +0.210 HD
ENDBRANCH  28  29
ENDBRANCH  26  28
ENDBRANCH  22  26
BRANCH   1  31
ATOM     31  C   LIG    1        0.459  -0.681  -3.250  0.00  0.00    +0.061 C 
BRANCH  31  33
ATOM     32  C   LIG    1       -0.886   1.311  -2.568  0.00  0.00    +0.004 C 
ATOM     33  C   LIG    1       -0.814  -0.217  -2.539  0.00  0.00    +0.002 C 
ENDBRANCH  31  33
ENDBRANCH   1  31
TORSDOF 6
