REMARK  Name = ZINC03874176
REMARK                            x       y       z     vdW  Elec       q    Type
REMARK                         _______ _______ _______ _____ _____    ______ ____
ROOT
ATOM      1  C   LIG    1       -2.634   4.653   2.399  0.00  0.00    -0.021 C 
ENDROOT
BRANCH   1   2
ATOM      2  C   LIG    1       -2.635   3.701   1.201  0.00  0.00    -0.082 C 
BRANCH   2   3
ATOM      3  N   LIG    1       -1.357   2.966   1.166  0.00  0.00    +0.382 N 
ATOM      4  H   LIG    1       -1.250   2.431   2.036  0.00  0.00    -0.085 HD
ATOM      5  H   LIG    1       -0.584   3.635   1.078  0.00  0.00    -0.085 HD
BRANCH   3   6
ATOM      6  C   LIG    1       -1.331   2.038   0.019  0.00  0.00    -0.046 C 
BRANCH   6   9
ATOM      7  C   LIG    1        0.020  -1.311  -0.005  0.00  0.00    +0.068 C 
ATOM      8  C   LIG    1        0.002  -0.004   0.002  0.00  0.00    -0.134 C 
ATOM      9  C   LIG    1       -0.016   1.303   0.009  0.00  0.00    +0.005 C 
ENDBRANCH   6   9
ENDBRANCH   3   6
ENDBRANCH   2   3
ENDBRANCH   1   2
BRANCH   1  10
ATOM     10  C   LIG    1       -3.957   5.420   2.443  0.00  0.00    -0.021 C 
BRANCH  10  11
ATOM     11  C   LIG    1       -3.955   6.372   3.640  0.00  0.00    -0.082 C 
BRANCH  11  12
ATOM     12  N   LIG    1       -5.233   7.107   3.675  0.00  0.00    +0.382 N 
ATOM     13  H   LIG    1       -5.340   7.642   2.805  0.00  0.00    -0.085 HD
ATOM     14  H   LIG    1       -6.007   6.438   3.763  0.00  0.00    -0.085 HD
BRANCH  12  15
ATOM     15  C   LIG    1       -5.259   8.035   4.822  0.00  0.00    -0.046 C 
BRANCH  15  16
ATOM     16  C   LIG    1       -6.575   8.771   4.832  0.00  0.00    +0.005 C 
ATOM     17  C   LIG    1       -7.329   8.746   5.899  0.00  0.00    -0.134 C 
ATOM     18  C   LIG    1       -8.083   8.721   6.967  0.00  0.00    +0.068 C 
ENDBRANCH  15  16
ENDBRANCH  12  15
ENDBRANCH  11  12
ENDBRANCH  10  11
ENDBRANCH   1  10
TORSDOF 9
