REMARK  Name = ZINC04076024
REMARK                            x       y       z     vdW  Elec       q    Type
REMARK                         _______ _______ _______ _____ _____    ______ ____
ROOT
ATOM      1  N   LIG    1        4.378  -1.079   1.536  0.00  0.00    -0.112 N 
ATOM      2  C   LIG    1        5.123  -0.237   2.297  0.00  0.00    +0.143 A 
ATOM      3  C   LIG    1        5.260  -0.806   3.526  0.00  0.00    +0.114 A 
ATOM      4  C   LIG    1        4.577  -2.030   3.509  0.00  0.00    +0.246 A 
ATOM      5  N   LIG    1        4.045  -2.190   2.321  0.00  0.00    -0.110 NA
ENDROOT
BRANCH   1   6
ATOM      6  S   LIG    1        3.934  -0.832  -0.041  0.00  0.00    +0.101 S 
ATOM      7  O   LIG    1        4.890   0.060  -0.597  0.00  0.00    -0.146 OA
ATOM      8  O   LIG    1        3.674  -2.114  -0.595  0.00  0.00    -0.146 OA
BRANCH   6  12
ATOM      9  C   LIG    1       -0.017   1.378   0.010  0.00  0.00    +0.000 A 
ATOM     10  C   LIG    1        1.171   2.086   0.002  0.00  0.00    +0.002 A 
ATOM     11  C   LIG    1        2.377   1.411  -0.013  0.00  0.00    +0.029 A 
ATOM     12  C   LIG    1        2.396   0.029  -0.020  0.00  0.00    +0.113 A 
ATOM     13  C   LIG    1        1.208  -0.679  -0.012  0.00  0.00    +0.029 A 
ATOM     14  C   LIG    1        0.002  -0.004   0.002  0.00  0.00    +0.002 A 
ENDBRANCH   6  12
ENDBRANCH   1   6
BRANCH   2  15
ATOM     15  N   LIG    1        5.652   0.986   1.894  0.00  0.00    -0.342 N 
ATOM     16  H   LIG    1        6.175   1.517   2.516  0.00  0.00    +0.144 HD
ATOM     17  H   LIG    1        5.499   1.307   0.992  0.00  0.00    +0.144 HD
ENDBRANCH   2  15
BRANCH   4  18
ATOM     18  O   LIG    1        4.478  -2.901   4.549  0.00  0.00    -0.402 OA
BRANCH  18  19
ATOM     19  C   LIG    1        3.778  -4.038   4.358  0.00  0.00    +0.352 C 
ATOM     20  O   LIG    1        3.259  -4.260   3.280  0.00  0.00    -0.244 OA
BRANCH  19  21
ATOM     21  C   LIG    1        3.644  -5.007   5.447  0.00  0.00    +0.097 A 
ATOM     22  C   LIG    1        2.980  -6.225   5.458  0.00  0.00    +0.023 A 
ATOM     23  C   LIG    1        3.029  -6.921   6.641  0.00  0.00    +0.008 A 
ATOM     24  C   LIG    1        3.702  -6.389   7.692  0.00  0.00    +0.046 A 
ATOM     25  S   LIG    1        4.297  -4.931   7.105  0.00  0.00    -0.090 S 
ENDBRANCH  19  21
ENDBRANCH  18  19
ENDBRANCH   4  18
TORSDOF 6
