REMARK  Name = ZINC03883923
REMARK                            x       y       z     vdW  Elec       q    Type
REMARK                         _______ _______ _______ _____ _____    ______ ____
ROOT
ATOM      1  C   LIG    1       -2.501  -4.208   0.003  0.00  0.00    +0.190 C 
ATOM      2  O   LIG    1       -1.472  -4.856  -0.010  0.00  0.00    -0.287 OA
ENDROOT
BRANCH   1   3
ATOM      3  C   LIG    1       -3.809  -4.897   0.012  0.00  0.00    +0.023 A 
ATOM      4  C   LIG    1       -4.993  -4.154   0.022  0.00  0.00    +0.013 A 
ATOM      5  C   LIG    1       -6.210  -4.802   0.030  0.00  0.00    +0.022 A 
ATOM      6  C   LIG    1       -6.261  -6.187   0.029  0.00  0.00    +0.059 A 
ATOM      7 CL   LIG    1       -7.797  -6.995   0.040  0.00  0.00    -0.082 Cl
ATOM      8  C   LIG    1       -5.090  -6.929   0.019  0.00  0.00    +0.060 A 
ATOM      9 CL   LIG    1       -5.165  -8.664   0.018  0.00  0.00    -0.082 Cl
ATOM     10  C   LIG    1       -3.866  -6.292   0.005  0.00  0.00    +0.033 A 
ENDBRANCH   1   3
BRANCH   1  12
ATOM     11  C   LIG    1       -1.247  -2.112   0.003  0.00  0.00    +0.205 C 
ATOM     12  C   LIG    1       -2.445  -2.743   0.011  0.00  0.00    +0.104 C 
BRANCH  11  13
ATOM     13  C   LIG    1       -1.190  -0.632   0.010  0.00  0.00    +0.374 C 
ATOM     14  O   LIG    1       -2.217   0.015   0.023  0.00  0.00    -0.242 OA
BRANCH  13  16
ATOM     15  C   LIG    1       -0.017   1.425   0.010  0.00  0.00    +0.280 C 
ATOM     16  O   LIG    1        0.002  -0.004   0.002  0.00  0.00    -0.462 OA
ENDBRANCH  13  16
ENDBRANCH  11  13
BRANCH  11  17
ATOM     17  O   LIG    1       -0.103  -2.833  -0.012  0.00  0.00    -0.501 OA
ATOM     18  H   LIG    1        0.726  -2.396  -0.018  0.00  0.00    +0.292 HD
ENDBRANCH  11  17
ENDBRANCH   1  12
TORSDOF 5
