REMARK  Name = ZINC03985980
REMARK                            x       y       z     vdW  Elec       q    Type
REMARK                         _______ _______ _______ _____ _____    ______ ____
ROOT
ATOM      1  C   LIG    1       -3.107  -5.219   0.017  0.00  0.00    +0.225 C 
ATOM      2  C   LIG    1       -3.540  -5.561  -1.425  0.00  0.00    +0.089 C 
ATOM      3  C   LIG    1       -3.690  -7.099  -1.417  0.00  0.00    +0.165 C 
ATOM      4  C   LIG    1       -3.329  -7.504   0.029  0.00  0.00    +0.176 C 
ATOM      5  O   LIG    1       -2.498  -6.428   0.519  0.00  0.00    -0.348 OA
ENDROOT
BRANCH   1   9
ATOM      6  C   LIG    1       -1.187  -0.712   0.010  0.00  0.00    +0.149 A 
ATOM      7  C   LIG    1       -1.187  -2.118   0.008  0.00  0.00    +0.147 A 
ATOM      8  C   LIG    1       -2.425  -2.781   0.016  0.00  0.00    +0.167 A 
ATOM      9  N   LIG    1       -2.136  -4.122   0.012  0.00  0.00    -0.288 N 
ATOM     10  C   LIG    1       -0.778  -4.247   0.002  0.00  0.00    +0.203 A 
ATOM     11  N   LIG    1       -3.543  -2.062   0.025  0.00  0.00    -0.216 NA
ATOM     12  C   LIG    1       -3.495  -0.747   0.026  0.00  0.00    +0.225 A 
ATOM     13  N   LIG    1       -0.224  -3.070  -0.001  0.00  0.00    -0.231 NA
ATOM     14  N   LIG    1       -2.355  -0.079   0.024  0.00  0.00    -0.219 NA
BRANCH   6  16
ATOM     15  C   LIG    1       -0.018   1.461   0.010  0.00  0.00    +0.127 C 
ATOM     16  N   LIG    1        0.002  -0.004   0.002  0.00  0.00    -0.330 N 
ATOM     17  H   LIG    1        0.849  -0.478  -0.009  0.00  0.00    +0.147 HD
ENDBRANCH   6  16
ENDBRANCH   1   9
BRANCH   3  18
ATOM     18  O   LIG    1       -5.034  -7.473  -1.725  0.00  0.00    -0.281 OA
BRANCH  18  19
ATOM     19  P   LIG    1       -5.419  -8.414  -2.973  0.00  0.00    +0.473 P 
ATOM     20  O   LIG    1       -4.836  -7.798  -4.291  0.00  0.00    -0.228 OA
BRANCH  19  21
ATOM     21  O   LIG    1       -6.978  -8.516  -3.090  0.00  0.00    -0.303 OA
ATOM     22  H   LIG    1       -7.351  -7.631  -3.225  0.00  0.00    +0.222 HD
ENDBRANCH  19  21
BRANCH  19  23
ATOM     23  O   LIG    1       -4.817  -9.844  -2.755  0.00  0.00    -0.303 OA
ATOM     24  H   LIG    1       -3.852  -9.781  -2.683  0.00  0.00    +0.222 HD
ENDBRANCH  19  23
ENDBRANCH  18  19
ENDBRANCH   3  18
BRANCH   4  25
ATOM     25  C   LIG    1       -2.556  -8.824   0.036  0.00  0.00    +0.206 C 
BRANCH  25  26
ATOM     26  O   LIG    1       -2.335  -9.239   1.386  0.00  0.00    -0.284 OA
BRANCH  26  27
ATOM     27  P   LIG    1       -1.549 -10.591   1.769  0.00  0.00    +0.472 P 
ATOM     28  O   LIG    1       -2.226 -11.809   1.054  0.00  0.00    -0.228 OA
BRANCH  27  29
ATOM     29  O   LIG    1       -1.599 -10.802   3.321  0.00  0.00    -0.303 OA
ATOM     30  H   LIG    1       -2.523 -10.872   3.608  0.00  0.00    +0.222 HD
ENDBRANCH  27  29
BRANCH  27  31
ATOM     31  O   LIG    1       -0.057 -10.477   1.306  0.00  0.00    -0.303 OA
ATOM     32  H   LIG    1       -0.026 -10.347   0.345  0.00  0.00    +0.222 HD
ENDBRANCH  27  31
ENDBRANCH  26  27
ENDBRANCH  25  26
ENDBRANCH   4  25
TORSDOF 11
