REMARK  Name = ZINC03953247
REMARK                            x       y       z     vdW  Elec       q    Type
REMARK                         _______ _______ _______ _____ _____    ______ ____
ROOT
ATOM      1  C   LIG    1        5.001  -2.740  -0.061  0.00  0.00    +0.065 A 
ATOM      2  C   LIG    1        5.007  -4.147  -0.075  0.00  0.00    +0.028 A 
ATOM      3  C   LIG    1        6.191  -4.819  -0.090  0.00  0.00    +0.012 A 
ATOM      4  C   LIG    1        7.386  -4.070  -0.092  0.00  0.00    +0.000 A 
ATOM      5  C   LIG    1        8.639  -4.701  -0.109  0.00  0.00    +0.010 A 
ATOM      6  C   LIG    1        9.774  -3.947  -0.111  0.00  0.00    +0.001 A 
ATOM      7  C   LIG    1        9.707  -2.555  -0.096  0.00  0.00    +0.002 A 
ATOM      8  C   LIG    1        8.509  -1.910  -0.080  0.00  0.00    +0.028 A 
ATOM      9  C   LIG    1        7.315  -2.654  -0.078  0.00  0.00    +0.072 A 
ATOM     10  N   LIG    1        6.127  -2.046  -0.069  0.00  0.00    -0.247 NA
ENDROOT
BRANCH   1  12
ATOM     11  C   LIG    1        3.692  -0.681  -0.037  0.00  0.00    +0.010 C 
ATOM     12  C   LIG    1        3.714  -2.025  -0.045  0.00  0.00    +0.028 C 
BRANCH  11  16
ATOM     13  C   LIG    1       -0.017   1.380   0.010  0.00  0.00    +0.000 A 
ATOM     14  C   LIG    1        1.168   2.095   0.002  0.00  0.00    +0.001 A 
ATOM     15  C   LIG    1        2.377   1.432  -0.013  0.00  0.00    +0.008 A 
ATOM     16  C   LIG    1        2.404   0.035  -0.021  0.00  0.00    -0.025 A 
ATOM     17  C   LIG    1        1.204  -0.681  -0.013  0.00  0.00    +0.008 A 
ATOM     18  C   LIG    1        0.002  -0.004   0.002  0.00  0.00    +0.001 A 
ENDBRANCH  11  16
ENDBRANCH   1  12
TORSDOF 2
