REMARK  Name = ZINC04006685
REMARK                            x       y       z     vdW  Elec       q    Type
REMARK                         _______ _______ _______ _____ _____    ______ ____
ROOT
ATOM      1  C   LIG    1       -0.013   1.086   0.008  0.00  0.00    +0.000 C 
ATOM      2  C   LIG    1       -0.765   1.599  -1.225  0.00  0.00    +0.002 C 
ATOM      3  C   LIG    1       -2.102   0.867  -1.315  0.00  0.00    +0.019 C 
ATOM      4  C   LIG    1       -2.838   0.942  -0.002  0.00  0.00    +0.058 C 
ATOM      5  N   LIG    1       -4.178   0.662  -0.088  0.00  0.00    -0.310 NA
ATOM      6  H   LIG    1       -4.625   0.428  -0.982  0.00  0.00    +0.122 HD
ATOM      7  C   LIG    1       -4.886   0.713   1.078  0.00  0.00    +0.058 C 
ATOM      8  C   LIG    1       -6.367   0.447   1.260  0.00  0.00    +0.019 C 
ATOM      9  C   LIG    1       -6.552   0.201   2.772  0.00  0.00    +0.002 C 
ATOM     10  C   LIG    1       -5.372   0.989   3.381  0.00  0.00    +0.006 C 
ATOM     11  C   LIG    1       -4.320   1.024   2.296  0.00  0.00    +0.023 C 
ATOM     12  C   LIG    1       -2.957   1.307   2.355  0.00  0.00    +0.060 C 
ATOM     13  C   LIG    1       -2.208   1.265   1.175  0.00  0.00    +0.023 C 
ATOM     14  C   LIG    1       -0.739   1.584   1.256  0.00  0.00    +0.006 C 
ENDROOT
BRANCH  12  15
ATOM     15  N   LIG    1       -2.352   1.626   3.567  0.00  0.00    -0.327 NA
ATOM     16  H   LIG    1       -2.879   1.653   4.381  0.00  0.00    +0.118 HD
ATOM     17  H   LIG    1       -1.402   1.822   3.598  0.00  0.00    +0.118 HD
ENDBRANCH  12  15
TORSDOF 1
