REMARK  Name = ZINC03877744
REMARK                            x       y       z     vdW  Elec       q    Type
REMARK                         _______ _______ _______ _____ _____    ______ ____
ROOT
ATOM      1  C   LIG    1       -1.052   3.130  -0.192  0.00  0.00    +0.024 A 
ATOM      2  C   LIG    1       -2.183   3.916  -0.268  0.00  0.00    +0.017 A 
ATOM      3  C   LIG    1       -3.447   3.330  -0.205  0.00  0.00    +0.067 A 
ATOM      4  C   LIG    1       -3.562   1.929  -0.068  0.00  0.00    -0.001 A 
ATOM      5  C   LIG    1       -2.413   1.147   0.002  0.00  0.00    +0.032 A 
ATOM      6  C   LIG    1       -1.161   1.749  -0.063  0.00  0.00    +0.034 A 
ENDROOT
BRANCH   4   7
ATOM      7  C   LIG    1       -4.894   1.298   0.000  0.00  0.00    +0.004 A 
ATOM      8  C   LIG    1       -5.572   1.095   1.282  0.00  0.00    +0.026 A 
ATOM      9  C   LIG    1       -4.972   1.495   2.484  0.00  0.00    +0.016 A 
ATOM     10  C   LIG    1       -5.622   1.295   3.665  0.00  0.00    +0.046 A 
ATOM     11  C   LIG    1       -6.882   0.695   3.684  0.00  0.00    +0.120 A 
ATOM     12  C   LIG    1       -7.490   0.292   2.506  0.00  0.00    +0.092 A 
ATOM     13  C   LIG    1       -6.844   0.487   1.294  0.00  0.00    +0.140 A 
ATOM     14  O   LIG    1       -7.427   0.099   0.142  0.00  0.00    -0.455 OA
ATOM     15  C   LIG    1       -6.838   0.267  -1.060  0.00  0.00    +0.140 A 
ATOM     16  C   LIG    1       -7.485  -0.151  -2.205  0.00  0.00    +0.097 A 
ATOM     17  C   LIG    1       -6.877   0.021  -3.454  0.00  0.00    +0.183 A 
ATOM     18  C   LIG    1       -5.604   0.622  -3.550  0.00  0.00    +0.051 A 
ATOM     19  C   LIG    1       -4.959   1.036  -2.432  0.00  0.00    +0.016 A 
ATOM     20  O   LIG    1       -7.453  -0.351  -4.469  0.00  0.00    -0.288 OA
ATOM     21  C   LIG    1       -5.562   0.874  -1.169  0.00  0.00    +0.026 A 
BRANCH  11  22
ATOM     22  O   LIG    1       -7.517   0.502   4.868  0.00  0.00    -0.507 OA
ATOM     23  H   LIG    1       -7.321  -0.348   5.286  0.00  0.00    +0.292 HD
ENDBRANCH  11  22
ENDBRANCH   4   7
BRANCH   3  24
ATOM     24  C   LIG    1       -4.657   4.169  -0.280  0.00  0.00    +0.337 C 
ATOM     25  O   LIG    1       -5.757   3.655  -0.225  0.00  0.00    -0.245 OA
BRANCH  24  26
ATOM     26  O   LIG    1       -4.543   5.505  -0.411  0.00  0.00    -0.477 OA
ATOM     27  H   LIG    1       -3.695   5.901  -0.454  0.00  0.00    +0.295 HD
ENDBRANCH  24  26
ENDBRANCH   3  24
BRANCH   6  28
ATOM     28  N   LIG    1       -0.011   0.966   0.007  0.00  0.00    -0.283 N 
ATOM     29  H   LIG    1        0.783   1.225  -0.486  0.00  0.00    +0.155 HD
BRANCH  28  30
ATOM     30  C   LIG    1        0.001  -0.176   0.785  0.00  0.00    +0.225 A 
ATOM     31  N   LIG    1       -1.043  -0.469   1.555  0.00  0.00    -0.184 NA
ATOM     32  C   LIG    1       -1.031  -1.566   2.294  0.00  0.00    +0.228 A 
ATOM     33 CL   LIG    1       -2.396  -1.952   3.294  0.00  0.00    -0.041 Cl
ATOM     34  N   LIG    1        0.023  -2.367   2.275  0.00  0.00    -0.187 NA
ATOM     35  C   LIG    1        1.067  -2.075   1.513  0.00  0.00    +0.228 A 
ATOM     36 CL   LIG    1        2.446  -3.128   1.493  0.00  0.00    -0.041 Cl
ATOM     37  N   LIG    1        1.058  -0.983   0.768  0.00  0.00    -0.184 NA
ENDBRANCH  28  30
ENDBRANCH   6  28
TORSDOF 6
