REMARK  Name = ZINC03978629
REMARK                            x       y       z     vdW  Elec       q    Type
REMARK                         _______ _______ _______ _____ _____    ______ ____
ROOT
ATOM      1  C   LIG    1        8.291  -3.612   0.747  0.00  0.00    -0.000 C 
ENDROOT
BRANCH   1   2
ATOM      2  C   LIG    1        7.592  -2.450   0.038  0.00  0.00    +0.000 C 
BRANCH   2   3
ATOM      3  C   LIG    1        6.241  -2.184   0.704  0.00  0.00    +0.000 C 
BRANCH   3   4
ATOM      4  C   LIG    1        5.542  -1.023  -0.006  0.00  0.00    +0.000 C 
BRANCH   4   5
ATOM      5  C   LIG    1        4.191  -0.757   0.660  0.00  0.00    +0.001 C 
BRANCH   5   6
ATOM      6  C   LIG    1        3.492   0.405  -0.049  0.00  0.00    +0.007 C 
BRANCH   6   9
ATOM      7  C   LIG    1       -0.018   1.507   0.010  0.00  0.00    +0.027 C 
ATOM      8  C   LIG    1        1.472   1.920  -0.002  0.00  0.00    +0.011 C 
ATOM      9  C   LIG    1        2.141   0.671   0.617  0.00  0.00    +0.012 C 
ATOM     10  C   LIG    1        1.179  -0.460   0.333  0.00  0.00    -0.028 C 
ATOM     11  C   LIG    1        0.002  -0.004   0.002  0.00  0.00    -0.031 C 
ENDBRANCH   6   9
ENDBRANCH   5   6
ENDBRANCH   4   5
ENDBRANCH   3   4
ENDBRANCH   2   3
ENDBRANCH   1   2
BRANCH   1  12
ATOM     12  C   LIG    1        9.642  -3.878   0.081  0.00  0.00    +0.000 C 
BRANCH  12  13
ATOM     13  C   LIG    1       10.341  -5.039   0.791  0.00  0.00    +0.000 C 
BRANCH  13  14
ATOM     14  C   LIG    1       11.692  -5.305   0.125  0.00  0.00    +0.000 C 
BRANCH  14  15
ATOM     15  C   LIG    1       12.391  -6.467   0.834  0.00  0.00    +0.001 C 
BRANCH  15  16
ATOM     16  C   LIG    1       13.742  -6.733   0.168  0.00  0.00    +0.011 C 
BRANCH  16  17
ATOM     17  C   LIG    1       14.441  -7.895   0.878  0.00  0.00    +0.120 C 
BRANCH  17  18
ATOM     18  C   LIG    1       15.772  -8.156   0.222  0.00  0.00    +0.305 C 
ATOM     19  O   LIG    1       16.129  -7.477  -0.726  0.00  0.00    -0.251 OA
BRANCH  18  20
ATOM     20  O   LIG    1       16.492  -9.048   0.638  0.00  0.00    -0.481 OA
ATOM     21  H   LIG    1       16.218  -9.570   1.366  0.00  0.00    +0.295 HD
ENDBRANCH  18  20
ENDBRANCH  17  18
ENDBRANCH  16  17
ENDBRANCH  15  16
ENDBRANCH  14  15
ENDBRANCH  13  14
ENDBRANCH  12  13
ENDBRANCH   1  12
TORSDOF 14
