REMARK  Name = ZINC04008295
REMARK                            x       y       z     vdW  Elec       q    Type
REMARK                         _______ _______ _______ _____ _____    ______ ____
ROOT
ATOM      1  C   LIG    1        1.450  -2.345  -2.518  0.00  0.00    +0.216 A 
ATOM      2  C   LIG    1        1.611  -3.666  -2.790  0.00  0.00    +0.013 A 
ATOM      3  C   LIG    1        1.139  -4.821  -1.944  0.00  0.00    +0.048 C 
ATOM      4  C   LIG    1        2.308  -3.751  -4.021  0.00  0.00    +0.065 A 
ATOM      5  C   LIG    1        2.538  -2.428  -4.439  0.00  0.00    +0.140 A 
ATOM      6  C   LIG    1        3.212  -2.195  -5.631  0.00  0.00    +0.047 A 
ATOM      7  C   LIG    1        3.651  -3.255  -6.396  0.00  0.00    +0.007 A 
ATOM      8  C   LIG    1        3.428  -4.562  -5.991  0.00  0.00    +0.046 A 
ATOM      9  C   LIG    1        2.760  -4.821  -4.809  0.00  0.00    +0.132 A 
ATOM     10  O   LIG    1        2.002  -1.611  -3.509  0.00  0.00    -0.448 OA
ENDROOT
BRANCH   1  11
ATOM     11  C   LIG    1        0.776  -1.800  -1.335  0.00  0.00    +0.375 C 
ATOM     12  O   LIG    1        0.312  -2.552  -0.499  0.00  0.00    -0.241 OA
BRANCH  11  13
ATOM     13  O   LIG    1        0.671  -0.465  -1.174  0.00  0.00    -0.459 OA
BRANCH  13  15
ATOM     14  C   LIG    1       -0.019   1.526   0.010  0.00  0.00    +0.048 C 
ATOM     15  C   LIG    1        0.002  -0.004   0.002  0.00  0.00    +0.229 C 
ENDBRANCH  13  15
ENDBRANCH  11  13
ENDBRANCH   1  11
BRANCH   9  16
ATOM     16  O   LIG    1        2.543  -6.101  -4.412  0.00  0.00    -0.489 OA
BRANCH  16  17
ATOM     17  C   LIG    1        3.032  -7.137  -5.267  0.00  0.00    +0.258 C 
BRANCH  17  18
ATOM     18  C   LIG    1        2.697  -8.500  -4.660  0.00  0.00    +0.135 C 
BRANCH  18  19
ATOM     19  O   LIG    1        1.278  -8.673  -4.631  0.00  0.00    -0.390 OA
ATOM     20  H   LIG    1        0.860  -8.637  -5.502  0.00  0.00    +0.210 HD
ENDBRANCH  18  19
BRANCH  18  21
ATOM     21  C   LIG    1        3.327  -9.606  -5.509  0.00  0.00    -0.047 C 
BRANCH  21  22
ATOM     22  N   LIG    1        3.005 -10.915  -4.926  0.00  0.00    +0.382 N 
ATOM     23  H   LIG    1        2.004 -11.037  -4.905  0.00  0.00    -0.085 HD
ATOM     24  H   LIG    1        3.369 -10.964  -3.986  0.00  0.00    -0.085 HD
BRANCH  22  25
ATOM     25  C   LIG    1        3.611 -11.977  -5.741  0.00  0.00    -0.078 C 
ATOM     26  C   LIG    1        3.173 -13.342  -5.207  0.00  0.00    -0.014 C 
ATOM     27  C   LIG    1        5.135 -11.867  -5.671  0.00  0.00    -0.014 C 
ENDBRANCH  22  25
ENDBRANCH  21  22
ENDBRANCH  18  21
ENDBRANCH  17  18
ENDBRANCH  16  17
ENDBRANCH   9  16
TORSDOF 10
