REMARK  Name = ZINC03874585
REMARK                            x       y       z     vdW  Elec       q    Type
REMARK                         _______ _______ _______ _____ _____    ______ ____
ROOT
ATOM      1  N   LIG    1        4.098  -0.007  -2.772  0.00  0.00    +0.393 N 
ATOM      2  H   LIG    1        4.085   0.951  -2.459  0.00  0.00    -0.080 HD
ENDROOT
BRANCH   1   3
ATOM      3  C   LIG    1        2.752  -0.398  -3.211  0.00  0.00    +0.020 C 
BRANCH   3   5
ATOM      4  N   LIG    1        0.462  -0.429  -2.275  0.00  0.00    -0.300 N 
ATOM      5  C   LIG    1        1.767  -0.144  -2.098  0.00  0.00    +0.199 C 
ATOM      6  O   LIG    1        2.150   0.317  -1.044  0.00  0.00    -0.278 OA
ATOM      7  C   LIG    1       -0.000  -0.986  -3.549  0.00  0.00    +0.132 C 
BRANCH   4   9
ATOM      8  C   LIG    1       -0.486   1.306  -0.835  0.00  0.00    +0.032 C 
ATOM      9  C   LIG    1       -0.495  -0.182  -1.193  0.00  0.00    +0.035 C 
ATOM     10  C   LIG    1       -0.100  -1.004   0.035  0.00  0.00    +0.032 C 
BRANCH   9  11
ATOM     11  C   LIG    1       -1.897  -0.589  -1.650  0.00  0.00    +0.060 C 
BRANCH  11  12
ATOM     12  C   LIG    1       -2.881  -0.334  -0.537  0.00  0.00    -0.045 A 
ATOM     13  C   LIG    1       -3.143  -1.323   0.393  0.00  0.00    +0.004 A 
ATOM     14  C   LIG    1       -4.046  -1.089   1.414  0.00  0.00    +0.000 A 
ATOM     15  C   LIG    1       -4.686   0.132   1.504  0.00  0.00    +0.000 A 
ATOM     16  C   LIG    1       -4.424   1.121   0.574  0.00  0.00    +0.000 A 
ATOM     17  C   LIG    1       -3.518   0.889  -0.444  0.00  0.00    +0.004 A 
ENDBRANCH  11  12
ENDBRANCH   9  11
ENDBRANCH   4   9
ENDBRANCH   3   5
ENDBRANCH   1   3
BRANCH   1  18
ATOM     18  C   LIG    1        5.037  -0.142  -3.894  0.00  0.00    +0.020 C 
BRANCH  18  19
ATOM     19  C   LIG    1        4.696   0.869  -4.959  0.00  0.00    +0.199 C 
ATOM     20  N   LIG    1        5.343   0.846  -6.141  0.00  0.00    -0.300 N 
ATOM     21  C   LIG    1        6.376  -0.161  -6.392  0.00  0.00    +0.132 C 
ATOM     22  O   LIG    1        3.840   1.702  -4.751  0.00  0.00    -0.278 OA
BRANCH  20  23
ATOM     23  C   LIG    1        5.011   1.829  -7.176  0.00  0.00    +0.035 C 
ATOM     24  C   LIG    1        5.268   3.239  -6.641  0.00  0.00    +0.032 C 
ATOM     25  C   LIG    1        3.536   1.690  -7.558  0.00  0.00    +0.032 C 
BRANCH  23  26
ATOM     26  C   LIG    1        5.883   1.585  -8.409  0.00  0.00    +0.060 C 
BRANCH  26  27
ATOM     27  C   LIG    1        5.543   2.596  -9.473  0.00  0.00    -0.045 A 
ATOM     28  C   LIG    1        4.553   2.319 -10.398  0.00  0.00    +0.004 A 
ATOM     29  C   LIG    1        4.240   3.247 -11.374  0.00  0.00    +0.000 A 
ATOM     30  C   LIG    1        4.917   4.451 -11.426  0.00  0.00    +0.000 A 
ATOM     31  C   LIG    1        5.907   4.728 -10.501  0.00  0.00    +0.000 A 
ATOM     32  C   LIG    1        6.216   3.802  -9.522  0.00  0.00    +0.004 A 
ENDBRANCH  26  27
ENDBRANCH  23  26
ENDBRANCH  20  23
ENDBRANCH  18  19
ENDBRANCH   1  18
BRANCH   1  33
ATOM     33  C   LIG    1        4.526  -0.878  -1.669  0.00  0.00    -0.049 C 
BRANCH  33  34
ATOM     34  C   LIG    1        5.854  -0.371  -1.105  0.00  0.00    +0.137 C 
BRANCH  34  35
ATOM     35  O   LIG    1        5.660   0.912  -0.507  0.00  0.00    -0.397 OA
ATOM     36  H   LIG    1        6.462   1.295  -0.127  0.00  0.00    +0.209 HD
ENDBRANCH  34  35
ENDBRANCH  33  34
ENDBRANCH   1  33
TORSDOF 13
