REMARK  Name = ZINC03991710
REMARK                            x       y       z     vdW  Elec       q    Type
REMARK                         _______ _______ _______ _____ _____    ______ ____
ROOT
ATOM      1  C   LIG    1        1.170   2.090   0.002  0.00  0.00    +0.001 A 
ATOM      2  C   LIG    1        2.380   1.413  -0.014  0.00  0.00    +0.002 A 
ATOM      3  C   LIG    1        2.414   0.035  -0.021  0.00  0.00    +0.026 A 
ATOM      4  C   LIG    1        1.226  -0.691  -0.013  0.00  0.00    +0.048 A 
ATOM      5  C   LIG    1        0.002  -0.004   0.002  0.00  0.00    +0.008 A 
ATOM      6  C   LIG    1       -1.053  -1.031   0.007  0.00  0.00    +0.022 A 
ATOM      7  C   LIG    1       -2.452  -0.970   0.021  0.00  0.00    +0.062 A 
ATOM      8  C   LIG    1       -3.205  -2.158   0.022  0.00  0.00    +0.062 A 
ATOM      9  C   LIG    1       -4.618  -1.742   0.039  0.00  0.00    +0.260 A 
ATOM     10  N   LIG    1       -4.670  -0.398   0.046  0.00  0.00    -0.289 N 
ATOM     11  H   LIG    1       -5.489   0.121   0.057  0.00  0.00    +0.172 HD
ATOM     12  O   LIG    1       -5.577  -2.489   0.045  0.00  0.00    -0.267 OA
ATOM     13  C   LIG    1       -2.551  -3.397   0.009  0.00  0.00    +0.022 A 
ATOM     14  C   LIG    1       -3.028  -4.790   0.008  0.00  0.00    +0.008 A 
ATOM     15  C   LIG    1       -4.297  -5.369   0.018  0.00  0.00    +0.012 A 
ATOM     16  C   LIG    1       -4.423  -6.741   0.013  0.00  0.00    +0.016 A 
ATOM     17  C   LIG    1       -3.293  -7.546  -0.002  0.00  0.00    +0.020 A 
ATOM     18 BR   LIG    1       -3.483  -9.428  -0.010  0.00  0.00    -0.050 Br
ATOM     19  C   LIG    1       -2.032  -6.987  -0.012  0.00  0.00    +0.041 A 
ATOM     20  C   LIG    1       -1.884  -5.603  -0.007  0.00  0.00    +0.049 A 
ATOM     21  N   LIG    1       -0.770  -4.786  -0.015  0.00  0.00    -0.352 N 
ATOM     22  H   LIG    1        0.148  -5.100  -0.025  0.00  0.00    +0.166 HD
ATOM     23  C   LIG    1       -1.149  -3.457  -0.005  0.00  0.00    +0.073 A 
ATOM     24  C   LIG    1       -3.433   0.130   0.036  0.00  0.00    +0.260 A 
ATOM     25  O   LIG    1       -3.168   1.316   0.039  0.00  0.00    -0.267 OA
ATOM     26  C   LIG    1       -0.399  -2.273  -0.006  0.00  0.00    +0.073 A 
ATOM     27  N   LIG    1        0.964  -2.048  -0.018  0.00  0.00    -0.352 N 
ATOM     28  H   LIG    1        1.641  -2.743  -0.029  0.00  0.00    +0.166 HD
ATOM     29  C   LIG    1       -0.017   1.390   0.010  0.00  0.00    +0.010 A 
ENDROOT
TORSDOF 0
