REMARK  Name = ZINC03938676
REMARK                            x       y       z     vdW  Elec       q    Type
REMARK                         _______ _______ _______ _____ _____    ______ ____
ROOT
ATOM      1  N   LIG    1       -4.028  -0.498   0.019  0.00  0.00    -0.342 N 
ATOM      2  C   LIG    1       -2.720  -0.186   0.014  0.00  0.00    +0.099 A 
ATOM      3  C   LIG    1       -2.572   1.189   0.021  0.00  0.00    +0.054 A 
ATOM      4  C   LIG    1       -3.938   1.748   0.036  0.00  0.00    +0.011 A 
ATOM      5  C   LIG    1       -4.449   3.041   0.039  0.00  0.00    +0.019 A 
ATOM      6  C   LIG    1       -5.826   3.233   0.047  0.00  0.00    -0.017 A 
ATOM      7  C   LIG    1       -6.686   2.132   0.045  0.00  0.00    +0.010 A 
ATOM      8  C   LIG    1       -6.181   0.852   0.036  0.00  0.00    +0.027 A 
ATOM      9  C   LIG    1       -4.805   0.643   0.028  0.00  0.00    +0.050 A 
ENDROOT
BRANCH   6  10
ATOM     10  C   LIG    1       -6.382   4.609   0.057  0.00  0.00    -0.018 A 
ATOM     11  C   LIG    1       -5.526   5.708   0.065  0.00  0.00    +0.012 A 
ATOM     12  C   LIG    1       -6.046   6.986   0.069  0.00  0.00    +0.046 A 
ATOM     13  C   LIG    1       -7.421   7.177   0.076  0.00  0.00    +0.130 A 
ATOM     14  C   LIG    1       -8.277   6.083   0.074  0.00  0.00    +0.046 A 
ATOM     15  C   LIG    1       -7.762   4.804   0.064  0.00  0.00    +0.012 A 
BRANCH  13  16
ATOM     16  O   LIG    1       -7.931   8.436   0.086  0.00  0.00    -0.406 OA
BRANCH  16  17
ATOM     17  C   LIG    1       -6.994   9.515   0.087  0.00  0.00    +0.575 C 
ATOM     18  F   LIG    1       -6.184   9.428   1.225  0.00  0.00    -0.133 F 
ATOM     19  F   LIG    1       -7.684  10.732   0.097  0.00  0.00    -0.133 F 
ATOM     20  F   LIG    1       -6.195   9.441  -1.059  0.00  0.00    -0.133 F 
ENDBRANCH  16  17
ENDBRANCH  13  16
ENDBRANCH   6  10
BRANCH   3  21
ATOM     21  C   LIG    1       -1.316   1.937   0.019  0.00  0.00    +0.271 C 
ATOM     22  O   LIG    1       -1.332   3.152   0.025  0.00  0.00    -0.280 OA
BRANCH  21  23
ATOM     23  C   LIG    1       -0.014   1.209   0.009  0.00  0.00    +0.378 C 
ATOM     24  O   LIG    1        0.002  -0.004   0.002  0.00  0.00    -0.241 OA
BRANCH  23  25
ATOM     25  O   LIG    1        1.142   1.897   0.001  0.00  0.00    -0.475 OA
ATOM     26  H   LIG    1        1.129   2.834   0.006  0.00  0.00    +0.296 HD
ENDBRANCH  23  25
ENDBRANCH  21  23
ENDBRANCH   3  21
BRANCH   1  27
ATOM     27  C   LIG    1       -4.557  -1.865   0.015  0.00  0.00    +0.157 C 
BRANCH  27  31
ATOM     28  C   LIG    1       -5.418  -3.047  -3.999  0.00  0.00    +0.000 A 
ATOM     29  C   LIG    1       -4.167  -3.285  -3.461  0.00  0.00    +0.000 A 
ATOM     30  C   LIG    1       -3.889  -2.903  -2.163  0.00  0.00    +0.005 A 
ATOM     31  C   LIG    1       -4.861  -2.281  -1.401  0.00  0.00    -0.028 A 
ATOM     32  C   LIG    1       -6.114  -2.048  -1.937  0.00  0.00    +0.005 A 
ATOM     33  C   LIG    1       -6.391  -2.426  -3.238  0.00  0.00    +0.000 A 
ENDBRANCH  27  31
ENDBRANCH   1  27
TORSDOF 8
