REMARK  Name = ZINC04026403
REMARK                            x       y       z     vdW  Elec       q    Type
REMARK                         _______ _______ _______ _____ _____    ______ ____
ROOT
ATOM      1  C   LIG    1       -0.019   1.526   0.010  0.00  0.00    +0.014 C 
ATOM      2  C   LIG    1        0.002  -0.004   0.002  0.00  0.00    -0.002 C 
ATOM      3  C   LIG    1       -1.407  -0.598  -0.104  0.00  0.00    +0.014 C 
ATOM      4  C   LIG    1       -2.211  -0.272   1.152  0.00  0.00    +0.032 C 
ATOM      5  C   LIG    1       -1.475  -0.842   2.349  0.00  0.00    -0.063 C 
ATOM      6  C   LIG    1       -2.153  -1.604   3.201  0.00  0.00    -0.044 C 
ATOM      7  C   LIG    1       -3.614  -1.916   2.977  0.00  0.00    +0.043 C 
ATOM      8  C   LIG    1       -3.851  -3.397   3.285  0.00  0.00    +0.083 C 
ATOM      9  C   LIG    1       -3.271  -3.743   4.631  0.00  0.00    +0.157 C 
ATOM     10  C   LIG    1       -2.080  -3.152   5.087  0.00  0.00    +0.050 C 
ATOM     11  O   LIG    1       -3.845  -4.549   5.336  0.00  0.00    -0.293 OA
ATOM     12  C   LIG    1       -1.504  -2.146   4.396  0.00  0.00    -0.041 C 
ATOM     13  C   LIG    1       -0.193  -1.533   4.821  0.00  0.00    +0.036 C 
ATOM     14  C   LIG    1        0.671  -1.360   3.573  0.00  0.00    +0.013 C 
ATOM     15  C   LIG    1       -0.024  -0.514   2.516  0.00  0.00    +0.019 C 
ATOM     16  C   LIG    1        0.821  -0.575  -1.188  0.00  0.00    +0.121 C 
ATOM     17  C   LIG    1        1.464  -1.880  -0.681  0.00  0.00    +0.032 C 
ATOM     18  C   LIG    1        1.058  -2.024   0.804  0.00  0.00    +0.007 C 
ATOM     19  C   LIG    1        0.733  -0.580   1.224  0.00  0.00    +0.005 C 
ENDROOT
BRANCH  16  20
ATOM     20  O   LIG    1        1.834   0.354  -1.578  0.00  0.00    -0.391 OA
ATOM     21  H   LIG    1        2.380   0.053  -2.318  0.00  0.00    +0.210 HD
ENDBRANCH  16  20
TORSDOF 1
