REMARK  Name = ZINC03888482
REMARK                            x       y       z     vdW  Elec       q    Type
REMARK                         _______ _______ _______ _____ _____    ______ ____
ROOT
ATOM      1  N   LIG    1        3.623  -0.651  -0.037  0.00  0.00    -0.239 N 
ATOM      2  C   LIG    1        3.742  -1.999  -0.051  0.00  0.00    +0.123 A 
ATOM      3  C   LIG    1        5.069  -2.280  -0.065  0.00  0.00    +0.035 A 
ATOM      4  C   LIG    1        5.914  -3.486  -0.084  0.00  0.00    +0.009 A 
ATOM      5  C   LIG    1        5.345  -4.757  -0.092  0.00  0.00    +0.010 A 
ATOM      6  C   LIG    1        6.155  -5.873  -0.110  0.00  0.00    +0.001 A 
ATOM      7  C   LIG    1        7.533  -5.732  -0.121  0.00  0.00    +0.002 A 
ATOM      8  C   LIG    1        8.109  -4.479  -0.113  0.00  0.00    +0.026 A 
ATOM      9  C   LIG    1        7.309  -3.341  -0.095  0.00  0.00    +0.050 A 
ATOM     10  N   LIG    1        7.903  -2.087  -0.089  0.00  0.00    -0.320 N 
ATOM     11  H   LIG    1        8.871  -2.035  -0.097  0.00  0.00    +0.169 HD
ATOM     12  C   LIG    1        7.202  -0.939  -0.072  0.00  0.00    +0.277 A 
ATOM     13  O   LIG    1        7.788   0.128  -0.067  0.00  0.00    -0.265 OA
ATOM     14  C   LIG    1        5.734  -0.967  -0.058  0.00  0.00    +0.158 A 
ATOM     15  N   LIG    1        4.773  -0.075  -0.046  0.00  0.00    -0.161 NA
ENDROOT
BRANCH   1  19
ATOM     16  C   LIG    1       -0.017   1.379   0.010  0.00  0.00    +0.000 A 
ATOM     17  C   LIG    1        1.170   2.089   0.002  0.00  0.00    +0.002 A 
ATOM     18  C   LIG    1        2.377   1.419  -0.013  0.00  0.00    +0.028 A 
ATOM     19  C   LIG    1        2.400   0.031  -0.021  0.00  0.00    +0.065 A 
ATOM     20  C   LIG    1        1.207  -0.680  -0.013  0.00  0.00    +0.028 A 
ATOM     21  C   LIG    1        0.002  -0.004   0.002  0.00  0.00    +0.002 A 
ENDBRANCH   1  19
TORSDOF 1
