REMARK  Name = ZINC03962955
REMARK                            x       y       z     vdW  Elec       q    Type
REMARK                         _______ _______ _______ _____ _____    ______ ____
ROOT
ATOM      1  N   GLU A  1       -0.290   1.103   2.662  0.00  0.00    -0.286 N 
ATOM      2  H   GLU A  1        0.382   1.702   2.302  0.00  0.00    +0.151 HD
ATOM      3  C   UNK A  0       -1.344   1.602   3.339  0.00  0.00    +0.301 C 
ATOM      4  N   GLU A  1       -1.463   2.933   3.514  0.00  0.00    -0.286 N 
ATOM      5  H   GLU A  1       -0.790   3.532   3.153  0.00  0.00    +0.151 HD
ATOM      6  O   UNK A  0       -2.187   0.852   3.791  0.00  0.00    -0.253 OA
ENDROOT
BRANCH   1   7
ATOM      7  CA  GLU A  1       -0.161  -0.344   2.472  0.00  0.00    +0.183 C 
BRANCH   7   8
ATOM      8  C   GLU A  1        0.510  -0.951   3.677  0.00  0.00    +0.325 C 
ATOM      9  O   GLU A  1        1.311  -0.297   4.324  0.00  0.00    -0.249 OA
BRANCH   8  10
ATOM     10  OXT GLU A  1        0.251  -2.096   4.006  0.00  0.00    -0.479 OA
ATOM     11  HXT GLU A  1       -0.364  -2.599   3.510  0.00  0.00    +0.295 HD
ENDBRANCH   8  10
ENDBRANCH   7   8
BRANCH   7  12
ATOM     12  CB  GLU A  1        0.683  -0.621   1.226  0.00  0.00    +0.036 C 
BRANCH  12  14
ATOM     13  CD1 GLU A  1        0.855  -0.243  -1.238  0.00  0.00    +0.007 C 
ATOM     14  CG  GLU A  1       -0.046  -0.092  -0.011  0.00  0.00    -0.015 C 
ATOM     15  CD2 GLU A  1       -1.335  -0.888  -0.224  0.00  0.00    +0.007 C 
ENDBRANCH  12  14
ENDBRANCH   7  12
ENDBRANCH   1   7
BRANCH   4  16
ATOM     16  CA  GLU A  1       -2.608   3.475   4.249  0.00  0.00    +0.183 C 
BRANCH  16  17
ATOM     17  C   GLU A  1       -3.775   3.640   3.311  0.00  0.00    +0.325 C 
ATOM     18  O   GLU A  1       -4.915   3.540   3.732  0.00  0.00    -0.249 OA
BRANCH  17  19
ATOM     19  OXT GLU A  1       -3.580   3.874   2.130  0.00  0.00    -0.479 OA
ATOM     20  HXT GLU A  1       -2.704   3.950   1.806  0.00  0.00    +0.295 HD
ENDBRANCH  17  19
ENDBRANCH  16  17
BRANCH  16  21
ATOM     21  CB  GLU A  1       -2.235   4.835   4.843  0.00  0.00    +0.045 C 
BRANCH  21  22
ATOM     22  CG  GLU A  1       -1.133   4.651   5.889  0.00  0.00    +0.123 C 
BRANCH  22  23
ATOM     23  CD  GLU A  1       -0.766   5.990   6.474  0.00  0.00    +0.305 C 
ATOM     24  OE1 GLU A  1       -1.333   6.999   6.090  0.00  0.00    -0.251 OA
BRANCH  23  25
ATOM     25  OE2 GLU A  1        0.098   6.065   7.331  0.00  0.00    -0.481 OA
ATOM     26  HE2 GLU A  1        0.534   5.289   7.626  0.00  0.00    +0.295 HD
ENDBRANCH  23  25
ENDBRANCH  22  23
ENDBRANCH  21  22
ENDBRANCH  16  21
ENDBRANCH   4  16
TORSDOF 12
