REMARK  Name = ZINC03986715
REMARK                            x       y       z     vdW  Elec       q    Type
REMARK                         _______ _______ _______ _____ _____    ______ ____
ROOT
ATOM      1  C   LIG    1        2.485  -0.564   8.448  0.00  0.00    +0.182 A 
ATOM      2  C   LIG    1        1.541   0.470   8.415  0.00  0.00    +0.256 A 
ATOM      3  N   LIG    1        1.160   0.978   7.256  0.00  0.00    -0.208 NA
ATOM      4  C   LIG    1        1.669   0.498   6.121  0.00  0.00    +0.099 A 
ATOM      5  C   LIG    1        2.607  -0.529   6.158  0.00  0.00    +0.067 A 
ATOM      6  C   LIG    1        3.185  -1.067   4.874  0.00  0.00    +0.068 C 
ATOM      7  N   LIG    1        2.991  -1.034   7.318  0.00  0.00    -0.230 NA
ENDROOT
BRANCH   4   8
ATOM      8  C   LIG    1        1.239   1.062   4.820  0.00  0.00    +0.044 A 
ATOM      9  C   LIG    1        2.191   1.478   3.890  0.00  0.00    +0.017 A 
ATOM     10  C   LIG    1        1.789   1.999   2.678  0.00  0.00    +0.047 A 
ATOM     11  C   LIG    1        0.436   2.119   2.384  0.00  0.00    +0.134 A 
ATOM     12  C   LIG    1       -0.517   1.708   3.303  0.00  0.00    +0.092 A 
ATOM     13  C   LIG    1       -0.122   1.179   4.521  0.00  0.00    +0.133 A 
BRANCH  13  14
ATOM     14  O   LIG    1       -1.055   0.775   5.422  0.00  0.00    -0.494 OA
ATOM     15  C   LIG    1       -2.426   0.924   5.048  0.00  0.00    +0.277 C 
ENDBRANCH  13  14
BRANCH  11  16
ATOM     16  O   LIG    1        0.047   2.637   1.190  0.00  0.00    -0.406 OA
BRANCH  16  17
ATOM     17  C   LIG    1        1.080   3.042   0.290  0.00  0.00    +0.575 C 
ATOM     18  F   LIG    1        0.507   3.548  -0.881  0.00  0.00    -0.133 F 
ATOM     19  F   LIG    1        1.862   4.033   0.893  0.00  0.00    -0.133 F 
ATOM     20  F   LIG    1        1.884   1.940  -0.022  0.00  0.00    -0.133 F 
ENDBRANCH  16  17
ENDBRANCH  11  16
ENDBRANCH   4   8
BRANCH   1  21
ATOM     21  N   LIG    1        2.890  -1.097   9.668  0.00  0.00    -0.322 N 
ATOM     22  H   LIG    1        2.520  -0.752  10.496  0.00  0.00    +0.148 HD
BRANCH  21  23
ATOM     23  C   LIG    1        3.878  -2.179   9.703  0.00  0.00    +0.071 C 
BRANCH  23  25
ATOM     24  C   LIG    1        5.504  -0.881   8.319  0.00  0.00    +0.006 C 
ATOM     25  C   LIG    1        5.287  -1.585   9.661  0.00  0.00    +0.019 C 
ENDBRANCH  23  25
BRANCH  23  26
ATOM     26  C   LIG    1        3.703  -2.987  10.990  0.00  0.00    +0.019 C 
ATOM     27  C   LIG    1        2.341  -3.683  10.975  0.00  0.00    +0.006 C 
ENDBRANCH  23  26
ENDBRANCH  21  23
ENDBRANCH   1  21
BRANCH   2  28
ATOM     28  O   LIG    1        1.021   0.954   9.572  0.00  0.00    -0.477 OA
ATOM     29  C   LIG    1        0.063   2.008   9.462  0.00  0.00    +0.279 C 
ENDBRANCH   2  28
TORSDOF 9
