REMARK  Name = ZINC03976838
REMARK                            x       y       z     vdW  Elec       q    Type
REMARK                         _______ _______ _______ _____ _____    ______ ____
ROOT
ATOM      1  C   LIG    1       -1.972  -1.318   6.309  0.00  0.00    +0.077 A 
ATOM      2  C   LIG    1       -2.337  -0.020   6.590  0.00  0.00    +0.040 A 
ATOM      3  C   LIG    1       -2.944   0.276   7.816  0.00  0.00    +0.042 A 
ATOM      4  C   LIG    1       -3.179  -0.758   8.757  0.00  0.00    +0.080 A 
ATOM      5  N   LIG    1       -3.764  -0.446   9.925  0.00  0.00    -0.235 NA
ATOM      6  C   LIG    1       -4.109   0.793  10.186  0.00  0.00    +0.223 A 
ATOM      7  N   LIG    1       -3.909   1.790   9.338  0.00  0.00    -0.220 NA
ATOM      8  C   LIG    1       -2.801  -2.070   8.450  0.00  0.00    +0.076 A 
ATOM      9  C   LIG    1       -3.339   1.592   8.157  0.00  0.00    +0.134 A 
ATOM     10  C   LIG    1       -2.210  -2.344   7.237  0.00  0.00    +0.144 A 
ENDROOT
BRANCH   1  12
ATOM     11  C   LIG    1       -1.575  -0.824   4.015  0.00  0.00    +0.241 C 
ATOM     12  N   LIG    1       -1.365  -1.618   5.083  0.00  0.00    -0.279 N 
ATOM     13  H   LIG    1       -0.794  -2.398   5.003  0.00  0.00    +0.155 HD
ATOM     14  O   LIG    1       -2.374   0.091   4.085  0.00  0.00    -0.271 OA
BRANCH  11  16
ATOM     15  C   LIG    1       -1.045  -0.279   1.711  0.00  0.00    -0.040 C 
ATOM     16  C   LIG    1       -0.838  -1.063   2.765  0.00  0.00    +0.061 C 
BRANCH  15  17
ATOM     17  C   LIG    1       -0.290  -0.523   0.430  0.00  0.00    -0.052 C 
BRANCH  17  19
ATOM     18  C   LIG    1       -1.963   0.581  -0.887  0.00  0.00    -0.096 C 
ATOM     19  N   LIG    1       -1.242  -0.681  -0.678  0.00  0.00    +0.378 N 
ATOM     20  H   LIG    1       -1.901  -1.412  -0.453  0.00  0.00    -0.082 HD
ATOM     21  C   LIG    1       -0.513  -1.038  -1.903  0.00  0.00    -0.096 C 
ENDBRANCH  17  19
ENDBRANCH  15  17
ENDBRANCH  11  16
ENDBRANCH   1  12
BRANCH   9  22
ATOM     22  N   LIG    1       -3.137   2.641   7.283  0.00  0.00    -0.299 N 
ATOM     23  H   LIG    1       -2.790   2.471   6.393  0.00  0.00    +0.154 HD
BRANCH  22  24
ATOM     24  C   LIG    1       -3.431   3.949   7.681  0.00  0.00    +0.034 A 
ATOM     25  C   LIG    1       -3.934   4.860   6.761  0.00  0.00    +0.026 A 
ATOM     26  C   LIG    1       -4.225   6.151   7.155  0.00  0.00    +0.041 A 
ATOM     27  C   LIG    1       -4.015   6.539   8.467  0.00  0.00    +0.142 A 
ATOM     28  F   LIG    1       -4.300   7.803   8.851  0.00  0.00    -0.204 F 
ATOM     29  C   LIG    1       -3.513   5.633   9.388  0.00  0.00    +0.078 A 
ATOM     30 CL   LIG    1       -3.250   6.123  11.032  0.00  0.00    -0.081 Cl
ATOM     31  C   LIG    1       -3.227   4.338   8.998  0.00  0.00    +0.046 A 
ENDBRANCH  22  24
ENDBRANCH   9  22
BRANCH  10  32
ATOM     32  O   LIG    1       -1.847  -3.618   6.938  0.00  0.00    -0.485 OA
BRANCH  32  33
ATOM     33  C   LIG    1       -2.221  -4.635   7.871  0.00  0.00    +0.201 C 
ATOM     34  C   LIG    1       -2.483  -5.982   7.144  0.00  0.00    +0.075 C 
ATOM     35  C   LIG    1       -2.143  -6.993   8.268  0.00  0.00    +0.163 C 
ATOM     36  O   LIG    1       -1.038  -6.410   8.976  0.00  0.00    -0.376 OA
ATOM     37  C   LIG    1       -1.042  -4.984   8.804  0.00  0.00    +0.204 C 
ENDBRANCH  32  33
ENDBRANCH  10  32
TORSDOF 8
