REMARK  Name = ZINC03952370
REMARK                            x       y       z     vdW  Elec       q    Type
REMARK                         _______ _______ _______ _____ _____    ______ ____
ROOT
ATOM      1  C   LIG    1       -0.760   1.963   1.281  0.00  0.00    +0.068 C 
ATOM      2  C   LIG    1       -0.018   1.465   0.010  0.00  0.00    +0.042 C 
ATOM      3  C   LIG    1        1.419   1.991  -0.001  0.00  0.00    +0.017 C 
ATOM      4  C   LIG    1        2.533   1.065   0.496  0.00  0.00    +0.114 C 
ATOM      5  C   LIG    1        2.017   2.177   1.407  0.00  0.00    +0.063 C 
ATOM      6  S   LIG    1        0.596   1.815   2.518  0.00  0.00    -0.157 S 
ENDROOT
BRANCH   2   7
ATOM      7  N   LIG    1        0.014  -0.008   0.024  0.00  0.00    +0.390 N 
ATOM      8  H   LIG    1        0.485  -0.328   0.879  0.00  0.00    -0.088 HD
ATOM      9  H   LIG    1        0.526  -0.354  -0.786  0.00  0.00    -0.088 HD
ATOM     10  H   LIG    1       -0.935  -0.378   0.009  0.00  0.00    -0.088 HD
ENDBRANCH   2   7
BRANCH   2  11
ATOM     11  C   LIG    1       -0.741   1.961  -1.216  0.00  0.00    +0.294 C 
ATOM     12  O   LIG    1       -0.388   2.985  -1.752  0.00  0.00    -0.253 OA
BRANCH  11  13
ATOM     13  O   LIG    1       -1.777   1.266  -1.711  0.00  0.00    -0.482 OA
ATOM     14  H   LIG    1       -2.050   0.472  -1.295  0.00  0.00    +0.295 HD
ENDBRANCH  11  13
ENDBRANCH   2  11
BRANCH   4  15
ATOM     15  C   LIG    1        3.903   1.240  -0.107  0.00  0.00    +0.309 C 
ATOM     16  O   LIG    1        4.088   2.087  -0.949  0.00  0.00    -0.251 OA
BRANCH  15  17
ATOM     17  O   LIG    1        4.917   0.456   0.291  0.00  0.00    -0.480 OA
ATOM     18  H   LIG    1        4.774  -0.201   0.944  0.00  0.00    +0.295 HD
ENDBRANCH  15  17
ENDBRANCH   4  15
TORSDOF 5
