REMARK  Name = ZINC03873984
REMARK                            x       y       z     vdW  Elec       q    Type
REMARK                         _______ _______ _______ _____ _____    ______ ____
ROOT
ATOM      1  C   LIG    1        7.650  -2.628  -1.087  0.00  0.00    +0.001 A 
ATOM      2  C   LIG    1        8.777  -1.825  -1.061  0.00  0.00    +0.001 A 
ATOM      3  C   LIG    1        8.664  -0.466  -0.832  0.00  0.00    +0.012 A 
ATOM      4  C   LIG    1        7.409   0.100  -0.626  0.00  0.00    +0.033 A 
ATOM      5  C   LIG    1        6.263  -0.715  -0.652  0.00  0.00    +0.033 A 
ATOM      6  C   LIG    1        4.928  -0.122  -0.434  0.00  0.00    +0.196 C 
ATOM      7  C   LIG    1        4.798   1.322  -0.191  0.00  0.00    +0.056 A 
ATOM      8  C   LIG    1        3.539   1.896   0.015  0.00  0.00    +0.045 A 
ATOM      9  C   LIG    1        3.429   3.272   0.239  0.00  0.00    +0.055 A 
ATOM     10  C   LIG    1        4.540   4.062   0.270  0.00  0.00    +0.140 A 
ATOM     11  C   LIG    1        5.811   3.514   0.067  0.00  0.00    +0.064 A 
ATOM     12  C   LIG    1        5.947   2.141  -0.165  0.00  0.00    +0.057 A 
ATOM     13  O   LIG    1        3.937  -0.828  -0.456  0.00  0.00    -0.287 OA
ATOM     14  C   LIG    1        7.277   1.552  -0.381  0.00  0.00    +0.196 C 
ATOM     15  O   LIG    1        8.268   2.258  -0.358  0.00  0.00    -0.287 OA
ATOM     16  C   LIG    1        6.396  -2.082  -0.884  0.00  0.00    +0.012 A 
ENDROOT
BRANCH  10  17
ATOM     17  S   LIG    1        4.373   5.791   0.562  0.00  0.00    +0.111 S 
ATOM     18  O   LIG    1        5.353   6.435  -0.240  0.00  0.00    -0.142 OA
ATOM     19  O   LIG    1        4.311   5.961   1.972  0.00  0.00    -0.142 OA
BRANCH  17  20
ATOM     20  O   LIG    1        3.017   6.211   0.014  0.00  0.00    -0.250 OA
ATOM     21  H   LIG    1        2.314   5.793   0.535  0.00  0.00    +0.245 HD
ENDBRANCH  17  20
ENDBRANCH  10  17
BRANCH  11  22
ATOM     22  N   LIG    1        6.931   4.329   0.094  0.00  0.00    -0.356 N 
ATOM     23  H   LIG    1        6.926   5.143   0.621  0.00  0.00    +0.142 HD
ATOM     24  H   LIG    1        7.721   4.085  -0.413  0.00  0.00    +0.142 HD
ENDBRANCH  11  22
BRANCH   8  25
ATOM     25  N   LIG    1        2.402   1.103  -0.008  0.00  0.00    -0.314 N 
ATOM     26  H   LIG    1        1.856   1.061  -0.808  0.00  0.00    +0.152 HD
BRANCH  25  27
ATOM     27  C   LIG    1        2.042   0.363   1.124  0.00  0.00    +0.033 A 
ATOM     28  C   LIG    1        2.841   0.399   2.260  0.00  0.00    +0.025 A 
ATOM     29  C   LIG    1        2.485  -0.331   3.377  0.00  0.00    +0.026 A 
ATOM     30  C   LIG    1        1.329  -1.101   3.364  0.00  0.00    +0.052 A 
ATOM     31  C   LIG    1        0.529  -1.133   2.230  0.00  0.00    +0.139 A 
ATOM     32  C   LIG    1        0.887  -0.407   1.111  0.00  0.00    +0.054 A 
BRANCH  30  33
ATOM     33  N   LIG    1        0.969  -1.840   4.496  0.00  0.00    -0.356 N 
ATOM     34  H   LIG    1        0.162  -2.378   4.488  0.00  0.00    +0.142 HD
ATOM     35  H   LIG    1        1.526  -1.815   5.290  0.00  0.00    +0.142 HD
ENDBRANCH  30  33
BRANCH  31  36
ATOM     36  S   LIG    1       -0.941  -2.105   2.216  0.00  0.00    +0.111 S 
ATOM     37  O   LIG    1       -1.498  -2.018   3.521  0.00  0.00    -0.142 OA
ATOM     38  O   LIG    1       -0.601  -3.347   1.615  0.00  0.00    -0.142 OA
BRANCH  36  39
ATOM     39  O   LIG    1       -1.924  -1.421   1.277  0.00  0.00    -0.250 OA
ATOM     40  H   LIG    1       -1.583  -1.457   0.370  0.00  0.00    +0.245 HD
ENDBRANCH  36  39
ENDBRANCH  31  36
ENDBRANCH  25  27
ENDBRANCH   8  25
TORSDOF 8
