REMARK  Name = ZINC03873570
REMARK                            x       y       z     vdW  Elec       q    Type
REMARK                         _______ _______ _______ _____ _____    ______ ____
ROOT
ATOM      1  C   LIG    1       -0.023   1.519  -0.286  0.00  0.00    +0.013 C 
ATOM      2  C   LIG    1       -0.012  -0.011  -0.301  0.00  0.00    -0.006 C 
ATOM      3  C   LIG    1       -1.424  -0.529  -0.578  0.00  0.00    +0.013 C 
ATOM      4  C   LIG    1        0.940  -0.504  -1.396  0.00  0.00    +0.119 C 
ATOM      5  N   LIG    1        1.012  -1.971  -1.338  0.00  0.00    -0.148 NA
ATOM      6  C   LIG    1        1.381  -2.605  -0.063  0.00  0.00    +0.257 C 
ATOM      7  N   LIG    1        0.562  -1.998   0.998  0.00  0.00    -0.148 NA
ATOM      8  C   LIG    1        0.467  -0.533   1.058  0.00  0.00    +0.119 C 
ENDROOT
BRANCH   6   9
ATOM      9  C   LIG    1        1.111  -4.086  -0.132  0.00  0.00    +0.271 C 
ATOM     10  N   LIG    1       -0.073  -4.534  -0.595  0.00  0.00    -0.195 N 
ATOM     11  H   LIG    1       -0.722  -3.908  -0.954  0.00  0.00    +0.182 HD
ATOM     12  O   LIG    1        1.958  -4.875   0.229  0.00  0.00    -0.270 OA
BRANCH  10  13
ATOM     13  O   LIG    1       -0.369  -5.918  -0.559  0.00  0.00    -0.295 OA
ATOM     14  H   LIG    1       -1.241  -6.143  -0.913  0.00  0.00    +0.241 HD
ENDBRANCH  10  13
ENDBRANCH   6   9
BRANCH   5  15
ATOM     15  S   LIG    1        0.684  -2.889  -2.677  0.00  0.00    +0.063 S 
ATOM     16  O   LIG    1       -0.654  -2.594  -3.054  0.00  0.00    -0.153 OA
ATOM     17  O   LIG    1        1.119  -4.209  -2.381  0.00  0.00    -0.153 OA
BRANCH  15  18
ATOM     18  C   LIG    1        1.715  -2.299  -3.978  0.00  0.00    +0.106 A 
ATOM     19  C   LIG    1        1.268  -1.288  -4.808  0.00  0.00    +0.032 A 
ATOM     20  C   LIG    1        2.075  -0.824  -5.830  0.00  0.00    +0.047 A 
ATOM     21  C   LIG    1        3.334  -1.373  -6.022  0.00  0.00    +0.120 A 
ATOM     22  C   LIG    1        3.780  -2.388  -5.188  0.00  0.00    +0.047 A 
ATOM     23  C   LIG    1        2.972  -2.845  -4.164  0.00  0.00    +0.032 A 
BRANCH  21  24
ATOM     24  O   LIG    1        4.129  -0.919  -7.026  0.00  0.00    -0.495 OA
ATOM     25  C   LIG    1        5.412  -1.532  -7.165  0.00  0.00    +0.277 C 
ENDBRANCH  21  24
ENDBRANCH  15  18
ENDBRANCH   5  15
BRANCH   7  26
ATOM     26  S   LIG    1       -0.235  -2.944   2.099  0.00  0.00    +0.063 S 
ATOM     27  O   LIG    1       -0.379  -4.226   1.504  0.00  0.00    -0.153 OA
ATOM     28  O   LIG    1       -1.348  -2.187   2.554  0.00  0.00    -0.153 OA
BRANCH  26  29
ATOM     29  C   LIG    1        0.836  -3.148   3.483  0.00  0.00    +0.106 A 
ATOM     30  C   LIG    1        1.649  -4.263   3.567  0.00  0.00    +0.032 A 
ATOM     31  C   LIG    1        2.489  -4.426   4.652  0.00  0.00    +0.047 A 
ATOM     32  C   LIG    1        2.517  -3.469   5.656  0.00  0.00    +0.120 A 
ATOM     33  C   LIG    1        1.700  -2.352   5.569  0.00  0.00    +0.047 A 
ATOM     34  C   LIG    1        0.865  -2.191   4.480  0.00  0.00    +0.032 A 
BRANCH  32  35
ATOM     35  O   LIG    1        3.342  -3.627   6.724  0.00  0.00    -0.495 OA
ATOM     36  C   LIG    1        3.318  -2.603   7.720  0.00  0.00    +0.277 C 
ENDBRANCH  32  35
ENDBRANCH  26  29
ENDBRANCH   7  26
TORSDOF 8
