REMARK  Name = ZINC03956771
REMARK                            x       y       z     vdW  Elec       q    Type
REMARK                         _______ _______ _______ _____ _____    ______ ____
ROOT
ATOM      1  C   LIG    1       -1.412  -0.526   0.013  0.00  0.00    +0.033 A 
ATOM      2  C   LIG    1       -2.028  -0.857  -1.142  0.00  0.00    +0.102 A 
ATOM      3  N   LIG    1       -3.312  -1.329  -1.115  0.00  0.00    -0.274 N 
ATOM      4  C   LIG    1       -3.966  -1.466   0.053  0.00  0.00    +0.331 A 
ATOM      5  N   LIG    1       -3.376  -1.144   1.219  0.00  0.00    -0.275 N 
ATOM      6  H   LIG    1       -3.862  -1.249   2.051  0.00  0.00    +0.173 HD
ATOM      7  O   LIG    1       -5.107  -1.887   0.054  0.00  0.00    -0.246 OA
ATOM      8  C   LIG    1       -2.110  -0.681   1.234  0.00  0.00    +0.257 A 
ATOM      9  O   LIG    1       -1.573  -0.394   2.289  0.00  0.00    -0.267 OA
ENDROOT
BRANCH   3  10
ATOM     10  C1* LIG    1       -3.980  -1.688  -2.368  0.00  0.00    +0.226 C 
ATOM     11  C2* LIG    1       -4.309  -3.197  -2.389  0.00  0.00    +0.088 C 
ATOM     12  C3* LIG    1       -5.680  -3.273  -3.097  0.00  0.00    +0.150 C 
ATOM     13  C4* LIG    1       -6.017  -1.801  -3.420  0.00  0.00    +0.175 C 
ATOM     14  O4* LIG    1       -5.261  -1.028  -2.462  0.00  0.00    -0.348 OA
BRANCH  12  15
ATOM     15  O3* LIG    1       -5.581  -4.042  -4.297  0.00  0.00    -0.389 OA
ATOM     16  H3* LIG    1       -5.314  -4.961  -4.155  0.00  0.00    +0.210 HD
ENDBRANCH  12  15
BRANCH  13  17
ATOM     17  C5* LIG    1       -7.516  -1.548  -3.249  0.00  0.00    +0.190 C 
BRANCH  17  18
ATOM     18  O5* LIG    1       -7.825  -0.216  -3.664  0.00  0.00    -0.392 OA
ATOM     19  H5* LIG    1       -8.761   0.015  -3.582  0.00  0.00    +0.210 HD
ENDBRANCH  17  18
ENDBRANCH  13  17
ENDBRANCH   3  10
BRANCH   1  21
ATOM     20  C   LIG    1       -0.019   1.526   0.010  0.00  0.00    +0.009 C 
ATOM     21  C   LIG    1        0.002  -0.004   0.002  0.00  0.00    +0.039 C 
ENDBRANCH   1  21
TORSDOF 5
