REMARK  Name = ZINC03941518
REMARK                            x       y       z     vdW  Elec       q    Type
REMARK                         _______ _______ _______ _____ _____    ______ ____
ROOT
ATOM      1  C   LIG    1       -5.105   2.481   2.763  0.00  0.00    +0.030 C 
ATOM      2  C   LIG    1       -6.258   2.382   3.767  0.00  0.00    -0.007 C 
ATOM      3  C   LIG    1       -7.274   3.496   3.468  0.00  0.00    -0.068 C 
ATOM      4  N   LIG    1       -6.580   4.761   3.680  0.00  0.00    +0.382 N 
ATOM      5  H   LIG    1       -6.060   4.734   4.564  0.00  0.00    -0.081 HD
ATOM      6  C   LIG    1       -7.550   5.904   3.713  0.00  0.00    -0.095 C 
ATOM      7  C   LIG    1       -5.654   4.907   2.553  0.00  0.00    -0.054 C 
ATOM      8  C   LIG    1       -6.483   4.418   1.343  0.00  0.00    -0.016 C 
ATOM      9  C   LIG    1       -7.553   3.486   1.947  0.00  0.00    -0.017 C 
ATOM     10  C   LIG    1       -4.520   3.896   2.785  0.00  0.00    +0.092 C 
ENDROOT
BRANCH   1  14
ATOM     11  C   LIG    1       -1.861  -1.091   1.434  0.00  0.00    +0.045 C 
ATOM     12  C   LIG    1       -2.481  -0.220   2.497  0.00  0.00    -0.032 A 
ATOM     13  C   LIG    1       -3.461   0.694   2.157  0.00  0.00    +0.008 A 
ATOM     14  C   LIG    1       -4.032   1.489   3.133  0.00  0.00    -0.043 A 
ATOM     15  C   LIG    1       -3.617   1.378   4.447  0.00  0.00    +0.005 A 
ATOM     16  C   LIG    1       -2.634   0.468   4.787  0.00  0.00    +0.020 A 
ATOM     17  C   LIG    1       -2.065  -0.332   3.812  0.00  0.00    +0.044 A 
ATOM     18 CL   LIG    1       -0.830  -1.475   4.238  0.00  0.00    -0.083 Cl
ENDBRANCH   1  14
BRANCH  10  19
ATOM     19  C   LIG    1       -3.878   4.156   4.124  0.00  0.00    +0.309 C 
ATOM     20  O   LIG    1       -4.567   4.373   5.092  0.00  0.00    -0.251 OA
BRANCH  19  21
ATOM     21  O   LIG    1       -2.541   4.145   4.240  0.00  0.00    -0.468 OA
ATOM     22  C   LIG    1       -1.992   4.403   5.560  0.00  0.00    +0.280 C 
ENDBRANCH  19  21
ENDBRANCH  10  19
TORSDOF 3
