REMARK  Name = ZINC03946640
REMARK                            x       y       z     vdW  Elec       q    Type
REMARK                         _______ _______ _______ _____ _____    ______ ____
ROOT
ATOM      1  C   LIG    1        4.962  -2.721   0.153  0.00  0.00    +0.195 C 
ATOM      2  C   LIG    1        5.139  -3.983  -0.689  0.00  0.00    +0.072 C 
ATOM      3  O   LIG    1        6.107  -1.898   0.401  0.00  0.00    -0.475 OA
ATOM      4  C   LIG    1        7.327  -2.509   0.430  0.00  0.00    +0.131 A 
ATOM      5  C   LIG    1        8.443  -1.901  -0.119  0.00  0.00    +0.046 A 
ATOM      6  C   LIG    1        9.675  -2.522  -0.040  0.00  0.00    +0.004 A 
ATOM      7  C   LIG    1        9.810  -3.751   0.583  0.00  0.00    +0.001 A 
ATOM      8  C   LIG    1        8.706  -4.376   1.132  0.00  0.00    +0.013 A 
ATOM      9  C   LIG    1        7.464  -3.760   1.054  0.00  0.00    +0.042 A 
ATOM     10  C   LIG    1        6.245  -4.391   1.617  0.00  0.00    +0.098 C 
ATOM     11  N   LIG    1        6.262  -5.121   2.685  0.00  0.00    -0.091 NA
ATOM     12  C   LIG    1        4.968  -4.107   0.828  0.00  0.00    +0.099 C 
ENDROOT
BRANCH   1  15
ATOM     13  N   LIG    1        3.622  -0.651  -0.037  0.00  0.00    -0.282 N 
ATOM     14  H   LIG    1        4.452  -0.156  -0.121  0.00  0.00    +0.155 HD
ATOM     15  C   LIG    1        3.645  -1.995   0.057  0.00  0.00    +0.262 C 
ATOM     16  O   LIG    1        2.606  -2.620   0.064  0.00  0.00    -0.271 OA
BRANCH  13  20
ATOM     17  C   LIG    1       -0.015   1.381   0.029  0.00  0.00    +0.000 A 
ATOM     18  C   LIG    1        0.140   0.219   0.763  0.00  0.00    +0.002 A 
ATOM     19  C   LIG    1        1.344  -0.457   0.743  0.00  0.00    +0.023 A 
ATOM     20  C   LIG    1        2.400   0.031  -0.015  0.00  0.00    +0.034 A 
ATOM     21  C   LIG    1        2.241   1.198  -0.751  0.00  0.00    +0.023 A 
ATOM     22  C   LIG    1        1.034   1.870  -0.727  0.00  0.00    +0.002 A 
ENDBRANCH  13  20
ENDBRANCH   1  15
BRANCH  11  23
ATOM     23  O   LIG    1        5.062  -5.696   3.169  0.00  0.00    -0.409 OA
ATOM     24  H   LIG    1        5.175  -6.224   3.971  0.00  0.00    +0.328 HD
ENDBRANCH  11  23
TORSDOF 3
