REMARK  Name = ZINC03954176
REMARK                            x       y       z     vdW  Elec       q    Type
REMARK                         _______ _______ _______ _____ _____    ______ ____
ROOT
ATOM      1  C   LIG    1        3.238   2.255   3.550  0.00  0.00    +0.020 A 
ATOM      2  C   LIG    1        3.863   2.599   2.385  0.00  0.00    +0.013 A 
ATOM      3  C   LIG    1        3.188   2.364   1.173  0.00  0.00    +0.031 A 
ATOM      4  C   LIG    1        3.769   2.709  -0.061  0.00  0.00    +0.128 A 
ATOM      5  C   LIG    1        3.102   2.475  -1.219  0.00  0.00    +0.063 A 
ATOM      6  C   LIG    1        1.823   1.885  -1.207  0.00  0.00    +0.131 A 
ATOM      7  C   LIG    1        1.220   1.532  -0.001  0.00  0.00    +0.170 A 
ATOM      8  C   LIG    1        1.901   1.774   1.210  0.00  0.00    +0.116 A 
ATOM      9  N   LIG    1        1.348   1.452   2.383  0.00  0.00    -0.251 NA
ATOM     10  C   LIG    1        1.972   1.674   3.514  0.00  0.00    +0.111 A 
ENDROOT
BRANCH   4  11
ATOM     11  S   LIG    1        5.369   3.447  -0.104  0.00  0.00    +0.110 S 
ATOM     12  O   LIG    1        5.492   4.217   1.084  0.00  0.00    -0.142 OA
ATOM     13  O   LIG    1        5.520   4.014  -1.398  0.00  0.00    -0.142 OA
BRANCH  11  14
ATOM     14  O   LIG    1        6.387   2.321  -0.000  0.00  0.00    -0.250 OA
ATOM     15  H   LIG    1        6.338   1.767  -0.795  0.00  0.00    +0.245 HD
ENDBRANCH  11  14
ENDBRANCH   4  11
BRANCH   6  16
ATOM     16  N   LIG    1        1.171   1.659  -2.382  0.00  0.00    -0.145 NA
ATOM     17  N   LIG    1        1.725   1.985  -3.500  0.00  0.00    -0.149 NA
BRANCH  17  18
ATOM     18  C   LIG    1        1.071   1.758  -4.678  0.00  0.00    +0.087 A 
ATOM     19  C   LIG    1       -0.208   1.169  -4.666  0.00  0.00    +0.030 A 
ATOM     20  C   LIG    1       -0.876   0.934  -5.823  0.00  0.00    +0.011 A 
ATOM     21  C   LIG    1       -0.294   1.280  -7.056  0.00  0.00    -0.016 A 
ATOM     22  C   LIG    1       -0.968   1.047  -8.266  0.00  0.00    +0.038 A 
ATOM     23  C   LIG    1       -0.380   1.393  -9.444  0.00  0.00    +0.117 A 
ATOM     24  C   LIG    1        0.885   1.977  -9.471  0.00  0.00    +0.030 A 
ATOM     25  C   LIG    1        1.570   2.218  -8.320  0.00  0.00    +0.010 A 
ATOM     26  C   LIG    1        0.994   1.875  -7.083  0.00  0.00    -0.016 A 
ATOM     27  C   LIG    1        1.669   2.116  -5.878  0.00  0.00    +0.038 A 
BRANCH  23  28
ATOM     28  S   LIG    1       -1.231   1.097 -10.959  0.00  0.00    +0.110 S 
ATOM     29  O   LIG    1       -2.155   0.048 -10.707  0.00  0.00    -0.142 OA
ATOM     30  O   LIG    1       -0.239   1.011 -11.972  0.00  0.00    -0.142 OA
BRANCH  28  31
ATOM     31  O   LIG    1       -2.055   2.341 -11.261  0.00  0.00    -0.250 OA
ATOM     32  H   LIG    1       -1.462   3.086 -11.441  0.00  0.00    +0.245 HD
ENDBRANCH  28  31
ENDBRANCH  23  28
ENDBRANCH  17  18
ENDBRANCH   6  16
BRANCH   7  33
ATOM     33  O   LIG    1       -0.012   0.964   0.007  0.00  0.00    -0.503 OA
ATOM     34  H   LIG    1       -0.000  -0.002  -0.041  0.00  0.00    +0.292 HD
ENDBRANCH   7  33
TORSDOF 7
