REMARK  Name = ZINC03873647
REMARK                            x       y       z     vdW  Elec       q    Type
REMARK                         _______ _______ _______ _____ _____    ______ ____
ROOT
ATOM      1  C   LIG    1       -0.056   4.267   0.025  0.00  0.00    +0.000 A 
ATOM      2  C   LIG    1        1.151   3.592   0.010  0.00  0.00    +0.000 A 
ATOM      3  C   LIG    1        1.169   2.210   0.003  0.00  0.00    +0.004 A 
ATOM      4  C   LIG    1       -0.018   1.503   0.010  0.00  0.00    -0.038 A 
ATOM      5  C   LIG    1       -1.225   2.178   0.020  0.00  0.00    +0.004 A 
ATOM      6  C   LIG    1       -1.244   3.560   0.032  0.00  0.00    +0.000 A 
ENDROOT
BRANCH   4   7
ATOM      7  C   LIG    1        0.002  -0.004   0.002  0.00  0.00    +0.100 C 
BRANCH   7   8
ATOM      8  S   LIG    1        0.027  -0.618   1.709  0.00  0.00    -0.174 S 
ATOM      9  H   LIG    1        0.043  -1.956   1.573  0.00  0.00    +0.102 HD
ENDBRANCH   7   8
ENDBRANCH   4   7
TORSDOF 2
