REMARK  Name = ZINC03938677
REMARK                            x       y       z     vdW  Elec       q    Type
REMARK                         _______ _______ _______ _____ _____    ______ ____
ROOT
ATOM      1  C   LIG    1        2.498   1.028   0.855  0.00  0.00    +0.012 C 
ATOM      2  C   LIG    1        1.842  -0.303   0.484  0.00  0.00    +0.038 C 
ATOM      3  C   LIG    1        0.361  -0.073   0.074  0.00  0.00    +0.012 C 
ATOM      4  C   LIG    1       -0.401  -0.344   1.376  0.00  0.00    +0.005 C 
ATOM      5  C   LIG    1       -1.866  -0.707   1.220  0.00  0.00    +0.018 C 
ATOM      6  C   LIG    1       -2.627   0.464   0.595  0.00  0.00    +0.010 C 
ATOM      7  C   LIG    1       -4.098   0.080   0.403  0.00  0.00    +0.032 C 
ATOM      8  C   LIG    1       -4.648  -0.369   1.744  0.00  0.00    -0.055 C 
ATOM      9  C   LIG    1       -5.770   0.176   2.192  0.00  0.00    +0.051 C 
ATOM     10  C   LIG    1       -6.323  -0.218   3.497  0.00  0.00    +0.179 C 
ATOM     11  C   LIG    1       -5.578  -1.193   4.311  0.00  0.00    +0.047 C 
ATOM     12  C   LIG    1       -4.463  -1.730   3.840  0.00  0.00    -0.011 C 
ATOM     13  O   LIG    1       -7.373   0.251   3.896  0.00  0.00    -0.288 OA
ATOM     14  C   LIG    1       -3.888  -1.418   2.500  0.00  0.00    +0.029 C 
ATOM     15  C   LIG    1       -3.913  -2.703   1.670  0.00  0.00    +0.022 C 
ATOM     16  C   LIG    1       -2.416  -1.016   2.622  0.00  0.00    +0.086 C 
ATOM     17 CL   LIG    1       -2.314   0.469   3.639  0.00  0.00    -0.114 Cl
ATOM     18  C   LIG    1       -1.625  -2.125   3.307  0.00  0.00    +0.137 C 
ATOM     19  C   LIG    1       -0.121  -1.810   3.344  0.00  0.00    +0.044 C 
ATOM     20  C   LIG    1        0.343  -1.593   1.921  0.00  0.00    +0.021 C 
ATOM     21  C   LIG    1       -0.024  -2.821   1.086  0.00  0.00    +0.016 C 
ATOM     22  C   LIG    1        1.815  -1.244   1.714  0.00  0.00    +0.180 C 
ENDROOT
BRANCH  18  23
ATOM     23  O   LIG    1       -1.825  -3.348   2.595  0.00  0.00    -0.390 OA
ATOM     24  H   LIG    1       -1.353  -4.104   2.971  0.00  0.00    +0.210 HD
ENDBRANCH  18  23
BRANCH  22  25
ATOM     25  C   LIG    1        2.614  -2.491   1.435  0.00  0.00    +0.192 C 
ATOM     26  O   LIG    1        2.099  -3.577   1.551  0.00  0.00    -0.292 OA
BRANCH  25  27
ATOM     27  C   LIG    1        4.057  -2.382   1.013  0.00  0.00    +0.187 C 
ATOM     28 CL   LIG    1        4.692  -4.022   0.616  0.00  0.00    -0.117 Cl
ENDBRANCH  25  27
ENDBRANCH  22  25
BRANCH  22  29
ATOM     29  O   LIG    1        2.331  -0.571   2.864  0.00  0.00    -0.444 OA
BRANCH  29  30
ATOM     30  C   LIG    1        2.497  -1.307   3.982  0.00  0.00    +0.376 C 
ATOM     31  O   LIG    1        2.314  -2.509   3.951  0.00  0.00    -0.241 OA
BRANCH  30  32
ATOM     32  C   LIG    1        2.898  -0.659   5.233  0.00  0.00    +0.211 A 
ATOM     33  C   LIG    1        3.106  -1.284   6.430  0.00  0.00    +0.056 A 
ATOM     34  C   LIG    1        3.474  -0.287   7.346  0.00  0.00    +0.042 A 
ATOM     35  C   LIG    1        3.475   0.887   6.678  0.00  0.00    +0.196 A 
ATOM     36  O   LIG    1        3.132   0.659   5.404  0.00  0.00    -0.456 OA
ENDBRANCH  30  32
ENDBRANCH  29  30
ENDBRANCH  22  29
TORSDOF 6
