REMARK  Name = ZINC03898989
REMARK                            x       y       z     vdW  Elec       q    Type
REMARK                         _______ _______ _______ _____ _____    ______ ____
ROOT
ATOM      1  C   LIG    1       -6.100   8.281   0.102  0.00  0.00    +0.068 C 
ATOM      2  C   LIG    1       -4.605   8.467   0.089  0.00  0.00    +0.064 A 
ATOM      3  C   LIG    1       -3.930   9.703   0.088  0.00  0.00    +0.001 A 
ATOM      4  C   LIG    1       -2.609   9.452   0.079  0.00  0.00    +0.052 A 
ATOM      5  C   LIG    1       -1.813  10.734   0.068  0.00  0.00    +0.060 C 
ATOM      6  C   LIG    1       -2.830  11.885   0.076  0.00  0.00    +0.009 C 
ATOM      7  C   LIG    1       -3.810  12.020  -1.125  0.00  0.00    -0.024 C 
ATOM      8  C   LIG    1       -4.506  13.370  -1.310  0.00  0.00    +0.012 C 
ATOM      9  C   LIG    1       -3.478  11.267  -2.414  0.00  0.00    +0.012 C 
ATOM     10  N   LIG    1       -2.444   8.095   0.065  0.00  0.00    -0.200 N 
ATOM     11  C   LIG    1       -1.268   7.437   0.051  0.00  0.00    +0.272 C 
ATOM     12  O   LIG    1       -0.223   8.059   0.044  0.00  0.00    -0.266 OA
ATOM     13  C   LIG    1       -4.198  11.188   0.099  0.00  0.00    +0.033 C 
ATOM     14  N   LIG    1       -3.716   7.511   0.075  0.00  0.00    -0.169 NA
ENDROOT
BRANCH  11  15
ATOM     15  C   LIG    1       -1.248   5.976   0.044  0.00  0.00    +0.072 C 
ATOM     16  C   LIG    1       -0.070   5.317   0.029  0.00  0.00    +0.013 C 
BRANCH  16  17
ATOM     17  C   LIG    1       -0.050   3.846   0.022  0.00  0.00    -0.025 A 
ATOM     18  C   LIG    1        1.169   3.159   0.007  0.00  0.00    +0.008 A 
ATOM     19  C   LIG    1        1.179   1.780   0.000  0.00  0.00    +0.001 A 
ATOM     20  C   LIG    1       -0.013   1.076   0.008  0.00  0.00    +0.000 A 
ATOM     21  C   LIG    1       -1.223   1.748   0.017  0.00  0.00    +0.001 A 
ATOM     22  C   LIG    1       -1.250   3.126   0.030  0.00  0.00    +0.008 A 
ENDBRANCH  16  17
ENDBRANCH  11  15
TORSDOF 2
