REMARK  Name = ZINC04095997
REMARK                            x       y       z     vdW  Elec       q    Type
REMARK                         _______ _______ _______ _____ _____    ______ ____
ROOT
ATOM      1  C   LIG    1        1.220  -2.130  -0.021  0.00  0.00    +0.255 C 
ATOM      2  C   LIG    1        1.827  -2.661  -1.344  0.00  0.00    +0.211 C 
ATOM      3  C   LIG    1        2.342  -4.060  -0.926  0.00  0.00    +0.179 C 
ATOM      4  C   LIG    1        2.478  -3.970   0.606  0.00  0.00    +0.177 C 
ATOM      5  O   LIG    1        2.122  -2.632   0.989  0.00  0.00    -0.346 OA
ENDROOT
BRANCH   1   8
ATOM      6  C   LIG    1       -0.016   1.346   0.009  0.00  0.00    +0.088 A 
ATOM      7  C   LIG    1        0.002  -0.004   0.002  0.00  0.00    +0.098 A 
ATOM      8  N   LIG    1        1.200  -0.665  -0.013  0.00  0.00    -0.271 N 
ATOM      9  C   LIG    1        2.359   0.017  -0.020  0.00  0.00    +0.331 A 
ATOM     10  N   LIG    1        2.370   1.363  -0.013  0.00  0.00    -0.275 N 
ATOM     11  H   LIG    1        3.241   1.854  -0.018  0.00  0.00    +0.173 HD
ATOM     12  O   LIG    1        3.412  -0.591  -0.034  0.00  0.00    -0.246 OA
ATOM     13  C   LIG    1        1.211   2.052   0.002  0.00  0.00    +0.254 A 
ATOM     14  O   LIG    1        1.220   3.269   0.008  0.00  0.00    -0.268 OA
ENDBRANCH   1   8
BRANCH   3  15
ATOM     15  O   LIG    1        1.397  -5.069  -1.286  0.00  0.00    -0.386 OA
ATOM     16  H   LIG    1        1.669  -5.966  -1.048  0.00  0.00    +0.210 HD
ENDBRANCH   3  15
BRANCH   2  17
ATOM     17  O   LIG    1        0.826  -2.768  -2.358  0.00  0.00    -0.276 OA
BRANCH  17  18
ATOM     18  P   LIG    1        0.900  -1.965  -3.751  0.00  0.00    +0.473 P 
ATOM     19  O   LIG    1        1.045  -0.517  -3.479  0.00  0.00    -0.228 OA
BRANCH  18  20
ATOM     20  O   LIG    1       -0.449  -2.221  -4.591  0.00  0.00    -0.303 OA
ATOM     21  H   LIG    1       -1.213  -1.911  -4.079  0.00  0.00    +0.222 HD
ENDBRANCH  18  20
BRANCH  18  22
ATOM     22  O   LIG    1        2.167  -2.480  -4.601  0.00  0.00    -0.303 OA
ATOM     23  H   LIG    1        2.980  -2.325  -4.096  0.00  0.00    +0.222 HD
ENDBRANCH  18  22
ENDBRANCH  17  18
ENDBRANCH   2  17
BRANCH   4  24
ATOM     24  C   LIG    1        3.922  -4.266   1.018  0.00  0.00    +0.190 C 
BRANCH  24  25
ATOM     25  O   LIG    1        4.013  -4.296   2.444  0.00  0.00    -0.392 OA
ATOM     26  H   LIG    1        4.902  -4.478   2.778  0.00  0.00    +0.210 HD
ENDBRANCH  24  25
ENDBRANCH   4  24
TORSDOF 8
