REMARK  Name = ZINC03995845
REMARK                            x       y       z     vdW  Elec       q    Type
REMARK                         _______ _______ _______ _____ _____    ______ ____
ROOT
ATOM      1  N   LIG    1        2.863   2.296   1.901  0.00  0.00    -0.285 N 
ATOM      2  C   LIG    1        3.228   1.397   2.858  0.00  0.00    +0.203 A 
ATOM      3  N   LIG    1        4.490   1.539   3.144  0.00  0.00    -0.231 NA
ATOM      4  C   LIG    1        5.011   2.542   2.397  0.00  0.00    +0.148 A 
ATOM      5  C   LIG    1        6.282   3.130   2.283  0.00  0.00    +0.151 A 
ATOM      6  N   LIG    1        6.442   4.128   1.419  0.00  0.00    -0.200 NA
ATOM      7  C   LIG    1        5.436   4.563   0.681  0.00  0.00    +0.226 A 
ATOM      8 CL   LIG    1        5.716   5.870  -0.427  0.00  0.00    -0.041 Cl
ATOM      9  N   LIG    1        4.228   4.041   0.755  0.00  0.00    -0.198 NA
ATOM     10  C   LIG    1        3.974   3.039   1.591  0.00  0.00    +0.169 A 
ENDROOT
BRANCH   1  14
ATOM     11  C   LIG    1       -0.611   1.612   1.332  0.00  0.00    +0.237 C 
ATOM     12  C   LIG    1       -0.013   1.086   0.008  0.00  0.00    +0.185 C 
ATOM     13  C   LIG    1        1.427   1.647  -0.003  0.00  0.00    +0.196 C 
ATOM     14  C   LIG    1        1.528   2.445   1.316  0.00  0.00    +0.254 C 
ATOM     15  O   LIG    1        0.532   1.858   2.180  0.00  0.00    -0.339 OA
BRANCH  11  19
ATOM     16  C   LIG    1       -3.516  -0.810   1.923  0.00  0.00    +0.128 C 
ATOM     17  N   LIG    1       -2.642   0.200   1.321  0.00  0.00    -0.316 N 
ATOM     18  H   LIG    1       -2.878   0.601   0.470  0.00  0.00    +0.148 HD
ATOM     19  C   LIG    1       -1.510   0.573   1.951  0.00  0.00    +0.244 C 
ATOM     20  O   LIG    1       -1.214   0.072   3.015  0.00  0.00    -0.273 OA
ENDBRANCH  11  19
BRANCH  12  21
ATOM     21  O   LIG    1       -0.752   1.581  -1.110  0.00  0.00    -0.386 OA
ATOM     22  H   LIG    1       -1.671   1.284  -1.137  0.00  0.00    +0.210 HD
ENDBRANCH  12  21
BRANCH  13  23
ATOM     23  O   LIG    1        1.620   2.509  -1.126  0.00  0.00    -0.385 OA
ATOM     24  H   LIG    1        1.508   2.071  -1.981  0.00  0.00    +0.210 HD
ENDBRANCH  13  23
ENDBRANCH   1  14
BRANCH   5  25
ATOM     25  N   LIG    1        7.341   2.682   3.051  0.00  0.00    -0.323 N 
ATOM     26  H   LIG    1        7.120   2.789   4.020  0.00  0.00    +0.148 HD
BRANCH  25  27
ATOM     27  C   LIG    1        8.659   3.308   2.918  0.00  0.00    +0.138 C 
BRANCH  27  28
ATOM     28  C   LIG    1        9.630   2.640   3.858  0.00  0.00    -0.029 A 
ATOM     29  C   LIG    1       10.362   1.547   3.433  0.00  0.00    +0.005 A 
ATOM     30  C   LIG    1       11.253   0.934   4.294  0.00  0.00    +0.001 A 
ATOM     31  C   LIG    1       11.411   1.414   5.581  0.00  0.00    +0.014 A 
ATOM     32  C   LIG    1       10.679   2.507   6.006  0.00  0.00    +0.014 A 
ATOM     33  I   LIG    1       10.918   3.234   7.956  0.00  0.00    -0.044 I 
ATOM     34  C   LIG    1        9.792   3.123   5.142  0.00  0.00    +0.019 A 
ENDBRANCH  27  28
ENDBRANCH  25  27
ENDBRANCH   5  25
TORSDOF 7
