REMARK  Name = ZINC03896836
REMARK                            x       y       z     vdW  Elec       q    Type
REMARK                         _______ _______ _______ _____ _____    ______ ____
ROOT
ATOM      1  C   LIG    1       -4.936  -2.606   0.036  0.00  0.00    +0.026 C 
ATOM      2  C   LIG    1       -6.057  -1.967  -0.461  0.00  0.00    +0.101 C 
ATOM      3  C   LIG    1       -5.969  -0.646  -1.112  0.00  0.00    +0.256 C 
ATOM      4  N   LIG    1       -7.112  -0.092  -1.570  0.00  0.00    -0.238 N 
ATOM      5  H   LIG    1       -7.080   0.775  -2.002  0.00  0.00    +0.159 HD
ATOM      6  C   LIG    1       -8.304  -0.728  -1.437  0.00  0.00    +0.278 C 
ATOM      7  N   LIG    1       -8.445  -1.900  -0.869  0.00  0.00    -0.127 NA
ATOM      8  O   LIG    1       -4.901  -0.075  -1.233  0.00  0.00    -0.270 OA
ATOM      9  C   LIG    1       -7.401  -2.579  -0.370  0.00  0.00    +0.276 C 
ATOM     10  O   LIG    1       -7.556  -3.671   0.150  0.00  0.00    -0.268 OA
ENDROOT
BRANCH   1  14
ATOM     11  C   LIG    1       -1.266  -0.528   0.304  0.00  0.00    +0.120 A 
ATOM     12  C   LIG    1       -2.440   0.080   0.738  0.00  0.00    +0.046 A 
ATOM     13  C   LIG    1       -3.629  -0.586   0.654  0.00  0.00    +0.011 A 
ATOM     14  C   LIG    1       -3.666  -1.887   0.128  0.00  0.00    -0.024 A 
ATOM     15  C   LIG    1       -2.479  -2.494  -0.308  0.00  0.00    +0.011 A 
ATOM     16  C   LIG    1       -1.297  -1.816  -0.224  0.00  0.00    +0.046 A 
BRANCH  11  18
ATOM     17  C   LIG    1       -0.128   1.456   0.942  0.00  0.00    +0.277 C 
ATOM     18  O   LIG    1       -0.088   0.138   0.390  0.00  0.00    -0.495 OA
ENDBRANCH  11  18
ENDBRANCH   1  14
BRANCH   6  19
ATOM     19  O   LIG    1       -9.406  -0.118  -1.916  0.00  0.00    -0.483 OA
ATOM     20  H   LIG    1       -9.335   0.721  -2.327  0.00  0.00    +0.295 HD
ENDBRANCH   6  19
TORSDOF 3
