REMARK  Name = ZINC03872809
REMARK                            x       y       z     vdW  Elec       q    Type
REMARK                         _______ _______ _______ _____ _____    ______ ____
ROOT
ATOM      1  C   LIG    1        0.731  -0.503   1.223  0.00  0.00    -0.041 A 
ATOM      2  C   LIG    1        2.055  -0.090   1.345  0.00  0.00    +0.004 A 
ATOM      3  C   LIG    1        2.967  -0.379   2.338  0.00  0.00    +0.004 A 
ATOM      4  C   LIG    1        2.800  -1.159   3.479  0.00  0.00    +0.049 A 
ATOM      5  C   LIG    1        1.673  -1.840   3.900  0.00  0.00    +0.164 A 
ATOM      6  C   LIG    1        0.405  -1.911   3.269  0.00  0.00    +0.220 A 
ATOM      7  O   LIG    1       -0.440  -2.585   3.843  0.00  0.00    -0.284 OA
ATOM      8  C   LIG    1       -0.004  -1.302   2.070  0.00  0.00    +0.058 A 
ENDROOT
BRANCH   1  10
ATOM      9  C   LIG    1       -0.019   1.526   0.010  0.00  0.00    +0.012 C 
ATOM     10  C   LIG    1        0.002  -0.004   0.002  0.00  0.00    +0.013 C 
ATOM     11  C   LIG    1        0.718  -0.497  -1.257  0.00  0.00    +0.012 C 
ENDBRANCH   1  10
BRANCH   5  12
ATOM     12  O   LIG    1        1.796  -2.526   5.062  0.00  0.00    -0.503 OA
ATOM     13  H   LIG    1        2.610  -2.518   5.527  0.00  0.00    +0.292 HD
ENDBRANCH   5  12
TORSDOF 2
