REMARK  Name = ZINC04059838
REMARK                            x       y       z     vdW  Elec       q    Type
REMARK                         _______ _______ _______ _____ _____    ______ ____
ROOT
ATOM      1  C   LIG    1       -3.534   2.448   0.048  0.00  0.00    +0.071 C 
ATOM      2  C   LIG    1       -2.616   1.249   0.033  0.00  0.00    +0.136 C 
ATOM      3  C   LIG    1       -1.232   1.757   0.017  0.00  0.00    +0.028 A 
ATOM      4  C   LIG    1       -0.013   1.076   0.008  0.00  0.00    +0.012 A 
ATOM      5  C   LIG    1        1.175   1.782   0.000  0.00  0.00    +0.001 A 
ATOM      6  C   LIG    1        1.168   3.166   0.008  0.00  0.00    +0.001 A 
ATOM      7  C   LIG    1       -0.027   3.858   0.024  0.00  0.00    +0.012 A 
ATOM      8  C   LIG    1       -1.240   3.164   0.031  0.00  0.00    +0.033 A 
ATOM      9  C   LIG    1       -2.629   3.657   0.047  0.00  0.00    +0.198 C 
ATOM     10  O   LIG    1       -2.980   4.817   0.057  0.00  0.00    -0.286 OA
ENDROOT
BRANCH   1  16
ATOM     11  C   LIG    1       -8.149   2.488  -4.470  0.00  0.00    +0.001 A 
ATOM     12  C   LIG    1       -8.739   2.516  -3.208  0.00  0.00    +0.001 A 
ATOM     13  C   LIG    1       -7.980   2.515  -2.078  0.00  0.00    +0.008 A 
ATOM     14  C   LIG    1       -6.579   2.484  -2.183  0.00  0.00    -0.017 A 
ATOM     15  C   LIG    1       -5.761   2.481  -1.040  0.00  0.00    +0.017 A 
ATOM     16  C   LIG    1       -4.408   2.451  -1.180  0.00  0.00    -0.010 A 
ATOM     17  C   LIG    1       -3.817   2.428  -2.442  0.00  0.00    +0.009 A 
ATOM     18  C   LIG    1       -4.577   2.425  -3.571  0.00  0.00    +0.009 A 
ATOM     19  C   LIG    1       -5.978   2.455  -3.466  0.00  0.00    -0.018 A 
ATOM     20  C   LIG    1       -6.795   2.458  -4.610  0.00  0.00    +0.008 A 
ENDBRANCH   1  16
BRANCH   2  21
ATOM     21  O   LIG    1       -2.955   0.085   0.030  0.00  0.00    -0.505 OA
ATOM     22  H   LIG    1       -3.865  -0.138   0.041  0.00  0.00    +0.292 HD
ENDBRANCH   2  21
TORSDOF 2
