REMARK  Name = ZINC03978630
REMARK                            x       y       z     vdW  Elec       q    Type
REMARK                         _______ _______ _______ _____ _____    ______ ____
ROOT
ATOM      1  C   LIG    1        8.274  -3.603  -0.940  0.00  0.00    -0.000 C 
ENDROOT
BRANCH   1   2
ATOM      2  C   LIG    1        7.590  -2.449  -0.205  0.00  0.00    +0.000 C 
BRANCH   2   3
ATOM      3  C   LIG    1        6.226  -2.176  -0.842  0.00  0.00    +0.000 C 
BRANCH   3   4
ATOM      4  C   LIG    1        5.541  -1.022  -0.107  0.00  0.00    +0.000 C 
BRANCH   4   5
ATOM      5  C   LIG    1        4.177  -0.749  -0.744  0.00  0.00    +0.001 C 
BRANCH   5   6
ATOM      6  C   LIG    1        3.493   0.405  -0.009  0.00  0.00    +0.007 C 
BRANCH   6   9
ATOM      7  C   LIG    1       -0.018   1.507   0.010  0.00  0.00    +0.027 C 
ATOM      8  C   LIG    1        1.472   1.920  -0.002  0.00  0.00    +0.011 C 
ATOM      9  C   LIG    1        2.129   0.678  -0.646  0.00  0.00    +0.012 C 
ATOM     10  C   LIG    1        1.173  -0.456  -0.356  0.00  0.00    -0.028 C 
ATOM     11  C   LIG    1        0.002  -0.004   0.002  0.00  0.00    -0.031 C 
ENDBRANCH   6   9
ENDBRANCH   5   6
ENDBRANCH   4   5
ENDBRANCH   3   4
ENDBRANCH   2   3
ENDBRANCH   1   2
BRANCH   1  12
ATOM     12  C   LIG    1        9.639  -3.876  -0.303  0.00  0.00    +0.000 C 
BRANCH  12  13
ATOM     13  C   LIG    1       10.323  -5.030  -1.038  0.00  0.00    +0.000 C 
BRANCH  13  14
ATOM     14  C   LIG    1       11.687  -5.303  -0.401  0.00  0.00    +0.000 C 
BRANCH  14  15
ATOM     15  C   LIG    1       12.372  -6.456  -1.136  0.00  0.00    +0.001 C 
BRANCH  15  16
ATOM     16  C   LIG    1       13.736  -6.729  -0.499  0.00  0.00    +0.011 C 
BRANCH  16  17
ATOM     17  C   LIG    1       14.421  -7.883  -1.234  0.00  0.00    +0.120 C 
BRANCH  17  18
ATOM     18  C   LIG    1       15.764  -8.152  -0.606  0.00  0.00    +0.305 C 
ATOM     19  O   LIG    1       16.139  -7.483   0.341  0.00  0.00    -0.251 OA
BRANCH  18  20
ATOM     20  O   LIG    1       16.476  -9.039  -1.046  0.00  0.00    -0.481 OA
ATOM     21  H   LIG    1       16.188  -9.553  -1.774  0.00  0.00    +0.295 HD
ENDBRANCH  18  20
ENDBRANCH  17  18
ENDBRANCH  16  17
ENDBRANCH  15  16
ENDBRANCH  14  15
ENDBRANCH  13  14
ENDBRANCH  12  13
ENDBRANCH   1  12
TORSDOF 14
