REMARK  Name = ZINC03996039
REMARK                            x       y       z     vdW  Elec       q    Type
REMARK                         _______ _______ _______ _____ _____    ______ ____
ROOT
ATOM      1  C   LIG    1        0.054  -2.838   2.478  0.00  0.00    +0.033 C 
ATOM      2  C   LIG    1       -1.219  -3.583   2.807  0.00  0.00    -0.066 C 
ATOM      3  N   LIG    1       -1.722  -4.481   1.771  0.00  0.00    +0.379 N 
ATOM      4  H   LIG    1       -2.248  -5.223   2.243  0.00  0.00    -0.082 HD
ATOM      5  C   LIG    1       -2.636  -3.808   0.852  0.00  0.00    -0.096 C 
ATOM      6  C   LIG    1       -0.626  -5.138   1.040  0.00  0.00    -0.074 C 
ATOM      7  C   LIG    1        0.209  -5.883   2.097  0.00  0.00    +0.018 C 
ATOM      8  C   LIG    1        1.385  -5.018   2.489  0.00  0.00    -0.023 A 
ATOM      9  C   LIG    1        2.596  -5.674   2.699  0.00  0.00    +0.089 A 
ATOM     10 CL   LIG    1        2.679  -7.401   2.538  0.00  0.00    -0.079 Cl
ATOM     11  C   LIG    1        3.734  -4.965   3.038  0.00  0.00    +0.177 A 
ATOM     12  C   LIG    1        3.664  -3.582   3.171  0.00  0.00    +0.160 A 
ATOM     13  C   LIG    1        2.457  -2.940   2.974  0.00  0.00    +0.053 A 
ATOM     14  C   LIG    1        1.307  -3.655   2.638  0.00  0.00    -0.034 A 
ENDROOT
BRANCH   1  20
ATOM     15  C   LIG    1       -1.623   0.973  -0.279  0.00  0.00    +0.044 C 
ATOM     16  C   LIG    1       -0.766  -0.258  -0.137  0.00  0.00    -0.050 A 
ATOM     17  C   LIG    1        0.006  -0.690  -1.200  0.00  0.00    +0.003 A 
ATOM     18  C   LIG    1        0.793  -1.818  -1.069  0.00  0.00    +0.001 A 
ATOM     19  C   LIG    1        0.808  -2.516   0.125  0.00  0.00    +0.004 A 
ATOM     20  C   LIG    1        0.037  -2.084   1.188  0.00  0.00    -0.041 A 
ATOM     21  C   LIG    1       -0.746  -0.952   1.058  0.00  0.00    +0.007 A 
ENDBRANCH   1  20
BRANCH  11  22
ATOM     22  O   LIG    1        4.912  -5.614   3.239  0.00  0.00    -0.502 OA
ATOM     23  H   LIG    1        5.055  -5.894   4.154  0.00  0.00    +0.292 HD
ENDBRANCH  11  22
BRANCH  12  24
ATOM     24  O   LIG    1        4.776  -2.870   3.493  0.00  0.00    -0.503 OA
ATOM     25  H   LIG    1        4.909  -2.756   4.444  0.00  0.00    +0.292 HD
ENDBRANCH  12  24
TORSDOF 3
