REMARK  Name = ZINC03996003
REMARK                            x       y       z     vdW  Elec       q    Type
REMARK                         _______ _______ _______ _____ _____    ______ ____
ROOT
ATOM      1  C   LIG    1        2.690  -0.594   2.371  0.00  0.00    +0.202 C 
ENDROOT
BRANCH   1   2
ATOM      2  C   LIG    1        3.997   0.146   2.496  0.00  0.00    -0.007 A 
ATOM      3  C   LIG    1        5.106  -0.288   1.794  0.00  0.00    +0.010 A 
ATOM      4  C   LIG    1        6.305   0.390   1.908  0.00  0.00    +0.039 A 
ATOM      5  C   LIG    1        6.395   1.505   2.724  0.00  0.00    +0.123 A 
ATOM      6  F   LIG    1        7.566   2.168   2.836  0.00  0.00    -0.205 F 
ATOM      7  C   LIG    1        5.283   1.939   3.426  0.00  0.00    +0.039 A 
ATOM      8  C   LIG    1        4.084   1.262   3.307  0.00  0.00    +0.010 A 
ENDBRANCH   1   2
BRANCH   1   9
ATOM      9  C   LIG    1        1.992  -0.181   1.074  0.00  0.00    +0.031 C 
BRANCH   9  10
ATOM     10  C   LIG    1        0.611  -0.837   1.008  0.00  0.00    -0.075 C 
BRANCH  10  12
ATOM     11  C   LIG    1       -0.316   1.006  -0.217  0.00  0.00    -0.095 C 
ATOM     12  N   LIG    1       -0.059  -0.440  -0.238  0.00  0.00    +0.385 N 
ATOM     13  H   LIG    1        0.531  -0.665  -1.024  0.00  0.00    -0.081 HD
BRANCH  12  14
ATOM     14  C   LIG    1       -1.333  -1.161  -0.360  0.00  0.00    +0.043 C 
BRANCH  14  15
ATOM     15  C   LIG    1       -1.963  -0.849  -1.693  0.00  0.00    +0.288 C 
ATOM     16  O   LIG    1       -1.402  -0.095  -2.470  0.00  0.00    -0.253 OA
BRANCH  15  17
ATOM     17  O   LIG    1       -3.032  -1.350  -1.994  0.00  0.00    -0.482 OA
ATOM     18  H   LIG    1       -3.463  -1.929  -1.397  0.00  0.00    +0.295 HD
ENDBRANCH  15  17
ENDBRANCH  14  15
ENDBRANCH  12  14
ENDBRANCH  10  12
ENDBRANCH   9  10
ENDBRANCH   1   9
BRANCH   1  19
ATOM     19  O   LIG    1        2.940  -2.001   2.351  0.00  0.00    -0.484 OA
BRANCH  19  20
ATOM     20  C   LIG    1        3.065  -2.623   3.552  0.00  0.00    +0.121 A 
ATOM     21  C   LIG    1        3.057  -1.877   4.723  0.00  0.00    +0.046 A 
ATOM     22  C   LIG    1        3.184  -2.505   5.944  0.00  0.00    +0.012 A 
ATOM     23  C   LIG    1        3.320  -3.891   6.002  0.00  0.00    -0.018 A 
ATOM     24  C   LIG    1        3.328  -4.638   4.825  0.00  0.00    +0.012 A 
ATOM     25  C   LIG    1        3.195  -4.004   3.607  0.00  0.00    +0.046 A 
BRANCH  23  26
ATOM     26  C   LIG    1        3.458  -4.570   7.314  0.00  0.00    -0.018 A 
ATOM     27  C   LIG    1        3.445  -3.825   8.492  0.00  0.00    +0.008 A 
ATOM     28  C   LIG    1        3.573  -4.462   9.709  0.00  0.00    +0.001 A 
ATOM     29  C   LIG    1        3.714  -5.837   9.762  0.00  0.00    +0.000 A 
ATOM     30  C   LIG    1        3.727  -6.581   8.597  0.00  0.00    +0.001 A 
ATOM     31  C   LIG    1        3.594  -5.955   7.374  0.00  0.00    +0.008 A 
ENDBRANCH  23  26
ENDBRANCH  19  20
ENDBRANCH   1  19
TORSDOF 10
