REMARK  Name = ZINC03991118
REMARK                            x       y       z     vdW  Elec       q    Type
REMARK                         _______ _______ _______ _____ _____    ______ ____
ROOT
ATOM      1  C   LIG    1        1.423   3.030   4.912  0.00  0.00    -0.016 C 
ENDROOT
BRANCH   1   2
ATOM      2  C   LIG    1        0.711   3.442   6.202  0.00  0.00    +0.029 C 
BRANCH   2   3
ATOM      3  C   LIG    1        1.326   2.692   7.386  0.00  0.00    +0.107 C 
BRANCH   3   7
ATOM      4  C   LIG    1       -0.572   3.940  11.003  0.00  0.00    +0.000 A 
ATOM      5  C   LIG    1        0.489   3.055  11.049  0.00  0.00    +0.000 A 
ATOM      6  C   LIG    1        1.103   2.651   9.878  0.00  0.00    +0.005 A 
ATOM      7  C   LIG    1        0.656   3.132   8.662  0.00  0.00    -0.023 A 
ATOM      8  C   LIG    1       -0.401   4.022   8.617  0.00  0.00    +0.005 A 
ATOM      9  C   LIG    1       -1.018   4.422   9.787  0.00  0.00    +0.000 A 
ENDBRANCH   3   7
BRANCH   3  10
ATOM     10  C   LIG    1        1.126   1.210   7.199  0.00  0.00    -0.023 A 
ATOM     11  C   LIG    1        2.219   0.382   7.023  0.00  0.00    +0.005 A 
ATOM     12  C   LIG    1        2.036  -0.978   6.857  0.00  0.00    +0.000 A 
ATOM     13  C   LIG    1        0.760  -1.509   6.856  0.00  0.00    +0.000 A 
ATOM     14  C   LIG    1       -0.333  -0.680   7.027  0.00  0.00    +0.000 A 
ATOM     15  C   LIG    1       -0.150   0.679   7.198  0.00  0.00    +0.005 A 
ENDBRANCH   3  10
BRANCH   3  16
ATOM     16  C   LIG    1        2.766   2.987   7.460  0.00  0.00    +0.079 C 
ATOM     17  N   LIG    1        3.877   3.216   7.517  0.00  0.00    -0.195 NA
ENDBRANCH   3  16
ENDBRANCH   2   3
ENDBRANCH   1   2
BRANCH   1  18
ATOM     18  C   LIG    1        0.760   3.724   3.720  0.00  0.00    -0.079 C 
BRANCH  18  19
ATOM     19  N   LIG    1        1.470   3.342   2.482  0.00  0.00    +0.380 N 
ATOM     20  H   LIG    1        2.388   3.802   2.468  0.00  0.00    -0.082 HD
ATOM     21  C   LIG    1        1.668   1.877   2.444  0.00  0.00    -0.076 C 
ATOM     22  C   LIG    1        2.507   1.520   1.215  0.00  0.00    +0.021 C 
ATOM     23  C   LIG    1        1.771   1.974  -0.048  0.00  0.00    +0.088 C 
ATOM     24  C   LIG    1        1.507   3.480   0.037  0.00  0.00    +0.021 C 
ATOM     25  C   LIG    1        0.697   3.780   1.301  0.00  0.00    -0.076 C 
BRANCH  23  26
ATOM     26  C   LIG    1        2.617   1.680  -1.260  0.00  0.00    -0.016 A 
ATOM     27  C   LIG    1        3.512   2.626  -1.724  0.00  0.00    +0.008 A 
ATOM     28  C   LIG    1        4.293   2.354  -2.832  0.00  0.00    +0.020 A 
ATOM     29  C   LIG    1        4.171   1.139  -3.482  0.00  0.00    +0.041 A 
ATOM     30 CL   LIG    1        5.147   0.799  -4.877  0.00  0.00    -0.084 Cl
ATOM     31  C   LIG    1        3.272   0.195  -3.020  0.00  0.00    +0.020 A 
ATOM     32  C   LIG    1        2.495   0.466  -1.909  0.00  0.00    +0.008 A 
ENDBRANCH  23  26
BRANCH  23  33
ATOM     33  O   LIG    1        0.528   1.277  -0.153  0.00  0.00    -0.384 OA
ATOM     34  H   LIG    1        0.620   0.316  -0.212  0.00  0.00    +0.211 HD
ENDBRANCH  23  33
ENDBRANCH  18  19
ENDBRANCH   1  18
TORSDOF 9
