REMARK  Name = ZINC03932831
REMARK                            x       y       z     vdW  Elec       q    Type
REMARK                         _______ _______ _______ _____ _____    ______ ____
ROOT
ATOM      1  C   LIG    1       -2.215   1.187  -1.104  0.00  0.00    +0.012 C 
ATOM      2  C   LIG    1       -0.752   1.622  -1.210  0.00  0.00    -0.018 C 
ATOM      3  C   LIG    1        0.019   1.122  -0.005  0.00  0.00    +0.008 C 
ATOM      4  C   LIG    1       -0.710   1.630   1.251  0.00  0.00    +0.005 C 
ATOM      5  C   LIG    1       -0.829   3.150   1.247  0.00  0.00    +0.004 C 
ATOM      6  C   LIG    1       -1.501   3.660  -0.039  0.00  0.00    -0.003 C 
ATOM      7  C   LIG    1       -1.554   5.187  -0.018  0.00  0.00    +0.006 C 
ATOM      8  C   LIG    1       -2.352   5.662   1.201  0.00  0.00    +0.023 C 
ATOM      9  C   LIG    1       -1.676   5.147   2.470  0.00  0.00    +0.083 C 
ATOM     10  N   LIG    1       -2.385   5.606   3.664  0.00  0.00    -0.308 N 
ATOM     11  H   LIG    1       -2.948   6.395   3.626  0.00  0.00    +0.149 HD
ATOM     12  C   LIG    1       -2.226   4.921   4.825  0.00  0.00    +0.237 C 
ATOM     13  O   LIG    1       -2.828   5.267   5.824  0.00  0.00    -0.271 OA
ATOM     14  C   LIG    1       -1.329   3.752   4.866  0.00  0.00    +0.063 C 
ATOM     15  C   LIG    1       -1.049   3.111   3.728  0.00  0.00    -0.013 C 
ATOM     16  C   LIG    1       -1.652   3.617   2.446  0.00  0.00    +0.008 C 
ATOM     17  C   LIG    1       -3.082   3.090   2.315  0.00  0.00    +0.017 C 
ATOM     18  C   LIG    1       -0.200   1.243  -2.580  0.00  0.00    +0.081 C 
ATOM     19  C   LIG    1       -0.538   2.440  -3.503  0.00  0.00    +0.013 C 
ATOM     20  C   LIG    1       -1.202   3.515  -2.601  0.00  0.00    +0.005 C 
ATOM     21  C   LIG    1       -0.666   3.173  -1.207  0.00  0.00    -0.001 C 
ENDROOT
BRANCH  18  22
ATOM     22  C   LIG    1       -0.867  -0.012  -3.083  0.00  0.00    +0.221 C 
ATOM     23  N   LIG    1       -0.397  -1.219  -2.713  0.00  0.00    -0.285 N 
ATOM     24  H   LIG    1        0.319  -1.283  -2.061  0.00  0.00    +0.155 HD
ATOM     25  O   LIG    1       -1.827   0.066  -3.820  0.00  0.00    -0.275 OA
BRANCH  23  26
ATOM     26  C   LIG    1       -0.941  -2.382  -3.269  0.00  0.00    +0.046 A 
ATOM     27  C   LIG    1       -1.556  -2.337  -4.514  0.00  0.00    +0.036 A 
ATOM     28  C   LIG    1       -2.087  -3.487  -5.063  0.00  0.00    +0.057 A 
ATOM     29  C   LIG    1       -2.018  -4.682  -4.369  0.00  0.00    +0.013 A 
ATOM     30  C   LIG    1       -1.411  -4.729  -3.128  0.00  0.00    +0.015 A 
ATOM     31  C   LIG    1       -0.873  -3.583  -2.576  0.00  0.00    +0.076 A 
BRANCH  28  32
ATOM     32  C   LIG    1       -2.749  -3.439  -6.416  0.00  0.00    +0.417 C 
ATOM     33  F   LIG    1       -1.823  -3.011  -7.373  0.00  0.00    -0.166 F 
ATOM     34  F   LIG    1       -3.826  -2.548  -6.377  0.00  0.00    -0.166 F 
ATOM     35  F   LIG    1       -3.212  -4.716  -6.754  0.00  0.00    -0.166 F 
ENDBRANCH  28  32
BRANCH  31  36
ATOM     36  C   LIG    1       -0.212  -3.636  -1.222  0.00  0.00    +0.419 C 
ATOM     37  F   LIG    1       -0.879  -2.776  -0.344  0.00  0.00    -0.166 F 
ATOM     38  F   LIG    1        1.124  -3.238  -1.340  0.00  0.00    -0.166 F 
ATOM     39  F   LIG    1       -0.267  -4.944  -0.728  0.00  0.00    -0.166 F 
ENDBRANCH  31  36
ENDBRANCH  23  26
ENDBRANCH  18  22
TORSDOF 4
