REMARK  Name = ZINC04014104
REMARK                            x       y       z     vdW  Elec       q    Type
REMARK                         _______ _______ _______ _____ _____    ______ ____
ROOT
ATOM      1  N   LIG    1       -3.696   4.194   0.058  0.00  0.00    -0.281 N 
ATOM      2  H   LIG    1       -3.688   3.227  -0.021  0.00  0.00    +0.155 HD
ATOM      3  C   LIG    1       -2.537   4.880   0.052  0.00  0.00    +0.252 C 
ATOM      4  O   LIG    1       -2.550   6.096   0.066  0.00  0.00    -0.270 OA
ENDROOT
BRANCH   3   5
ATOM      5  C   LIG    1       -1.251   4.157   0.029  0.00  0.00    +0.080 A 
ATOM      6  C   LIG    1       -1.231   2.760   0.007  0.00  0.00    +0.031 A 
ATOM      7  C   LIG    1       -0.027   2.090  -0.010  0.00  0.00    +0.015 A 
ATOM      8  I   LIG    1        0.001  -0.004  -0.036  0.00  0.00    -0.044 I 
ATOM      9  C   LIG    1        1.166   2.796  -0.016  0.00  0.00    +0.032 A 
ATOM     10  C   LIG    1        1.160   4.177   0.001  0.00  0.00    +0.056 A 
ATOM     11  I   LIG    1        2.971   5.231  -0.009  0.00  0.00    -0.040 I 
ATOM     12  C   LIG    1       -0.043   4.868   0.023  0.00  0.00    +0.142 A 
BRANCH  12  13
ATOM     13  O   LIG    1       -0.051   6.224   0.038  0.00  0.00    -0.505 OA
ATOM     14  H   LIG    1       -0.063   6.628  -0.840  0.00  0.00    +0.292 HD
ENDBRANCH  12  13
ENDBRANCH   3   5
BRANCH   1  21
ATOM     15  C   LIG    1       -5.966   4.300   0.877  0.00  0.00    +0.025 A 
ATOM     16  C   LIG    1       -7.164   4.977   0.998  0.00  0.00    +0.022 A 
ATOM     17  C   LIG    1       -7.318   6.222   0.414  0.00  0.00    +0.041 A 
ATOM     18 CL   LIG    1       -8.827   7.067   0.563  0.00  0.00    -0.084 Cl
ATOM     19  C   LIG    1       -6.272   6.795  -0.287  0.00  0.00    +0.022 A 
ATOM     20  C   LIG    1       -5.070   6.125  -0.407  0.00  0.00    +0.025 A 
ATOM     21  C   LIG    1       -4.912   4.875   0.178  0.00  0.00    +0.034 A 
ENDBRANCH   1  21
TORSDOF 3
