REMARK  Name = ZINC03973446
REMARK                            x       y       z     vdW  Elec       q    Type
REMARK                         _______ _______ _______ _____ _____    ______ ____
ROOT
ATOM      1  C   LIG    1       -2.678  -2.267   1.319  0.00  0.00    +0.007 C 
ATOM      2  C   LIG    1       -1.767  -1.022   1.464  0.00  0.00    -0.001 C 
ATOM      3  C   LIG    1       -1.293  -0.775   0.010  0.00  0.00    +0.035 C 
ATOM      4  C   LIG    1       -1.082  -2.190  -0.568  0.00  0.00    +0.043 C 
ATOM      5  C   LIG    1       -2.277  -2.895  -1.210  0.00  0.00    +0.212 C 
ATOM      6  F   LIG    1       -3.399  -2.116  -1.510  0.00  0.00    -0.229 F 
ATOM      7  C   LIG    1       -1.962  -3.139   0.268  0.00  0.00    +0.043 C 
ENDROOT
BRANCH   3   8
ATOM      8  N   LIG    1       -2.342  -0.072  -0.748  0.00  0.00    +0.389 N 
ATOM      9  H   LIG    1       -3.219  -0.603  -0.683  0.00  0.00    -0.088 HD
ATOM     10  H   LIG    1       -2.073   0.006  -1.728  0.00  0.00    -0.088 HD
ATOM     11  H   LIG    1       -2.488   0.859  -0.362  0.00  0.00    -0.088 HD
ENDBRANCH   3   8
BRANCH   3  12
ATOM     12  C   LIG    1        0.002  -0.004   0.002  0.00  0.00    +0.294 C 
ATOM     13  O   LIG    1        1.056  -0.594  -0.011  0.00  0.00    -0.253 OA
BRANCH  12  14
ATOM     14  O   LIG    1       -0.016   1.338   0.009  0.00  0.00    -0.482 OA
ATOM     15  H   LIG    1       -0.834   1.796   0.020  0.00  0.00    +0.295 HD
ENDBRANCH  12  14
ENDBRANCH   3  12
BRANCH   5  16
ATOM     16  C   LIG    1       -1.985  -4.014  -2.176  0.00  0.00    +0.343 C 
ATOM     17  O   LIG    1       -0.862  -4.450  -2.275  0.00  0.00    -0.247 OA
BRANCH  16  18
ATOM     18  O   LIG    1       -2.972  -4.527  -2.928  0.00  0.00    -0.478 OA
ATOM     19  H   LIG    1       -3.843  -4.189  -2.851  0.00  0.00    +0.295 HD
ENDBRANCH  16  18
ENDBRANCH   5  16
TORSDOF 5
