REMARK  Name = ZINC03921872
REMARK                            x       y       z     vdW  Elec       q    Type
REMARK                         _______ _______ _______ _____ _____    ______ ____
ROOT
ATOM      1  C   LIG    1       -1.525  -0.838   0.114  0.00  0.00    +0.002 C 
ATOM      2  C   LIG    1       -1.798  -2.336   0.409  0.00  0.00    +0.005 C 
ATOM      3  C   LIG    1       -2.671  -2.376   1.696  0.00  0.00    +0.009 C 
ATOM      4  C   LIG    1       -3.340  -0.999   1.692  0.00  0.00    +0.021 C 
ATOM      5  C   LIG    1       -3.818  -0.480   3.015  0.00  0.00    -0.066 C 
ATOM      6  C   LIG    1       -3.862  -1.242   4.108  0.00  0.00    -0.000 C 
ATOM      7  C   LIG    1       -4.240   0.991   3.016  0.00  0.00    +0.031 C 
ATOM      8  C   LIG    1       -3.174   1.870   2.365  0.00  0.00    +0.005 C 
ATOM      9  C   LIG    1       -2.708   1.298   1.016  0.00  0.00    +0.008 C 
ATOM     10  C   LIG    1       -2.153  -0.083   1.275  0.00  0.00    -0.022 C 
ATOM     11  C   LIG    1       -1.150  -0.005   2.428  0.00  0.00    +0.012 C 
ENDROOT
BRANCH   6  12
ATOM     12  C   LIG    1       -4.339  -0.680   5.374  0.00  0.00    +0.004 C 
ATOM     13  C   LIG    1       -4.383  -1.451   6.480  0.00  0.00    -0.040 C 
ATOM     14  C   LIG    1       -4.876  -0.909   7.807  0.00  0.00    +0.067 C 
ATOM     15  C   LIG    1       -3.887  -1.331   8.898  0.00  0.00    +0.122 C 
ATOM     16  C   LIG    1       -3.760  -2.855   8.920  0.00  0.00    +0.067 C 
ATOM     17  C   LIG    1       -3.109  -3.341   7.621  0.00  0.00    +0.147 C 
ATOM     18  C   LIG    1       -3.959  -2.866   6.455  0.00  0.00    -0.023 C 
ATOM     19  C   LIG    1       -4.305  -3.681   5.459  0.00  0.00    +0.015 C 
BRANCH  15  20
ATOM     20  O   LIG    1       -4.358  -0.877  10.168  0.00  0.00    -0.391 OA
ATOM     21  H   LIG    1       -4.459   0.083  10.230  0.00  0.00    +0.210 HD
ENDBRANCH  15  20
BRANCH  17  22
ATOM     22  O   LIG    1       -1.790  -2.801   7.513  0.00  0.00    -0.387 OA
ATOM     23  H   LIG    1       -1.320  -3.069   6.712  0.00  0.00    +0.210 HD
ENDBRANCH  17  22
ENDBRANCH   6  12
BRANCH   1  25
ATOM     24  C   LIG    1        0.228   0.920  -0.163  0.00  0.00    +0.012 C 
ATOM     25  C   LIG    1       -0.019  -0.573   0.059  0.00  0.00    +0.012 C 
BRANCH  25  26
ATOM     26  C   LIG    1        0.589  -1.357  -1.075  0.00  0.00    -0.025 C 
ATOM     27  C   LIG    1        1.519  -2.247  -0.832  0.00  0.00    +0.000 C 
BRANCH  27  28
ATOM     28  C   LIG    1        2.127  -3.031  -1.967  0.00  0.00    +0.140 C 
BRANCH  28  29
ATOM     29  C   LIG    1        3.647  -2.864  -1.945  0.00  0.00    +0.022 C 
ATOM     30  C   LIG    1        4.288  -2.069  -3.084  0.00  0.00    +0.007 C 
ATOM     31  C   LIG    1        4.453  -3.589  -3.025  0.00  0.00    +0.007 C 
ENDBRANCH  28  29
BRANCH  28  32
ATOM     32  O   LIG    1        1.613  -2.547  -3.209  0.00  0.00    -0.387 OA
ATOM     33  H   LIG    1        1.800  -1.613  -3.375  0.00  0.00    +0.210 HD
ENDBRANCH  28  32
ENDBRANCH  27  28
ENDBRANCH  25  26
ENDBRANCH   1  25
TORSDOF 8
