REMARK  Name = ZINC03897189
REMARK                            x       y       z     vdW  Elec       q    Type
REMARK                         _______ _______ _______ _____ _____    ______ ____
ROOT
ATOM      1  C   LIG    1       -0.728   3.109   2.099  0.00  0.00    +0.012 C 
ATOM      2  C   LIG    1       -0.042   2.754   0.772  0.00  0.00    -0.026 C 
ATOM      3  C   LIG    1        1.352   3.367   0.730  0.00  0.00    +0.010 C 
ATOM      4  C   LIG    1        2.208   2.827   1.873  0.00  0.00    +0.032 C 
ATOM      5  C   LIG    1        2.306   1.308   1.805  0.00  0.00    +0.115 C 
ATOM      6  C   LIG    1        0.934   0.651   1.752  0.00  0.00    +0.035 C 
ATOM      7  C   LIG    1       -0.906   3.291  -0.375  0.00  0.00    +0.001 C 
ATOM      8  C   LIG    1       -1.082   4.798  -0.340  0.00  0.00    +0.005 C 
ATOM      9  C   LIG    1       -2.080   5.275  -1.412  0.00  0.00    +0.010 C 
ATOM     10  C   LIG    1       -2.181   4.296  -2.548  0.00  0.00    +0.004 C 
ATOM     11  C   LIG    1       -3.242   3.228  -2.214  0.00  0.00    +0.014 C 
ATOM     12  C   LIG    1       -0.817   3.647  -2.857  0.00  0.00    +0.075 C 
ATOM     13  C   LIG    1       -1.130   2.853  -4.136  0.00  0.00    +0.036 C 
ATOM     14  C   LIG    1       -2.043   3.820  -4.936  0.00  0.00    +0.011 C 
ATOM     15  C   LIG    1       -2.599   4.850  -3.919  0.00  0.00    +0.027 C 
ATOM     16  C   LIG    1       -0.273   2.868  -1.701  0.00  0.00    +0.025 C 
ATOM     17  C   LIG    1       -0.363   1.351  -1.822  0.00  0.00    +0.007 C 
ATOM     18  C   LIG    1        0.534   0.774  -0.713  0.00  0.00    +0.004 C 
ATOM     19  C   LIG    1        0.046   1.231   0.657  0.00  0.00    -0.002 C 
ENDROOT
BRANCH  15  20
ATOM     20  C   LIG    1       -2.054   6.227  -4.202  0.00  0.00    -0.022 C 
ATOM     21  C   LIG    1       -1.013   6.523  -4.976  0.00  0.00    +0.094 C 
ATOM     22  C   LIG    1       -0.811   7.974  -4.990  0.00  0.00    +0.332 C 
ATOM     23  O   LIG    1       -1.731   8.574  -4.212  0.00  0.00    -0.457 OA
ATOM     24  O   LIG    1        0.061   8.551  -5.610  0.00  0.00    -0.246 OA
ATOM     25  C   LIG    1       -2.583   7.532  -3.656  0.00  0.00    +0.264 C 
ENDBRANCH  15  20
BRANCH   5  26
ATOM     26  O   LIG    1        3.097   0.916   0.683  0.00  0.00    -0.392 OA
ATOM     27  H   LIG    1        3.981   1.308   0.669  0.00  0.00    +0.210 HD
ENDBRANCH   5  26
BRANCH  12  28
ATOM     28  O   LIG    1        0.148   4.668  -3.196  0.00  0.00    -0.388 OA
ATOM     29  H   LIG    1        1.018   4.322  -3.439  0.00  0.00    +0.210 HD
ENDBRANCH  12  28
TORSDOF 3
