REMARK  Name = ZINC03879102
REMARK                            x       y       z     vdW  Elec       q    Type
REMARK                         _______ _______ _______ _____ _____    ______ ____
ROOT
ATOM      1  N   LIG    1        4.141   2.271   1.355  0.00  0.00    -0.311 N 
ATOM      2  H   LIG    1        3.592   1.972   2.096  0.00  0.00    +0.149 HD
ATOM      3  C   LIG    1        5.314   2.890   1.593  0.00  0.00    +0.219 C 
ATOM      4  O   LIG    1        6.001   3.264   0.667  0.00  0.00    -0.275 OA
ENDROOT
BRANCH   3   5
ATOM      5  C   LIG    1        5.772   3.119   3.011  0.00  0.00    +0.048 C 
ATOM      6  C   LIG    1        4.743   3.980   3.747  0.00  0.00    +0.019 C 
ATOM      7  C   LIG    1        5.207   4.211   5.186  0.00  0.00    -0.009 C 
ATOM      8  C   LIG    1        6.559   4.928   5.176  0.00  0.00    +0.007 C 
ATOM      9  C   LIG    1        7.588   4.067   4.441  0.00  0.00    -0.009 C 
ATOM     10  C   LIG    1        7.730   2.721   5.154  0.00  0.00    +0.007 C 
ATOM     11  C   LIG    1        6.378   2.004   5.163  0.00  0.00    -0.009 C 
ATOM     12  C   LIG    1        5.349   2.865   5.899  0.00  0.00    +0.007 C 
ATOM     13  C   LIG    1        5.914   1.772   3.724  0.00  0.00    +0.019 C 
ATOM     14  C   LIG    1        7.123   3.836   3.001  0.00  0.00    +0.019 C 
ENDBRANCH   3   5
BRANCH   1  15
ATOM     15  C   LIG    1        3.696   2.049  -0.023  0.00  0.00    +0.141 C 
BRANCH  15  18
ATOM     16  C   LIG    1       -0.017   1.378   0.010  0.00  0.00    +0.020 A 
ATOM     17  C   LIG    1        1.185   2.070   0.002  0.00  0.00    +0.008 A 
ATOM     18  C   LIG    1        2.365   1.343  -0.013  0.00  0.00    -0.012 A 
ATOM     19  C   LIG    1        2.305  -0.038  -0.020  0.00  0.00    +0.115 A 
ATOM     20  N   LIG    1        1.144  -0.663  -0.013  0.00  0.00    -0.263 NA
ATOM     21  C   LIG    1        0.002  -0.004   0.002  0.00  0.00    +0.111 A 
ENDBRANCH  15  18
ENDBRANCH   1  15
TORSDOF 3
