REMARK  Name = ZINC03999511
REMARK                            x       y       z     vdW  Elec       q    Type
REMARK                         _______ _______ _______ _____ _____    ______ ____
ROOT
ATOM      1  C   LIG    1        1.511   4.467   0.063  0.00  0.00    +0.105 C 
ATOM      2  C   LIG    1        0.713   3.294   0.600  0.00  0.00    +0.029 C 
ATOM      3  C   LIG    1        1.239   1.956   0.028  0.00  0.00    +0.033 C 
ATOM      4  C   LIG    1        0.010   1.065   0.065  0.00  0.00    -0.030 C 
ATOM      5  C   LIG    1       -1.080   1.790   0.087  0.00  0.00    -0.023 C 
ATOM      6  C   LIG    1       -0.734   3.273   0.074  0.00  0.00    +0.049 C 
ATOM      7  C   LIG    1       -0.834   3.759  -1.346  0.00  0.00    -0.019 A 
ATOM      8  C   LIG    1       -2.052   3.634  -1.991  0.00  0.00    +0.021 A 
ATOM      9  C   LIG    1       -2.197   4.067  -3.310  0.00  0.00    +0.059 A 
ATOM     10  C   LIG    1       -1.108   4.629  -3.984  0.00  0.00    +0.017 A 
ATOM     11  C   LIG    1        0.093   4.751  -3.345  0.00  0.00    +0.024 A 
ATOM     12  C   LIG    1        0.236   4.320  -2.028  0.00  0.00    +0.031 A 
ATOM     13  N   LIG    1        1.471   4.465  -1.400  0.00  0.00    -0.336 N 
ATOM     14  H   LIG    1        2.288   4.554  -1.916  0.00  0.00    +0.147 HD
ENDROOT
BRANCH   1  17
ATOM     15  C   LIG    1        0.806   7.537   2.146  0.00  0.00    +0.001 A 
ATOM     16  C   LIG    1        1.366   6.352   1.703  0.00  0.00    +0.005 A 
ATOM     17  C   LIG    1        0.897   5.755   0.548  0.00  0.00    -0.026 A 
ATOM     18  C   LIG    1       -0.139   6.337  -0.160  0.00  0.00    +0.020 A 
ATOM     19  C   LIG    1       -0.703   7.518   0.286  0.00  0.00    +0.018 A 
ATOM     20 BR   LIG    1       -2.120   8.314  -0.681  0.00  0.00    -0.050 Br
ATOM     21  C   LIG    1       -0.230   8.118   1.439  0.00  0.00    +0.015 A 
ENDBRANCH   1  17
BRANCH   9  22
ATOM     22  C   LIG    1       -3.497   3.932  -3.992  0.00  0.00    +0.337 C 
ATOM     23  O   LIG    1       -4.442   3.444  -3.406  0.00  0.00    -0.245 OA
BRANCH  22  24
ATOM     24  O   LIG    1       -3.636   4.350  -5.265  0.00  0.00    -0.477 OA
ATOM     25  H   LIG    1       -2.906   4.726  -5.717  0.00  0.00    +0.295 HD
ENDBRANCH  22  24
ENDBRANCH   9  22
TORSDOF 3
