REMARK  Name = ZINC03961852
REMARK                            x       y       z     vdW  Elec       q    Type
REMARK                         _______ _______ _______ _____ _____    ______ ____
ROOT
ATOM      1  C   LIG    1        1.163   3.606   0.010  0.00  0.00    +0.044 C 
ATOM      2  C   LIG    1        1.183   2.099   0.002  0.00  0.00    -0.043 A 
ATOM      3  C   LIG    1        2.389   1.426  -0.013  0.00  0.00    +0.005 A 
ATOM      4  C   LIG    1        2.416   0.046  -0.021  0.00  0.00    +0.013 A 
ATOM      5  C   LIG    1        1.221  -0.678  -0.013  0.00  0.00    +0.037 A 
ATOM      6  C   LIG    1        0.002  -0.004   0.002  0.00  0.00    +0.021 A 
ATOM      7  C   LIG    1       -0.017   1.387   0.010  0.00  0.00    -0.014 A 
ENDROOT
BRANCH   7   8
ATOM      8  C   LIG    1       -1.310   2.113   0.020  0.00  0.00    -0.018 A 
ATOM      9  C   LIG    1       -1.536   3.122   0.956  0.00  0.00    +0.009 A 
ATOM     10  C   LIG    1       -2.734   3.800   0.962  0.00  0.00    +0.013 A 
ATOM     11  C   LIG    1       -3.729   3.468   0.039  0.00  0.00    +0.037 A 
ATOM     12  C   LIG    1       -3.504   2.453  -0.894  0.00  0.00    +0.013 A 
ATOM     13  C   LIG    1       -2.302   1.781  -0.903  0.00  0.00    +0.009 A 
BRANCH  11  14
ATOM     14  C   LIG    1       -5.017   4.191   0.049  0.00  0.00    +0.244 C 
ATOM     15  N   LIG    1       -5.234   5.170   0.949  0.00  0.00    -0.311 N 
ATOM     16  H   LIG    1       -4.544   5.400   1.591  0.00  0.00    +0.149 HD
ATOM     17  O   LIG    1       -5.882   3.902  -0.755  0.00  0.00    -0.270 OA
BRANCH  15  18
ATOM     18  C   LIG    1       -6.512   5.886   0.959  0.00  0.00    +0.108 C 
BRANCH  18  19
ATOM     19  C   LIG    1       -6.498   6.938   2.070  0.00  0.00    +0.006 C 
ATOM     20  C   LIG    1       -7.503   6.774   3.212  0.00  0.00    +0.005 C 
ATOM     21  C   LIG    1       -7.703   7.876   2.170  0.00  0.00    +0.005 C 
ENDBRANCH  18  19
ENDBRANCH  15  18
ENDBRANCH  11  14
ENDBRANCH   7   8
BRANCH   5  22
ATOM     22  C   LIG    1        1.251  -2.157  -0.022  0.00  0.00    +0.244 C 
ATOM     23  N   LIG    1        2.431  -2.807  -0.037  0.00  0.00    -0.308 N 
ATOM     24  H   LIG    1        3.261  -2.306  -0.042  0.00  0.00    +0.149 HD
ATOM     25  O   LIG    1        0.210  -2.785  -0.016  0.00  0.00    -0.270 OA
BRANCH  23  26
ATOM     26  C   LIG    1        2.460  -4.272  -0.045  0.00  0.00    +0.073 C 
ATOM     27  C   LIG    1        3.465  -4.964   0.878  0.00  0.00    +0.024 C 
ATOM     28  C   LIG    1        3.698  -4.950  -0.634  0.00  0.00    +0.024 C 
ENDBRANCH  23  26
ENDBRANCH   5  22
TORSDOF 6
