REMARK  Name = ZINC03950132
REMARK                            x       y       z     vdW  Elec       q    Type
REMARK                         _______ _______ _______ _____ _____    ______ ____
ROOT
ATOM      1  C   LIG    1        3.148   1.618  -1.516  0.00  0.00    +0.084 A 
ATOM      2  C   LIG    1        2.832   2.726  -2.315  0.00  0.00    +0.049 A 
ATOM      3  C   LIG    1        1.537   3.203  -2.295  0.00  0.00    +0.116 A 
ATOM      4  N   LIG    1        0.637   2.605  -1.527  0.00  0.00    -0.223 NA
ATOM      5  C   LIG    1        0.961   1.560  -0.780  0.00  0.00    +0.220 A 
ATOM      6  N   LIG    1        2.191   1.071  -0.764  0.00  0.00    -0.214 NA
ENDROOT
BRANCH   1   9
ATOM      7  C   LIG    1        4.156  -0.798   0.129  0.00  0.00    +0.067 C 
ATOM      8  C   LIG    1        5.027   0.009  -0.799  0.00  0.00    +0.057 A 
ATOM      9  C   LIG    1        4.516   1.071  -1.501  0.00  0.00    +0.062 A 
ATOM     10  S   LIG    1        5.967   1.603  -2.398  0.00  0.00    -0.051 S 
ATOM     11  C   LIG    1        7.069   0.416  -1.771  0.00  0.00    +0.156 A 
ATOM     12  N   LIG    1        6.296  -0.286  -0.959  0.00  0.00    -0.230 NA
BRANCH  11  13
ATOM     13  N   LIG    1        8.411   0.245  -2.054  0.00  0.00    -0.338 N 
ATOM     14  H   LIG    1        8.855   0.841  -2.677  0.00  0.00    +0.144 HD
ATOM     15  H   LIG    1        8.909  -0.471  -1.628  0.00  0.00    +0.144 HD
ENDBRANCH  11  13
ENDBRANCH   1   9
BRANCH   5  16
ATOM     16  N   LIG    1       -0.011   0.966   0.007  0.00  0.00    -0.284 N 
ATOM     17  H   LIG    1        0.190   0.151   0.494  0.00  0.00    +0.155 HD
BRANCH  16  18
ATOM     18  C   LIG    1       -1.286   1.539   0.097  0.00  0.00    +0.034 A 
ATOM     19  C   LIG    1       -1.432   2.919   0.049  0.00  0.00    +0.025 A 
ATOM     20  C   LIG    1       -2.690   3.483   0.131  0.00  0.00    +0.025 A 
ATOM     21  C   LIG    1       -3.807   2.671   0.274  0.00  0.00    +0.030 A 
ATOM     22  C   LIG    1       -3.661   1.292   0.328  0.00  0.00    +0.025 A 
ATOM     23  C   LIG    1       -2.404   0.727   0.239  0.00  0.00    +0.025 A 
BRANCH  21  24
ATOM     24  N   LIG    1       -5.081   3.244   0.364  0.00  0.00    -0.326 N 
ATOM     25  C   LIG    1       -5.973   2.711  -0.676  0.00  0.00    +0.133 C 
ATOM     26  C   LIG    1       -7.368   3.318  -0.505  0.00  0.00    +0.178 C 
ATOM     27  O   LIG    1       -7.272   4.744  -0.553  0.00  0.00    -0.377 OA
ATOM     28  C   LIG    1       -6.412   5.296   0.447  0.00  0.00    +0.178 C 
ATOM     29  C   LIG    1       -5.007   4.710   0.285  0.00  0.00    +0.133 C 
ENDBRANCH  21  24
ENDBRANCH  16  18
ENDBRANCH   5  16
TORSDOF 5
