REMARK  Name = ZINC03953037
REMARK                            x       y       z     vdW  Elec       q    Type
REMARK                         _______ _______ _______ _____ _____    ______ ____
ROOT
ATOM      1  C   LIG    1        0.712  -1.954   1.065  0.00  0.00    -0.022 C 
ATOM      2  C   LIG    1        1.509  -2.548   2.215  0.00  0.00    +0.098 C 
ATOM      3  N   LIG    1        1.513  -4.023   2.162  0.00  0.00    -0.177 NA
ATOM      4  S   LIG    1        0.019  -4.746   2.403  0.00  0.00    +0.067 S 
ATOM      5  C   LIG    1       -1.076  -3.642   1.588  0.00  0.00    +0.146 A 
ATOM      6  S   LIG    1       -2.809  -3.787   1.289  0.00  0.00    -0.049 S 
ATOM      7  C   LIG    1       -3.032  -2.220   0.463  0.00  0.00    +0.144 A 
ATOM      8  C   LIG    1       -1.775  -1.720   0.468  0.00  0.00    +0.040 A 
ATOM      9  O   LIG    1        0.016  -5.965   1.672  0.00  0.00    -0.152 OA
ATOM     10  O   LIG    1       -0.266  -4.675   3.793  0.00  0.00    -0.152 OA
ATOM     11  C   LIG    1       -0.727  -2.445   1.043  0.00  0.00    -0.025 A 
ENDROOT
BRANCH   1  12
ATOM     12  N   LIG    1        0.713  -0.491   1.192  0.00  0.00    +0.384 N 
ATOM     13  H   LIG    1        0.145  -0.089   0.461  0.00  0.00    -0.085 HD
ATOM     14  H   LIG    1        0.336  -0.231   2.091  0.00  0.00    -0.085 HD
BRANCH  12  16
ATOM     15  C   LIG    1        2.076   1.540   1.075  0.00  0.00    -0.017 C 
ATOM     16  C   LIG    1        2.089   0.010   1.075  0.00  0.00    -0.085 C 
ENDBRANCH  12  16
ENDBRANCH   1  12
BRANCH   7  17
ATOM     17  S   LIG    1       -4.506  -1.512  -0.193  0.00  0.00    +0.062 S 
ATOM     18  O   LIG    1       -4.300  -0.107  -0.229  0.00  0.00    -0.153 OA
ATOM     19  O   LIG    1       -5.589  -2.105   0.510  0.00  0.00    -0.153 OA
BRANCH  17  20
ATOM     20  N   LIG    1       -4.633  -2.013  -1.766  0.00  0.00    -0.203 NA
ATOM     21  H   LIG    1       -4.651  -3.033  -1.750  0.00  0.00    +0.144 HD
ATOM     22  H   LIG    1       -5.385  -1.727  -2.307  0.00  0.00    +0.144 HD
ENDBRANCH  17  20
ENDBRANCH   7  17
BRANCH   3  23
ATOM     23  C   LIG    1        2.732  -4.798   1.916  0.00  0.00    +0.111 C 
BRANCH  23  24
ATOM     24  C   LIG    1        3.475  -5.011   3.236  0.00  0.00    +0.045 C 
BRANCH  24  25
ATOM     25  C   LIG    1        4.748  -5.821   2.980  0.00  0.00    +0.161 C 
BRANCH  25  26
ATOM     26  O   LIG    1        5.442  -6.020   4.213  0.00  0.00    -0.383 OA
ATOM     27  C   LIG    1        6.652  -6.770   4.084  0.00  0.00    +0.193 C 
ENDBRANCH  25  26
ENDBRANCH  24  25
ENDBRANCH  23  24
ENDBRANCH   3  23
TORSDOF 8
