REMARK  Name = ZINC03894499
REMARK                            x       y       z     vdW  Elec       q    Type
REMARK                         _______ _______ _______ _____ _____    ______ ____
ROOT
ATOM      1  C   LIG    1       -0.329   1.939   0.089  0.00  0.00    +0.008 C 
ATOM      2  C   LIG    1       -0.397   0.442  -0.068  0.00  0.00    -0.007 C 
ATOM      3  C   LIG    1       -0.528  -0.126  -1.300  0.00  0.00    +0.038 C 
ATOM      4  C   LIG    1       -0.588  -1.521  -1.423  0.00  0.00    +0.125 C 
ATOM      5  N   LIG    1       -0.522  -2.309  -0.369  0.00  0.00    -0.298 NA
ATOM      6  H   LIG    1       -0.568  -3.270  -0.491  0.00  0.00    +0.124 HD
ATOM      7  C   LIG    1       -0.393  -1.809   0.865  0.00  0.00    +0.059 C 
ATOM      8  C   LIG    1       -0.324  -2.659   1.983  0.00  0.00    +0.021 C 
ATOM      9  C   LIG    1       -0.177  -2.133   3.229  0.00  0.00    +0.024 C 
ATOM     10  C   LIG    1       -0.110  -0.749   3.423  0.00  0.00    +0.073 C 
ATOM     11  C   LIG    1       -0.181   0.113   2.350  0.00  0.00    +0.027 C 
ATOM     12  C   LIG    1       -0.321  -0.407   1.055  0.00  0.00    +0.011 C 
ENDROOT
BRANCH   4  13
ATOM     13  N   LIG    1       -0.721  -2.085  -2.683  0.00  0.00    -0.287 NA
ATOM     14  C   LIG    1       -0.672  -3.543  -2.860  0.00  0.00    +0.086 C 
ATOM     15  C   LIG    1        0.388  -3.876  -3.915  0.00  0.00    +0.019 C 
ATOM     16  C   LIG    1        0.087  -3.097  -5.198  0.00  0.00    -0.012 C 
ATOM     17  C   LIG    1        1.124  -3.453  -6.265  0.00  0.00    +0.007 C 
ATOM     18  C   LIG    1        0.147  -1.595  -4.910  0.00  0.00    +0.019 C 
ATOM     19  C   LIG    1       -0.921  -1.236  -3.866  0.00  0.00    +0.086 C 
ENDBRANCH   4  13
BRANCH  10  20
ATOM     20  N   LIG    1        0.030  -0.236   4.718  0.00  0.00    -0.312 N 
ATOM     21  H   LIG    1       -0.399   0.600   4.957  0.00  0.00    +0.149 HD
ATOM     22  C   LIG    1        0.761  -0.904   5.632  0.00  0.00    +0.216 C 
ATOM     23  O   LIG    1        1.378  -1.896   5.307  0.00  0.00    -0.276 OA
BRANCH  22  24
ATOM     24  C   LIG    1        0.810  -0.418   7.058  0.00  0.00    +0.075 C 
ATOM     25  C   LIG    1        1.381   1.001   7.093  0.00  0.00    +0.013 C 
ATOM     26  C   LIG    1        2.794   0.997   6.506  0.00  0.00    +0.004 C 
ATOM     27  C   LIG    1        3.687   0.068   7.331  0.00  0.00    -0.014 C 
ATOM     28  C   LIG    1        5.099   0.064   6.743  0.00  0.00    +0.007 C 
ATOM     29  C   LIG    1        3.116  -1.352   7.295  0.00  0.00    +0.004 C 
ATOM     30  C   LIG    1        1.703  -1.348   7.882  0.00  0.00    +0.013 C 
ENDBRANCH  22  24
ENDBRANCH  10  20
TORSDOF 3
