REMARK  Name = ZINC03872880
REMARK                            x       y       z     vdW  Elec       q    Type
REMARK                         _______ _______ _______ _____ _____    ______ ____
ROOT
ATOM      1  C   LIG    1        0.060  -4.765  -1.303  0.00  0.00    +0.258 C 
ENDROOT
BRANCH   1   2
ATOM      2  O   LIG    1        0.058  -4.125  -0.025  0.00  0.00    -0.489 OA
BRANCH   2   7
ATOM      3  C   LIG    1       -0.018   1.503   0.010  0.00  0.00    +0.044 C 
ATOM      4  C   LIG    1        0.002  -0.004   0.002  0.00  0.00    -0.047 A 
ATOM      5  C   LIG    1        0.006  -0.685  -1.200  0.00  0.00    +0.007 A 
ATOM      6  C   LIG    1        0.025  -2.066  -1.212  0.00  0.00    +0.046 A 
ATOM      7  C   LIG    1        0.040  -2.766  -0.015  0.00  0.00    +0.124 A 
ATOM      8  C   LIG    1        0.036  -2.081   1.193  0.00  0.00    -0.002 A 
ATOM      9  C   LIG    1        0.050  -2.600   2.615  0.00  0.00    +0.039 C 
ATOM     10  C   LIG    1       -0.387  -1.407   3.486  0.00  0.00    +0.009 C 
ATOM     11  C   LIG    1        0.029  -0.194   2.627  0.00  0.00    +0.036 C 
ATOM     12  C   LIG    1        0.023  -0.699   1.200  0.00  0.00    -0.038 A 
ENDBRANCH   2   7
ENDBRANCH   1   2
BRANCH   1  13
ATOM     13  C   LIG    1        0.081  -6.283  -1.113  0.00  0.00    +0.138 C 
BRANCH  13  14
ATOM     14  O   LIG    1        1.311  -6.669  -0.495  0.00  0.00    -0.390 OA
ATOM     15  H   LIG    1        2.098  -6.434  -1.005  0.00  0.00    +0.210 HD
ENDBRANCH  13  14
BRANCH  13  16
ATOM     16  C   LIG    1       -0.042  -6.969  -2.475  0.00  0.00    -0.042 C 
ATOM     17  C   LIG    1        1.192  -6.650  -3.321  0.00  0.00    -0.011 C 
BRANCH  16  18
ATOM     18  N   LIG    1       -0.142  -8.422  -2.284  0.00  0.00    +0.384 N 
ATOM     19  H   LIG    1       -0.907  -8.627  -1.659  0.00  0.00    -0.085 HD
ATOM     20  H   LIG    1        0.718  -8.769  -1.887  0.00  0.00    -0.085 HD
BRANCH  18  21
ATOM     21  C   LIG    1       -0.380  -9.071  -3.580  0.00  0.00    -0.078 C 
ATOM     22  C   LIG    1       -1.744  -8.640  -4.123  0.00  0.00    -0.014 C 
ATOM     23  C   LIG    1       -0.360 -10.591  -3.401  0.00  0.00    -0.014 C 
ENDBRANCH  18  21
ENDBRANCH  16  18
ENDBRANCH  13  16
ENDBRANCH   1  13
TORSDOF 7
