REMARK  Name = ZINC03872981
REMARK                            x       y       z     vdW  Elec       q    Type
REMARK                         _______ _______ _______ _____ _____    ______ ____
ROOT
ATOM      1  C   LIG    1        1.246  -2.160  -0.021  0.00  0.00    +0.244 C 
ATOM      2  N   LIG    1        2.424  -2.815  -0.036  0.00  0.00    -0.311 N 
ATOM      3  H   LIG    1        3.256  -2.317  -0.041  0.00  0.00    +0.149 HD
ATOM      4  O   LIG    1        0.203  -2.785  -0.014  0.00  0.00    -0.270 OA
ENDROOT
BRANCH   1   8
ATOM      5  C   LIG    1        1.179   2.086   0.002  0.00  0.00    +0.029 A 
ATOM      6  C   LIG    1       -0.017   1.372   0.010  0.00  0.00    +0.024 A 
ATOM      7  C   LIG    1        0.002  -0.004   0.002  0.00  0.00    +0.015 A 
ATOM      8  C   LIG    1        1.223  -0.685  -0.013  0.00  0.00    +0.037 A 
ATOM      9  C   LIG    1        2.421   0.035  -0.021  0.00  0.00    +0.015 A 
ATOM     10  C   LIG    1        2.396   1.411  -0.013  0.00  0.00    +0.024 A 
BRANCH   5  12
ATOM     11  C   LIG    1       -0.124   4.188   0.026  0.00  0.00    +0.129 C 
ATOM     12  N   LIG    1        1.156   3.476   0.010  0.00  0.00    -0.336 N 
ATOM     13  C   LIG    1        2.413   4.229   0.002  0.00  0.00    +0.129 C 
ENDBRANCH   5  12
ENDBRANCH   1   8
BRANCH   2  14
ATOM     14  C   LIG    1        2.448  -4.280  -0.043  0.00  0.00    +0.104 C 
BRANCH  14  15
ATOM     15  C   LIG    1        3.898  -4.767  -0.060  0.00  0.00    +0.019 C 
BRANCH  15  16
ATOM     16  C   LIG    1        3.922  -6.296  -0.068  0.00  0.00    +0.002 C 
BRANCH  16  17
ATOM     17  C   LIG    1        5.373  -6.783  -0.084  0.00  0.00    +0.009 C 
BRANCH  17  18
ATOM     18  C   LIG    1        5.397  -8.313  -0.092  0.00  0.00    +0.098 C 
BRANCH  18  19
ATOM     19  C   LIG    1        6.826  -8.793  -0.108  0.00  0.00    +0.235 C 
ATOM     20  N   LIG    1        7.093 -10.114  -0.118  0.00  0.00    -0.197 N 
ATOM     21  H   LIG    1        6.366 -10.756  -0.114  0.00  0.00    +0.182 HD
ATOM     22  O   LIG    1        7.735  -7.990  -0.113  0.00  0.00    -0.274 OA
BRANCH  20  23
ATOM     23  O   LIG    1        8.436 -10.564  -0.133  0.00  0.00    -0.295 OA
ATOM     24  H   LIG    1        8.527 -11.527  -0.139  0.00  0.00    +0.241 HD
ENDBRANCH  20  23
ENDBRANCH  18  19
ENDBRANCH  17  18
ENDBRANCH  16  17
ENDBRANCH  15  16
ENDBRANCH  14  15
ENDBRANCH   2  14
TORSDOF 9
