REMARK  Name = ZINC03993703
REMARK                            x       y       z     vdW  Elec       q    Type
REMARK                         _______ _______ _______ _____ _____    ______ ____
ROOT
ATOM      1  C   LIG    1        0.002  -0.004   0.002  0.00  0.00    +0.001 A 
ATOM      2  C   LIG    1       -0.017   1.383   0.010  0.00  0.00    +0.001 A 
ATOM      3  C   LIG    1        1.160   2.099   0.002  0.00  0.00    +0.016 A 
ATOM      4  C   LIG    1        2.390   1.431  -0.021  0.00  0.00    +0.031 A 
ATOM      5  C   LIG    1        2.409   0.030  -0.067  0.00  0.00    +0.052 A 
ATOM      6  C   LIG    1        3.662  -0.750  -0.163  0.00  0.00    +0.261 C 
ATOM      7  N   LIG    1        3.488  -2.109  -0.091  0.00  0.00    -0.230 N 
ATOM      8  H   LIG    1        2.705  -2.491   0.336  0.00  0.00    +0.173 HD
ATOM      9  N   LIG    1        4.486  -2.937  -0.660  0.00  0.00    -0.230 N 
ATOM     10  H   LIG    1        4.232  -3.642  -1.276  0.00  0.00    +0.173 HD
ATOM     11  C   LIG    1        5.805  -2.749  -0.348  0.00  0.00    +0.261 C 
ATOM     12  C   LIG    1        6.598  -3.994  -0.429  0.00  0.00    +0.052 A 
ATOM     13  C   LIG    1        5.922  -5.150   0.030  0.00  0.00    +0.014 A 
ATOM     14  C   LIG    1        6.506  -6.386  -0.054  0.00  0.00    +0.001 A 
ATOM     15  C   LIG    1        7.773  -6.518  -0.605  0.00  0.00    +0.001 A 
ATOM     16  C   LIG    1        8.459  -5.411  -1.034  0.00  0.00    +0.016 A 
ATOM     17  C   LIG    1        7.899  -4.118  -0.918  0.00  0.00    +0.031 A 
ATOM     18  S   LIG    1        8.957  -2.794  -1.363  0.00  0.00    -0.051 S 
ATOM     19  S   LIG    1        8.041  -1.167  -0.506  0.00  0.00    -0.051 S 
ATOM     20  C   LIG    1        9.470  -0.378   0.164  0.00  0.00    +0.031 A 
ATOM     21  C   LIG    1       10.710  -1.017   0.044  0.00  0.00    +0.016 A 
ATOM     22  C   LIG    1       11.841  -0.443   0.580  0.00  0.00    +0.001 A 
ATOM     23  C   LIG    1       11.766   0.772   1.247  0.00  0.00    +0.001 A 
ATOM     24  C   LIG    1       10.562   1.422   1.370  0.00  0.00    +0.014 A 
ATOM     25  C   LIG    1        9.403   0.869   0.802  0.00  0.00    +0.052 A 
ATOM     26  C   LIG    1        8.156   1.658   0.863  0.00  0.00    +0.261 C 
ATOM     27  N   LIG    1        8.219   2.795   1.626  0.00  0.00    -0.230 N 
ATOM     28  H   LIG    1        8.856   2.877   2.353  0.00  0.00    +0.173 HD
ATOM     29  N   LIG    1        7.320   3.842   1.315  0.00  0.00    -0.230 N 
ATOM     30  H   LIG    1        7.661   4.730   1.126  0.00  0.00    +0.173 HD
ATOM     31  C   LIG    1        5.970   3.608   1.280  0.00  0.00    +0.261 C 
ATOM     32  C   LIG    1        5.169   4.790   1.659  0.00  0.00    +0.052 A 
ATOM     33  C   LIG    1        5.740   5.580   2.683  0.00  0.00    +0.014 A 
ATOM     34  C   LIG    1        5.138   6.740   3.095  0.00  0.00    +0.001 A 
ATOM     35  C   LIG    1        3.958   7.158   2.498  0.00  0.00    +0.001 A 
ATOM     36  C   LIG    1        3.376   6.404   1.512  0.00  0.00    +0.016 A 
ATOM     37  C   LIG    1        3.953   5.181   1.097  0.00  0.00    +0.031 A 
ATOM     38  S   LIG    1        3.021   4.264  -0.067  0.00  0.00    -0.051 S 
ATOM     39  O   LIG    1        5.483   2.538   0.970  0.00  0.00    -0.269 OA
ATOM     40  O   LIG    1        7.144   1.323   0.276  0.00  0.00    -0.269 OA
ATOM     41  O   LIG    1        6.275  -1.671  -0.037  0.00  0.00    -0.269 OA
ATOM     42  O   LIG    1        4.754  -0.231  -0.294  0.00  0.00    -0.269 OA
ATOM     43  S   LIG    1        3.869   2.395   0.026  0.00  0.00    -0.051 S 
ATOM     44  C   LIG    1        1.198  -0.680  -0.038  0.00  0.00    +0.014 A 
ENDROOT
TORSDOF 0
