REMARK  Name = ZINC04054502
REMARK                            x       y       z     vdW  Elec       q    Type
REMARK                         _______ _______ _______ _____ _____    ______ ____
ROOT
ATOM      1  C   LIG    1        0.108  -4.857   1.123  0.00  0.00    +0.128 A 
ATOM      2  C   LIG    1        0.063  -4.216   2.356  0.00  0.00    +0.047 A 
ATOM      3  C   LIG    1        0.112  -4.951   3.519  0.00  0.00    +0.016 A 
ATOM      4  C   LIG    1        0.208  -6.344   3.459  0.00  0.00    +0.037 A 
ATOM      5  C   LIG    1        0.254  -6.985   2.218  0.00  0.00    +0.016 A 
ATOM      6  C   LIG    1        0.199  -6.243   1.060  0.00  0.00    +0.047 A 
ENDROOT
BRANCH   4   7
ATOM      7  C   LIG    1        0.262  -7.136   4.704  0.00  0.00    +0.244 C 
ATOM      8  N   LIG    1        0.355  -8.479   4.644  0.00  0.00    -0.307 N 
ATOM      9  H   LIG    1        0.386  -8.925   3.783  0.00  0.00    +0.149 HD
ATOM     10  O   LIG    1        0.222  -6.577   5.782  0.00  0.00    -0.270 OA
BRANCH   8  11
ATOM     11  C   LIG    1        0.408  -9.265   5.879  0.00  0.00    +0.140 C 
BRANCH  11  12
ATOM     12  C   LIG    1        0.509 -10.730   5.538  0.00  0.00    -0.027 A 
ATOM     13  C   LIG    1       -0.631 -11.500   5.371  0.00  0.00    +0.025 A 
ATOM     14  C   LIG    1       -0.499 -12.840   5.059  0.00  0.00    +0.111 A 
ATOM     15  N   LIG    1        0.693 -13.386   4.921  0.00  0.00    -0.263 NA
ATOM     16  C   LIG    1        1.799 -12.684   5.072  0.00  0.00    +0.111 A 
ATOM     17  C   LIG    1        1.745 -11.338   5.379  0.00  0.00    +0.025 A 
ENDBRANCH  11  12
ENDBRANCH   8  11
ENDBRANCH   4   7
BRANCH   1  18
ATOM     18  O   LIG    1        0.059  -4.129  -0.021  0.00  0.00    -0.456 OA
BRANCH  18  23
ATOM     19  C   LIG    1        4.924  -2.368  -2.246  0.00  0.00    +0.044 C 
ATOM     20  C   LIG    1        3.622  -2.839  -1.651  0.00  0.00    -0.050 A 
ATOM     21  C   LIG    1        2.426  -2.519  -2.266  0.00  0.00    +0.007 A 
ATOM     22  C   LIG    1        1.232  -2.950  -1.722  0.00  0.00    +0.046 A 
ATOM     23  C   LIG    1        1.233  -3.704  -0.558  0.00  0.00    +0.128 A 
ATOM     24  C   LIG    1        2.434  -4.024   0.058  0.00  0.00    +0.046 A 
ATOM     25  C   LIG    1        3.627  -3.595  -0.493  0.00  0.00    +0.007 A 
ENDBRANCH  18  23
ENDBRANCH   1  18
TORSDOF 5
