REMARK  Name = ZINC03948213
REMARK                            x       y       z     vdW  Elec       q    Type
REMARK                         _______ _______ _______ _____ _____    ______ ____
ROOT
ATOM      1  C   LIG    1       -0.191   0.767  -4.823  0.00  0.00    +0.163 C 
ENDROOT
BRANCH   1   6
ATOM      2  C   LIG    1        3.075   1.276  -8.591  0.00  0.00    +0.057 C 
ATOM      3  C   LIG    1        3.660   1.959  -7.353  0.00  0.00    +0.038 C 
ATOM      4  C   LIG    1        2.555   2.741  -6.636  0.00  0.00    +0.109 C 
ATOM      5  N   LIG    1        1.438   1.830  -6.351  0.00  0.00    -0.300 N 
ATOM      6  C   LIG    1        0.954   1.707  -5.099  0.00  0.00    +0.236 C 
ATOM      7  O   LIG    1        1.441   2.353  -4.195  0.00  0.00    -0.274 OA
ATOM      8  C   LIG    1        0.864   1.049  -7.456  0.00  0.00    +0.109 C 
ATOM      9  C   LIG    1        1.984   0.290  -8.164  0.00  0.00    +0.038 C 
BRANCH   2  10
ATOM     10  C   LIG    1        4.166   0.532  -9.317  0.00  0.00    -0.034 A 
ATOM     11  C   LIG    1        5.460   0.555  -8.830  0.00  0.00    +0.004 A 
ATOM     12  C   LIG    1        6.460  -0.131  -9.493  0.00  0.00    +0.000 A 
ATOM     13  C   LIG    1        6.169  -0.830 -10.650  0.00  0.00    +0.000 A 
ATOM     14  C   LIG    1        4.876  -0.848 -11.140  0.00  0.00    +0.000 A 
ATOM     15  C   LIG    1        3.875  -0.167 -10.473  0.00  0.00    +0.004 A 
ENDBRANCH   2  10
BRANCH   2  16
ATOM     16  C   LIG    1        2.481   2.316  -9.505  0.00  0.00    +0.144 C 
ATOM     17  O   LIG    1        2.522   3.483  -9.199  0.00  0.00    -0.296 OA
BRANCH  16  18
ATOM     18  C   LIG    1        1.837   1.899 -10.803  0.00  0.00    +0.075 C 
BRANCH  18  20
ATOM     19  C   LIG    1        0.665   2.716 -12.852  0.00  0.00    +0.004 C 
ATOM     20  C   LIG    1        1.319   3.139 -11.536  0.00  0.00    +0.004 C 
ENDBRANCH  18  20
ENDBRANCH  16  18
ENDBRANCH   2  16
ENDBRANCH   1   6
BRANCH   1  21
ATOM     21  N   LIG    1       -0.838   1.143  -3.563  0.00  0.00    -0.305 N 
ATOM     22  H   LIG    1       -1.775   1.393  -3.555  0.00  0.00    +0.149 HD
ATOM     23  C   LIG    1       -0.130   1.141  -2.416  0.00  0.00    +0.199 C 
ATOM     24  O   LIG    1        1.041   0.828  -2.426  0.00  0.00    -0.278 OA
BRANCH  23  25
ATOM     25  C   LIG    1       -0.795   1.527  -1.120  0.00  0.00    +0.018 C 
BRANCH  25  26
ATOM     26  N   LIG    1       -0.025   1.014   0.027  0.00  0.00    +0.386 N 
ATOM     27  H   LIG    1       -0.476   1.316   0.899  0.00  0.00    -0.089 HD
ATOM     28  H   LIG    1        0.925   1.379   0.001  0.00  0.00    -0.089 HD
ATOM     29  H   LIG    1        0.002  -0.004   0.002  0.00  0.00    -0.089 HD
ENDBRANCH  25  26
BRANCH  25  30
ATOM     30  C   LIG    1       -0.876   3.052  -1.022  0.00  0.00    +0.048 C 
BRANCH  30  31
ATOM     31  C   LIG    1       -1.649   3.436   0.213  0.00  0.00    +0.034 A 
ATOM     32  C   LIG    1       -1.159   3.556   1.461  0.00  0.00    +0.105 A 
ATOM     33  N   LIG    1       -2.167   3.917   2.268  0.00  0.00    -0.352 N 
ATOM     34  H   LIG    1       -2.088   4.087   3.278  0.00  0.00    +0.166 HD
ATOM     35  C   LIG    1       -3.264   4.017   1.571  0.00  0.00    +0.173 A 
ATOM     36  N   LIG    1       -2.985   3.725   0.282  0.00  0.00    -0.339 N 
ATOM     37  C   LIG    1       -3.935   3.719  -0.834  0.00  0.00    +0.150 C 
ENDBRANCH  30  31
ENDBRANCH  25  30
ENDBRANCH  23  25
ENDBRANCH   1  21
BRANCH   1  38
ATOM     38  C   LIG    1        0.338  -0.664  -4.718  0.00  0.00    +0.067 C 
BRANCH  38  39
ATOM     39  C   LIG    1       -0.819  -1.617  -4.564  0.00  0.00    -0.045 A 
ATOM     40  C   LIG    1       -1.280  -1.946  -3.302  0.00  0.00    +0.007 A 
ATOM     41  C   LIG    1       -2.344  -2.815  -3.159  0.00  0.00    +0.046 A 
ATOM     42  C   LIG    1       -2.944  -3.367  -4.282  0.00  0.00    +0.120 A 
ATOM     43  C   LIG    1       -2.476  -3.039  -5.546  0.00  0.00    +0.046 A 
ATOM     44  C   LIG    1       -1.415  -2.166  -5.684  0.00  0.00    +0.007 A 
BRANCH  42  45
ATOM     45  O   LIG    1       -3.988  -4.226  -4.143  0.00  0.00    -0.495 OA
ATOM     46  C   LIG    1       -4.416  -4.517  -2.811  0.00  0.00    +0.277 C 
ENDBRANCH  42  45
ENDBRANCH  38  39
ENDBRANCH   1  38
TORSDOF 13
