REMARK  Name = ZINC03949424
REMARK                            x       y       z     vdW  Elec       q    Type
REMARK                         _______ _______ _______ _____ _____    ______ ____
ROOT
ATOM      1  C   LIG    1        2.670  -0.635  -2.679  0.00  0.00    +0.179 C 
ATOM      2  C   LIG    1        3.157  -2.074  -2.465  0.00  0.00    +0.119 C 
ATOM      3  N   LIG    1        4.253  -2.058  -1.486  0.00  0.00    -0.271 NA
ATOM      4  C   LIG    1        5.419  -1.201  -1.742  0.00  0.00    +0.106 C 
ATOM      5  C   LIG    1        4.932   0.238  -1.956  0.00  0.00    +0.127 C 
ATOM      6  N   LIG    1        3.834   0.225  -2.937  0.00  0.00    -0.253 N 
ATOM      7  C   LIG    1        3.894   0.981  -4.051  0.00  0.00    +0.404 C 
ATOM      8  O   LIG    1        2.982   0.956  -4.853  0.00  0.00    -0.226 OA
ENDROOT
BRANCH   3   9
ATOM      9  C   LIG    1        4.189  -2.837  -0.344  0.00  0.00    +0.198 C 
ATOM     10  N   LIG    1        5.239  -2.877   0.454  0.00  0.00    -0.286 NA
ATOM     11  H   LIG    1        6.033  -2.367   0.232  0.00  0.00    +0.125 HD
ATOM     12  C   LIG    1        5.215  -3.622   1.571  0.00  0.00    +0.065 C 
ATOM     13  C   LIG    1        6.312  -3.685   2.438  0.00  0.00    +0.053 C 
ATOM     14  C   LIG    1        6.238  -4.463   3.572  0.00  0.00    +0.148 C 
ATOM     15  C   LIG    1        5.076  -5.191   3.865  0.00  0.00    +0.147 C 
ATOM     16  C   LIG    1        3.994  -5.143   3.034  0.00  0.00    +0.042 C 
ATOM     17  C   LIG    1        4.044  -4.359   1.874  0.00  0.00    +0.040 C 
ATOM     18  C   LIG    1        2.949  -4.276   0.981  0.00  0.00    +0.126 C 
ATOM     19  N   LIG    1        3.069  -3.509  -0.093  0.00  0.00    -0.273 NA
ATOM     20  H   LIG    1        2.910  -4.115  -0.899  0.00  0.00    +0.126 HD
BRANCH  18  21
ATOM     21  N   LIG    1        1.783  -4.972   1.225  0.00  0.00    -0.315 NA
ATOM     22  H   LIG    1        1.040  -4.907   0.605  0.00  0.00    +0.120 HD
ATOM     23  H   LIG    1        1.707  -5.527   2.017  0.00  0.00    +0.120 HD
ENDBRANCH  18  21
BRANCH  14  24
ATOM     24  O   LIG    1        7.301  -4.527   4.415  0.00  0.00    -0.377 OA
ATOM     25  C   LIG    1        8.456  -3.764   4.061  0.00  0.00    +0.194 C 
ENDBRANCH  14  24
BRANCH  15  26
ATOM     26  O   LIG    1        5.026  -5.953   4.991  0.00  0.00    -0.377 OA
ATOM     27  C   LIG    1        3.815  -6.671   5.235  0.00  0.00    +0.194 C 
ENDBRANCH  15  26
ENDBRANCH   3   9
BRANCH   1  30
ATOM     28  N   LIG    1        0.670  -0.514  -1.230  0.00  0.00    -0.309 N 
ATOM     29  H   LIG    1        0.210  -1.079  -1.870  0.00  0.00    +0.149 HD
ATOM     30  C   LIG    1        1.951  -0.156  -1.444  0.00  0.00    +0.235 C 
ATOM     31  O   LIG    1        2.526   0.551  -0.644  0.00  0.00    -0.274 OA
BRANCH  28  33
ATOM     32  C   LIG    1       -0.066   1.482  -0.022  0.00  0.00    +0.031 C 
ATOM     33  C   LIG    1       -0.029  -0.048  -0.029  0.00  0.00    +0.026 C 
ATOM     34  C   LIG    1       -1.459  -0.592  -0.029  0.00  0.00    +0.031 C 
ATOM     35  C   LIG    1        0.707  -0.546   1.216  0.00  0.00    +0.031 C 
ENDBRANCH  28  33
ENDBRANCH   1  30
BRANCH   7  36
ATOM     36  O   LIG    1        4.966   1.764  -4.276  0.00  0.00    -0.445 OA
BRANCH  36  37
ATOM     37  C   LIG    1        4.963   2.539  -5.476  0.00  0.00    +0.269 C 
BRANCH  37  38
ATOM     38  C   LIG    1        6.233   3.347  -5.556  0.00  0.00    -0.010 A 
ATOM     39  C   LIG    1        6.282   4.614  -5.006  0.00  0.00    +0.007 A 
ATOM     40  C   LIG    1        7.446   5.355  -5.079  0.00  0.00    +0.000 A 
ATOM     41  C   LIG    1        8.562   4.828  -5.702  0.00  0.00    +0.000 A 
ATOM     42  C   LIG    1        8.514   3.561  -6.251  0.00  0.00    +0.000 A 
ATOM     43  C   LIG    1        7.351   2.818  -6.174  0.00  0.00    +0.007 A 
ENDBRANCH  37  38
ENDBRANCH  36  37
ENDBRANCH   7  36
TORSDOF 9
