REMARK  Name = ZINC03872907
REMARK                            x       y       z     vdW  Elec       q    Type
REMARK                         _______ _______ _______ _____ _____    ______ ____
ROOT
ATOM      1  C   LIG    1       -0.344   5.329   0.032  0.00  0.00    -0.040 C 
ATOM      2  C   LIG    1       -1.822   5.455  -0.395  0.00  0.00    +0.001 C 
ATOM      3  C   LIG    1       -2.410   4.097   0.045  0.00  0.00    +0.048 C 
ATOM      4  C   LIG    1       -1.241   3.135   0.029  0.00  0.00    -0.038 A 
ATOM      5  C   LIG    1       -1.218   1.751   0.017  0.00  0.00    +0.004 A 
ATOM      6  C   LIG    1       -0.013   1.076   0.008  0.00  0.00    +0.000 A 
ATOM      7  C   LIG    1        1.174   1.784   0.000  0.00  0.00    +0.000 A 
ATOM      8  C   LIG    1        1.153   3.165   0.008  0.00  0.00    +0.002 A 
ATOM      9  C   LIG    1       -0.054   3.843   0.022  0.00  0.00    -0.058 A 
ENDROOT
BRANCH   3  10
ATOM     10  C   LIG    1       -3.471   3.648  -0.926  0.00  0.00    -0.039 A 
ATOM     11  C   LIG    1       -3.152   3.450  -2.257  0.00  0.00    +0.006 A 
ATOM     12  C   LIG    1       -4.123   3.033  -3.147  0.00  0.00    +0.022 A 
ATOM     13  C   LIG    1       -5.419   2.824  -2.710  0.00  0.00    +0.059 A 
ATOM     14 CL   LIG    1       -6.641   2.307  -3.829  0.00  0.00    -0.082 Cl
ATOM     15  C   LIG    1       -5.740   3.028  -1.379  0.00  0.00    +0.060 A 
ATOM     16 CL   LIG    1       -7.365   2.765  -0.828  0.00  0.00    -0.082 Cl
ATOM     17  C   LIG    1       -4.765   3.440  -0.487  0.00  0.00    +0.025 A 
ENDBRANCH   3  10
BRANCH   1  19
ATOM     18  C   LIG    1        1.811   6.377  -0.315  0.00  0.00    -0.100 C 
ATOM     19  N   LIG    1        0.521   6.026  -0.938  0.00  0.00    +0.382 N 
ATOM     20  H   LIG    1        0.054   6.884  -1.254  0.00  0.00    -0.085 HD
ATOM     21  H   LIG    1        0.691   5.413  -1.744  0.00  0.00    -0.085 HD
ENDBRANCH   1  19
TORSDOF 2
