REMARK  Name = ZINC04096682
REMARK                            x       y       z     vdW  Elec       q    Type
REMARK                         _______ _______ _______ _____ _____    ______ ____
ROOT
ATOM      1  C   LIG    1       -4.478  -0.231   1.552  0.00  0.00    +0.019 C 
ATOM      2  C   LIG    1       -4.430   1.164   2.178  0.00  0.00    +0.029 C 
ATOM      3  C   LIG    1       -5.046   2.155   1.215  0.00  0.00    +0.015 C 
ATOM      4  C   LIG    1       -4.304   2.025  -0.129  0.00  0.00    +0.009 C 
ATOM      5  C   LIG    1       -2.811   2.253   0.059  0.00  0.00    +0.023 C 
ATOM      6  C   LIG    1       -2.060   2.121  -1.235  0.00  0.00    -0.037 A 
ATOM      7  C   LIG    1       -2.684   2.540  -2.402  0.00  0.00    +0.053 A 
ATOM      8  C   LIG    1       -2.033   2.451  -3.619  0.00  0.00    +0.162 A 
ATOM      9  C   LIG    1       -0.741   1.937  -3.670  0.00  0.00    +0.159 A 
ATOM     10  C   LIG    1       -0.125   1.517  -2.507  0.00  0.00    +0.053 A 
ATOM     11  C   LIG    1       -0.782   1.605  -1.285  0.00  0.00    -0.040 A 
ATOM     12  C   LIG    1       -0.048   1.119  -0.063  0.00  0.00    +0.036 C 
ATOM     13  C   LIG    1       -0.728   1.597   1.219  0.00  0.00    +0.009 C 
ATOM     14  C   LIG    1       -2.222   1.301   1.107  0.00  0.00    +0.001 C 
ATOM     15  C   LIG    1       -5.001   1.105   3.563  0.00  0.00    +0.139 C 
ATOM     16  O   LIG    1       -6.144   1.321   3.888  0.00  0.00    -0.297 OA
ATOM     17  C   LIG    1       -3.843   0.717   4.477  0.00  0.00    +0.075 C 
ATOM     18  C   LIG    1       -2.573   0.657   3.584  0.00  0.00    +0.012 C 
ATOM     19  C   LIG    1       -2.948   1.571   2.410  0.00  0.00    +0.006 C 
ENDROOT
BRANCH   8  20
ATOM     20  O   LIG    1       -2.652   2.865  -4.757  0.00  0.00    -0.491 OA
ATOM     21  C   LIG    1       -3.977   3.382  -4.625  0.00  0.00    +0.277 C 
ENDBRANCH   8  20
BRANCH   9  22
ATOM     22  O   LIG    1       -0.088   1.847  -4.860  0.00  0.00    -0.503 OA
ATOM     23  H   LIG    1        0.429   2.633  -5.085  0.00  0.00    +0.292 HD
ENDBRANCH   9  22
TORSDOF 2
