REMARK  Name = ZINC03953867
REMARK                            x       y       z     vdW  Elec       q    Type
REMARK                         _______ _______ _______ _____ _____    ______ ____
ROOT
ATOM      1  C   LIG    1       -1.425  -0.882   0.013  0.00  0.00    -0.066 C 
ATOM      2  C   LIG    1       -2.050  -1.593  -0.929  0.00  0.00    -0.019 C 
ATOM      3  C   LIG    1       -3.542  -1.820  -0.566  0.00  0.00    +0.006 C 
ATOM      4  C   LIG    1       -4.170  -2.684  -1.630  0.00  0.00    +0.012 C 
ATOM      5  C   LIG    1       -5.440  -3.411  -1.206  0.00  0.00    +0.006 C 
ATOM      6  C   LIG    1       -5.733  -3.341   0.281  0.00  0.00    +0.012 C 
ATOM      7  C   LIG    1       -4.490  -3.531   1.125  0.00  0.00    -0.025 C 
ATOM      8  C   LIG    1       -3.878  -4.929   0.901  0.00  0.00    +0.012 C 
ATOM      9  C   LIG    1       -4.836  -3.402   2.613  0.00  0.00    +0.007 C 
ATOM     10  C   LIG    1       -5.911  -4.423   2.984  0.00  0.00    +0.002 C 
ATOM     11  C   LIG    1       -7.176  -4.153   2.180  0.00  0.00    +0.018 C 
ATOM     12  C   LIG    1       -6.917  -4.213   0.674  0.00  0.00    +0.068 C 
ATOM     13  C   LIG    1       -6.798  -5.663   0.220  0.00  0.00    +0.023 C 
ATOM     14  C   LIG    1       -4.090  -0.402  -0.559  0.00  0.00    +0.122 C 
ATOM     15  C   LIG    1       -3.401   0.464   0.496  0.00  0.00    +0.119 C 
ATOM     16  C   LIG    1       -3.409  -2.539   0.757  0.00  0.00    +0.007 C 
ATOM     17  C   LIG    1       -2.963  -1.580   1.850  0.00  0.00    +0.013 C 
ATOM     18  C   LIG    1       -2.300  -0.376   1.157  0.00  0.00    +0.030 C 
ENDROOT
BRANCH   1  20
ATOM     19  C   LIG    1        0.225   0.969  -0.147  0.00  0.00    +0.012 C 
ATOM     20  C   LIG    1        0.048  -0.549  -0.070  0.00  0.00    +0.009 C 
ATOM     21  C   LIG    1        0.763  -1.084   1.172  0.00  0.00    +0.012 C 
ENDBRANCH   1  20
BRANCH  12  22
ATOM     22  C   LIG    1       -8.161  -3.637   0.002  0.00  0.00    +0.311 C 
ATOM     23  O   LIG    1       -9.081  -4.373  -0.312  0.00  0.00    -0.250 OA
BRANCH  22  24
ATOM     24  O   LIG    1       -8.234  -2.441  -0.222  0.00  0.00    -0.480 OA
ATOM     25  H   LIG    1       -7.527  -1.875   0.018  0.00  0.00    +0.295 HD
ENDBRANCH  22  24
ENDBRANCH  12  22
BRANCH  14  26
ATOM     26  C   LIG    1       -5.572  -0.256  -0.495  0.00  0.00    +0.309 C 
ATOM     27  O   LIG    1       -6.156  -0.418   0.563  0.00  0.00    -0.251 OA
BRANCH  26  28
ATOM     28  O   LIG    1       -6.201   0.026  -1.501  0.00  0.00    -0.480 OA
ATOM     29  H   LIG    1       -5.753   0.150  -2.314  0.00  0.00    +0.295 HD
ENDBRANCH  26  28
ENDBRANCH  14  26
BRANCH  15  30
ATOM     30  C   LIG    1       -4.388   0.975   1.502  0.00  0.00    +0.309 C 
ATOM     31  O   LIG    1       -4.918   2.060   1.339  0.00  0.00    -0.251 OA
BRANCH  30  32
ATOM     32  O   LIG    1       -4.660   0.305   2.484  0.00  0.00    -0.480 OA
ATOM     33  H   LIG    1       -4.253  -0.529   2.610  0.00  0.00    +0.295 HD
ENDBRANCH  30  32
ENDBRANCH  15  30
TORSDOF 7
