REMARK  Name = ZINC04078718
REMARK                            x       y       z     vdW  Elec       q    Type
REMARK                         _______ _______ _______ _____ _____    ______ ____
ROOT
ATOM      1  C   LIG    1        5.991   1.173  -0.050  0.00  0.00    +0.246 A 
ATOM      2  C   LIG    1        7.130   0.356  -0.070  0.00  0.00    +0.114 A 
ATOM      3  C   LIG    1        8.224   1.167  -0.076  0.00  0.00    +0.143 A 
ATOM      4  N   LIG    1        7.782   2.451  -0.059  0.00  0.00    -0.112 N 
ATOM      5  N   LIG    1        6.381   2.425  -0.048  0.00  0.00    -0.110 NA
ENDROOT
BRANCH   3   6
ATOM      6  N   LIG    1        9.553   0.755  -0.095  0.00  0.00    -0.342 N 
ATOM      7  H   LIG    1       10.265   1.413  -0.097  0.00  0.00    +0.144 HD
ATOM      8  H   LIG    1        9.768  -0.191  -0.107  0.00  0.00    +0.144 HD
ENDBRANCH   3   6
BRANCH   4   9
ATOM      9  S   LIG    1        8.731   3.808  -0.056  0.00  0.00    +0.101 S 
ATOM     10  O   LIG    1        9.990   3.422   0.477  0.00  0.00    -0.146 OA
ATOM     11  O   LIG    1        7.949   4.849   0.513  0.00  0.00    -0.146 OA
BRANCH   9  12
ATOM     12  C   LIG    1        9.011   4.251  -1.739  0.00  0.00    +0.113 A 
ATOM     13  C   LIG    1       10.099   3.734  -2.417  0.00  0.00    +0.032 A 
ATOM     14  C   LIG    1       10.319   4.080  -3.737  0.00  0.00    +0.040 A 
ATOM     15  C   LIG    1        9.450   4.945  -4.379  0.00  0.00    +0.124 A 
ATOM     16  F   LIG    1        9.664   5.285  -5.669  0.00  0.00    -0.205 F 
ATOM     17  C   LIG    1        8.360   5.463  -3.699  0.00  0.00    +0.040 A 
ATOM     18  C   LIG    1        8.139   5.111  -2.381  0.00  0.00    +0.032 A 
ENDBRANCH   9  12
ENDBRANCH   4   9
BRANCH   1  19
ATOM     19  O   LIG    1        4.702   0.741  -0.039  0.00  0.00    -0.402 OA
BRANCH  19  20
ATOM     20  C   LIG    1        3.723   1.669  -0.025  0.00  0.00    +0.352 C 
ATOM     21  O   LIG    1        4.007   2.852  -0.022  0.00  0.00    -0.244 OA
BRANCH  20  24
ATOM     22  C   LIG    1       -0.016   1.352   0.009  0.00  0.00    +0.008 A 
ATOM     23  C   LIG    1        1.175   2.036   0.002  0.00  0.00    +0.023 A 
ATOM     24  C   LIG    1        2.320   1.252  -0.013  0.00  0.00    +0.097 A 
ATOM     25  S   LIG    1        1.636  -0.394  -0.016  0.00  0.00    -0.090 S 
ATOM     26  C   LIG    1        0.002  -0.004   0.002  0.00  0.00    +0.046 A 
ENDBRANCH  20  24
ENDBRANCH  19  20
ENDBRANCH   1  19
TORSDOF 6
