REMARK  Name = ZINC03978083
REMARK                            x       y       z     vdW  Elec       q    Type
REMARK                         _______ _______ _______ _____ _____    ______ ____
ROOT
ATOM      1  C   LIG    1       -0.042  12.450   3.677  0.00  0.00    -0.095 C 
ATOM      2  N   LIG    1        1.327  12.699   3.165  0.00  0.00    +0.383 N 
ATOM      3  H   LIG    1        1.933  13.064   3.909  0.00  0.00    -0.081 HD
ATOM      4  C   LIG    1        1.869  11.439   2.619  0.00  0.00    -0.033 C 
ATOM      5  C   LIG    1        0.942  10.936   1.519  0.00  0.00    +0.024 C 
ATOM      6  C   LIG    1        1.440   9.568   1.103  0.00  0.00    -0.048 A 
ATOM      7  C   LIG    1        1.661   8.615   2.081  0.00  0.00    +0.007 A 
ATOM      8  C   LIG    1        2.186   7.388   1.736  0.00  0.00    +0.046 A 
ATOM      9  C   LIG    1        2.490   7.117   0.409  0.00  0.00    +0.129 A 
ATOM     10  O   LIG    1        3.015   5.959   0.030  0.00  0.00    -0.452 OA
ATOM     11  C   LIG    1        2.657   4.690   0.161  0.00  0.00    +0.175 A 
ATOM     12  C   LIG    1        3.711   3.757   0.182  0.00  0.00    -0.011 A 
ATOM     13  C   LIG    1        3.407   2.418   0.213  0.00  0.00    -0.040 A 
ATOM     14  C   LIG    1        4.528   1.411   0.117  0.00  0.00    +0.017 C 
ATOM     15  C   LIG    1        5.625   2.074  -0.719  0.00  0.00    -0.070 C 
ATOM     16  N   LIG    1        6.129   3.269  -0.025  0.00  0.00    +0.381 N 
ATOM     17  C   LIG    1        6.769   2.825   1.218  0.00  0.00    -0.091 C 
ATOM     18  C   LIG    1        7.192   3.828  -0.899  0.00  0.00    -0.091 C 
ATOM     19  C   LIG    1        2.100   1.983   0.332  0.00  0.00    +0.053 A 
ATOM     20  C   LIG    1        1.065   2.902   0.365  0.00  0.00    +0.165 A 
ATOM     21  C   LIG    1        5.130   4.292   0.170  0.00  0.00    -0.027 C 
ATOM     22  C   LIG    1        5.296   5.102   1.450  0.00  0.00    +0.025 C 
ATOM     23  C   LIG    1        6.287   6.230   1.373  0.00  0.00    -0.045 A 
ATOM     24  C   LIG    1        7.647   6.001   1.399  0.00  0.00    +0.007 A 
ATOM     25  C   LIG    1        8.531   7.067   1.324  0.00  0.00    +0.049 A 
ATOM     26  C   LIG    1        8.059   8.360   1.265  0.00  0.00    +0.159 A 
ATOM     27  C   LIG    1        6.669   8.617   1.288  0.00  0.00    +0.170 A 
ATOM     28  O   LIG    1        6.309   9.877   1.267  0.00  0.00    -0.449 OA
ATOM     29  C   LIG    1        5.395  10.802   1.417  0.00  0.00    +0.170 A 
ATOM     30  C   LIG    1        4.133  10.618   1.956  0.00  0.00    +0.052 A 
ATOM     31  C   LIG    1        5.744  12.098   0.985  0.00  0.00    +0.162 A 
ATOM     32  C   LIG    1        4.852  13.141   1.076  0.00  0.00    +0.053 A 
ATOM     33  C   LIG    1        3.581  12.938   1.590  0.00  0.00    -0.044 A 
ATOM     34  C   LIG    1        2.613  14.084   1.612  0.00  0.00    +0.017 C 
ATOM     35  C   LIG    1        5.810   7.534   1.319  0.00  0.00    +0.053 A 
ATOM     36  C   LIG    1        1.351   4.259   0.244  0.00  0.00    +0.202 A 
ATOM     37  C   LIG    1        2.221   8.071  -0.571  0.00  0.00    +0.046 A 
ATOM     38  C   LIG    1        1.697   9.297  -0.223  0.00  0.00    +0.007 A 
ATOM     39  C   LIG    1        3.240  11.676   2.042  0.00  0.00    -0.054 A 
ATOM     40  C   LIG    1        1.220  13.655   2.058  0.00  0.00    -0.074 C 
ENDROOT
BRANCH  20  41
ATOM     41  O   LIG    1       -0.218   2.480   0.491  0.00  0.00    -0.491 OA
ATOM     42  C   LIG    1       -0.430   1.072   0.610  0.00  0.00    +0.277 C 
ENDBRANCH  20  41
BRANCH  26  43
ATOM     43  O   LIG    1        8.931   9.402   1.189  0.00  0.00    -0.503 OA
ATOM     44  H   LIG    1        9.206   9.748   2.050  0.00  0.00    +0.292 HD
ENDBRANCH  26  43
BRANCH  31  45
ATOM     45  O   LIG    1        6.990  12.313   0.477  0.00  0.00    -0.491 OA
ATOM     46  C   LIG    1        7.300  13.645   0.060  0.00  0.00    +0.277 C 
ENDBRANCH  31  45
BRANCH  36  47
ATOM     47  O   LIG    1        0.331   5.162   0.207  0.00  0.00    -0.501 OA
ATOM     48  H   LIG    1        0.068   5.494   1.076  0.00  0.00    +0.292 HD
ENDBRANCH  36  47
TORSDOF 4
