REMARK  Name = ZINC03963016
REMARK                            x       y       z     vdW  Elec       q    Type
REMARK                         _______ _______ _______ _____ _____    ______ ____
ROOT
ATOM      1  C   LIG    1       -0.076   5.331   0.030  0.00  0.00    +0.163 A 
ATOM      2  N   LIG    1        1.071   5.993   0.022  0.00  0.00    -0.223 NA
ATOM      3  C   LIG    1        1.083   7.322   0.027  0.00  0.00    +0.124 A 
ATOM      4  C   LIG    1        2.134   8.352   0.022  0.00  0.00    +0.066 A 
ATOM      5  C   LIG    1        3.526   8.324   0.008  0.00  0.00    +0.017 A 
ATOM      6  C   LIG    1        4.204   9.531   0.007  0.00  0.00    +0.021 A 
ATOM      7  C   LIG    1        3.481  10.712   0.019  0.00  0.00    +0.114 A 
ATOM      8  N   LIG    1        2.164  10.712   0.032  0.00  0.00    -0.220 NA
ATOM      9  C   LIG    1        1.464   9.585   0.034  0.00  0.00    +0.230 A 
ATOM     10  O   LIG    1        0.135   9.346   0.045  0.00  0.00    -0.432 OA
ATOM     11  C   LIG    1       -0.130   8.023   0.042  0.00  0.00    +0.196 A 
ATOM     12  C   LIG    1       -1.318   7.282   0.051  0.00  0.00    +0.169 A 
ATOM     13  N   LIG    1       -1.247   5.956   0.039  0.00  0.00    -0.209 NA
ENDROOT
BRANCH   1  16
ATOM     14  C   LIG    1       -1.220   1.748   0.017  0.00  0.00    +0.004 A 
ATOM     15  C   LIG    1       -1.245   3.129   0.031  0.00  0.00    +0.012 A 
ATOM     16  C   LIG    1       -0.051   3.848   0.023  0.00  0.00    +0.023 A 
ATOM     17  C   LIG    1        1.165   3.169   0.007  0.00  0.00    +0.057 A 
ATOM     18  C   LIG    1        1.181   1.784   0.000  0.00  0.00    +0.118 A 
ATOM     19  C   LIG    1       -0.013   1.076   0.008  0.00  0.00    +0.045 A 
BRANCH  18  20
ATOM     20  O   LIG    1        2.366   1.119  -0.015  0.00  0.00    -0.507 OA
ATOM     21  H   LIG    1        2.701   0.931  -0.902  0.00  0.00    +0.292 HD
ENDBRANCH  18  20
ENDBRANCH   1  16
BRANCH  12  22
ATOM     22  N   LIG    1       -2.548   7.921   0.066  0.00  0.00    -0.308 N 
ATOM     23  C   LIG    1       -2.654   8.834   1.214  0.00  0.00    +0.134 C 
ATOM     24  C   LIG    1       -3.999   9.561   1.159  0.00  0.00    +0.178 C 
ATOM     25  O   LIG    1       -5.056   8.598   1.134  0.00  0.00    -0.377 OA
ATOM     26  C   LIG    1       -4.985   7.693   0.029  0.00  0.00    +0.178 C 
ATOM     27  C   LIG    1       -3.649   6.947   0.072  0.00  0.00    +0.134 C 
ENDBRANCH  12  22
TORSDOF 3
