REMARK  Name = ZINC04095814
REMARK                            x       y       z     vdW  Elec       q    Type
REMARK                         _______ _______ _______ _____ _____    ______ ____
ROOT
ATOM      1  S   UNK A  1       -4.626  -5.512  10.858  0.00  0.00    -0.148 S 
ENDROOT
BRANCH   1   2
ATOM      2  C   UNK A  1       -3.664  -5.954   9.385  0.00  0.00    +0.098 C 
BRANCH   2   4
ATOM      3  C   UNK A  1       -4.433  -5.326   7.133  0.00  0.00    -0.003 C 
ATOM      4  C   UNK A  1       -4.591  -6.101   8.206  0.00  0.00    -0.010 C 
BRANCH   3   6
ATOM      5  C   UNK A  1       -5.173  -4.684   4.901  0.00  0.00    -0.000 C 
ATOM      6  C   UNK A  1       -5.334  -5.468   5.987  0.00  0.00    -0.000 C 
BRANCH   5   8
ATOM      7  C   UNK A  1       -5.865  -4.112   2.650  0.00  0.00    -0.023 C 
ATOM      8  C   UNK A  1       -6.074  -4.827   3.755  0.00  0.00    -0.004 C 
BRANCH   7   9
ATOM      9  C   UNK A  1       -4.623  -3.268   2.522  0.00  0.00    +0.054 C 
BRANCH   9  11
ATOM     10  C   UNK A  1       -3.576  -2.683   0.396  0.00  0.00    -0.031 C 
ATOM     11  C   UNK A  1       -3.902  -3.623   1.247  0.00  0.00    -0.027 C 
BRANCH  10  12
ATOM     12  C   UNK A  1       -3.784  -1.234   0.756  0.00  0.00    +0.027 C 
BRANCH  12  13
ATOM     13  C   UNK A  1       -2.479  -0.465   0.548  0.00  0.00    +0.004 C 
BRANCH  13  14
ATOM     14  C   UNK A  1       -2.690   1.006   0.914  0.00  0.00    +0.000 C 
BRANCH  14  16
ATOM     15  C   UNK A  1       -1.596   3.247   1.072  0.00  0.00    +0.004 C 
ATOM     16  C   UNK A  1       -1.384   1.776   0.706  0.00  0.00    -0.003 C 
ENDBRANCH  14  16
ENDBRANCH  13  14
ENDBRANCH  12  13
ENDBRANCH  10  12
ENDBRANCH   9  11
ENDBRANCH   7   9
ENDBRANCH   5   8
ENDBRANCH   3   6
ENDBRANCH   2   4
BRANCH   2  17
ATOM     17  C   UNK A  1       -2.936  -7.277   9.629  0.00  0.00    +0.131 C 
BRANCH  17  18
ATOM     18  O   UNK A  1       -2.240  -7.664   8.443  0.00  0.00    -0.390 OA
ATOM     19  H   UNK A  1       -1.578  -7.024   8.148  0.00  0.00    +0.210 HD
ENDBRANCH  17  18
BRANCH  17  20
ATOM     20  C   UNK A  1       -1.935  -7.104  10.774  0.00  0.00    +0.033 C 
BRANCH  20  21
ATOM     21  C   UNK A  1       -1.303  -8.457  11.106  0.00  0.00    +0.014 C 
BRANCH  21  22
ATOM     22  C   UNK A  1       -0.302  -8.285  12.251  0.00  0.00    +0.120 C 
BRANCH  22  23
ATOM     23  C   UNK A  1        0.321  -9.617  12.578  0.00  0.00    +0.305 C 
ATOM     24  O   UNK A  1       -0.005 -10.613  11.954  0.00  0.00    -0.251 OA
BRANCH  23  25
ATOM     25  O   UNK A  1        1.151  -9.700  13.467  0.00  0.00    -0.481 OA
ATOM     26  H   UNK A  1        1.402  -8.935  13.947  0.00  0.00    +0.295 HD
ENDBRANCH  23  25
ENDBRANCH  22  23
ENDBRANCH  21  22
ENDBRANCH  20  21
ENDBRANCH  17  20
ENDBRANCH   2  17
ENDBRANCH   1   2
BRANCH   1  27
ATOM     27  C   UNK A  1       -5.308  -3.878  10.463  0.00  0.00    +0.101 C 
BRANCH  27  28
ATOM     28  C   UNK A  1       -6.046  -3.325  11.684  0.00  0.00    +0.169 C 
BRANCH  28  29
ATOM     29  C   UNK A  1       -6.613  -1.968  11.356  0.00  0.00    +0.235 C 
ATOM     30  N   GLY A  2       -5.791  -0.964  10.991  0.00  0.00    -0.303 N 
ATOM     31  H   GLY A  2       -4.834  -1.116  10.939  0.00  0.00    +0.149 HD
ATOM     32  O   UNK A  1       -7.809  -1.778  11.421  0.00  0.00    -0.274 OA
BRANCH  30  33
ATOM     33  CA  GLY A  2       -6.342   0.355  10.672  0.00  0.00    +0.224 C 
BRANCH  33  34
ATOM     34  C   GLY A  2       -5.221   1.290  10.297  0.00  0.00    +0.322 C 
ATOM     35  O   GLY A  2       -4.069   0.891  10.296  0.00  0.00    -0.249 OA
BRANCH  34  36
ATOM     36  OXT GLY A  2       -5.466   2.445   9.994  0.00  0.00    -0.480 OA
ATOM     37  HXT GLY A  2       -6.352   2.752   9.995  0.00  0.00    +0.295 HD
ENDBRANCH  34  36
ENDBRANCH  33  34
ENDBRANCH  30  33
ENDBRANCH  28  29
BRANCH  28  38
ATOM     38  N   UNK A  1       -7.136  -4.234  12.049  0.00  0.00    -0.303 N 
ATOM     39  H   UNK A  1       -7.527  -4.816  11.379  0.00  0.00    +0.149 HD
ATOM     40  C   UNK A  1       -7.594  -4.262  13.316  0.00  0.00    +0.214 C 
ATOM     41  O   UNK A  1       -7.105  -3.535  14.154  0.00  0.00    -0.276 OA
BRANCH  40  42
ATOM     42  C   UNK A  1       -8.715  -5.197  13.691  0.00  0.00    +0.095 C 
BRANCH  42  43
ATOM     43  C   UNK A  1       -9.041  -5.031  15.177  0.00  0.00    +0.004 C 
BRANCH  43  44
ATOM     44  C   UNK A  1      -10.179  -5.981  15.558  0.00  0.00    +0.036 C 
BRANCH  44  45
ATOM     45  N   UNK A  1      -11.403  -5.589  14.845  0.00  0.00    +0.387 N 
ATOM     46  H   UNK A  1      -12.153  -6.215  15.097  0.00  0.00    -0.089 HD
ATOM     47  H   UNK A  1      -11.243  -5.638  13.850  0.00  0.00    -0.089 HD
ATOM     48  H   UNK A  1      -11.653  -4.645  15.100  0.00  0.00    -0.089 HD
ENDBRANCH  44  45
BRANCH  44  49
ATOM     49  C   UNK A  1      -10.418  -5.907  17.044  0.00  0.00    +0.290 C 
ATOM     50  O   UNK A  1      -11.436  -5.391  17.473  0.00  0.00    -0.253 OA
BRANCH  49  51
ATOM     51  O   UNK A  1       -9.594  -6.364  17.818  0.00  0.00    -0.482 OA
ATOM     52  H   UNK A  1       -8.811  -6.760  17.488  0.00  0.00    +0.295 HD
ENDBRANCH  49  51
ENDBRANCH  44  49
ENDBRANCH  43  44
ENDBRANCH  42  43
ENDBRANCH  40  42
ENDBRANCH  28  38
ENDBRANCH  27  28
ENDBRANCH   1  27
TORSDOF 30
