REMARK  Name = ZINC03982495
REMARK                            x       y       z     vdW  Elec       q    Type
REMARK                         _______ _______ _______ _____ _____    ______ ____
ROOT
ATOM      1  C   LIG    1        1.338   4.887   0.015  0.00  0.00    +0.067 C 
ATOM      2  C   LIG    1        0.548   3.604   0.016  0.00  0.00    +0.061 A 
ATOM      3  C   LIG    1        1.078   2.312   0.004  0.00  0.00    +0.059 A 
ATOM      4  C   LIG    1       -0.018   1.466   0.010  0.00  0.00    +0.143 A 
ATOM      5  N   LIG    1       -1.122   2.271   0.019  0.00  0.00    -0.271 N 
ATOM      6  H   LIG    1       -2.069   1.951   0.018  0.00  0.00    +0.189 HD
ATOM      7  N   LIG    1       -0.757   3.503   0.028  0.00  0.00    -0.178 NA
ENDROOT
BRANCH   4   8
ATOM      8  C   LIG    1        0.002  -0.004   0.002  0.00  0.00    +0.355 C 
ATOM      9  O   LIG    1        1.063  -0.597  -0.011  0.00  0.00    -0.243 OA
BRANCH   8  10
ATOM     10  O   LIG    1       -1.156  -0.694   0.009  0.00  0.00    -0.476 OA
ATOM     11  H   LIG    1       -1.974  -0.237   0.020  0.00  0.00    +0.295 HD
ENDBRANCH   8  10
ENDBRANCH   4   8
TORSDOF 2
