REMARK  Name = ZINC03918592
REMARK                            x       y       z     vdW  Elec       q    Type
REMARK                         _______ _______ _______ _____ _____    ______ ____
ROOT
ATOM      1  C   LIG    1        0.336  -7.050   2.535  0.00  0.00    +0.041 A 
ATOM      2  C   LIG    1        0.415  -8.418   2.747  0.00  0.00    +0.127 A 
ATOM      3  C   LIG    1        0.319  -9.307   1.683  0.00  0.00    +0.092 A 
ATOM      4  C   LIG    1        0.141  -8.835   0.396  0.00  0.00    +0.135 A 
ATOM      5  C   LIG    1        0.058  -7.454   0.174  0.00  0.00    +0.109 A 
ATOM      6  C   LIG    1       -0.132  -6.909  -1.180  0.00  0.00    +0.238 A 
ATOM      7  O   LIG    1       -0.223  -7.642  -2.152  0.00  0.00    -0.283 OA
ATOM      8  C   LIG    1       -0.203  -5.498  -1.312  0.00  0.00    +0.208 A 
ATOM      9  C   LIG    1       -0.096  -4.715  -0.202  0.00  0.00    +0.181 A 
ATOM     10  O   LIG    1        0.082  -5.228   1.028  0.00  0.00    -0.450 OA
ATOM     11  C   LIG    1        0.157  -6.556   1.252  0.00  0.00    +0.150 A 
ENDROOT
BRANCH   9  12
ATOM     12  C   LIG    1       -0.173  -3.250  -0.356  0.00  0.00    +0.025 A 
ATOM     13  C   LIG    1        0.786  -2.431   0.247  0.00  0.00    +0.015 A 
ATOM     14  C   LIG    1        0.715  -1.063   0.098  0.00  0.00    +0.050 A 
ATOM     15  C   LIG    1       -0.312  -0.494  -0.642  0.00  0.00    +0.158 A 
ATOM     16  C   LIG    1       -1.272  -1.305  -1.246  0.00  0.00    +0.159 A 
ATOM     17  C   LIG    1       -1.204  -2.678  -1.106  0.00  0.00    +0.060 A 
BRANCH  15  18
ATOM     18  O   LIG    1       -0.380   0.856  -0.783  0.00  0.00    -0.503 OA
ATOM     19  H   LIG    1       -0.899   1.297  -0.097  0.00  0.00    +0.292 HD
ENDBRANCH  15  18
BRANCH  16  20
ATOM     20  O   LIG    1       -2.274  -0.744  -1.975  0.00  0.00    -0.503 OA
ATOM     21  H   LIG    1       -2.064  -0.633  -2.912  0.00  0.00    +0.292 HD
ENDBRANCH  16  20
ENDBRANCH   9  12
BRANCH   2  22
ATOM     22  O   LIG    1        0.590  -8.893   4.007  0.00  0.00    -0.506 OA
ATOM     23  H   LIG    1       -0.235  -9.065   4.481  0.00  0.00    +0.292 HD
ENDBRANCH   2  22
BRANCH   4  24
ATOM     24  O   LIG    1        0.046  -9.701  -0.644  0.00  0.00    -0.506 OA
ATOM     25  H   LIG    1        0.894  -9.918  -1.054  0.00  0.00    +0.292 HD
ENDBRANCH   4  24
BRANCH   8  26
ATOM     26  O   LIG    1       -0.377  -4.931  -2.537  0.00  0.00    -0.501 OA
ATOM     27  H   LIG    1        0.449  -4.733  -2.999  0.00  0.00    +0.292 HD
ENDBRANCH   8  26
BRANCH   1  28
ATOM     28  C   LIG    1        0.443  -6.099   3.699  0.00  0.00    +0.069 C 
BRANCH  28  32
ATOM     29  C   LIG    1       -0.066  -6.525   6.440  0.00  0.00    +0.038 C 
ATOM     30  C   LIG    1       -1.180  -6.092   5.523  0.00  0.00    -0.079 C 
ATOM     31  C   LIG    1       -2.583  -5.952   6.056  0.00  0.00    +0.038 C 
ATOM     32  C   LIG    1       -0.930  -5.838   4.262  0.00  0.00    -0.023 C 
ENDBRANCH  28  32
ENDBRANCH   1  28
TORSDOF 8
