REMARK  Name = ZINC03995477
REMARK                            x       y       z     vdW  Elec       q    Type
REMARK                         _______ _______ _______ _____ _____    ______ ____
ROOT
ATOM      1  C   LIG    1        4.242   0.615  -0.077  0.00  0.00    +0.096 C 
ATOM      2  C   LIG    1        5.088  -0.470  -0.682  0.00  0.00    +0.007 A 
ATOM      3  C   LIG    1        5.473  -1.554   0.085  0.00  0.00    +0.008 A 
ATOM      4  C   LIG    1        6.253  -2.553  -0.468  0.00  0.00    +0.001 A 
ATOM      5  C   LIG    1        6.649  -2.470  -1.791  0.00  0.00    +0.004 A 
ATOM      6  C   LIG    1        6.267  -1.390  -2.561  0.00  0.00    +0.046 A 
ATOM      7  C   LIG    1        5.485  -0.384  -2.007  0.00  0.00    +0.132 A 
ATOM      8  O   LIG    1        5.112   0.674  -2.763  0.00  0.00    -0.460 OA
ATOM      9  C   LIG    1        4.756   1.834  -2.180  0.00  0.00    +0.114 C 
ATOM     10  C   LIG    1        4.838   3.095  -3.007  0.00  0.00    +0.081 C 
ATOM     11  C   LIG    1        5.162   4.279  -2.110  0.00  0.00    -0.021 C 
ATOM     12  C   LIG    1        6.513   4.057  -1.427  0.00  0.00    +0.012 C 
ATOM     13  C   LIG    1        5.205   5.560  -2.944  0.00  0.00    +0.012 C 
ATOM     14  C   LIG    1        4.062   4.392  -1.049  0.00  0.00    +0.086 C 
ATOM     15  C   LIG    1        3.972   3.090  -0.300  0.00  0.00    +0.164 C 
ATOM     16  O   LIG    1        3.578   3.090   0.849  0.00  0.00    -0.292 OA
ATOM     17  C   LIG    1        4.336   1.873  -0.906  0.00  0.00    +0.045 C 
ENDROOT
BRANCH   1  23
ATOM     18  C   LIG    1       -0.009   1.534   0.057  0.00  0.00    +0.012 C 
ATOM     19  C   LIG    1        0.004   0.004   0.064  0.00  0.00    -0.021 C 
ATOM     20  C   LIG    1        0.678  -0.509  -1.213  0.00  0.00    +0.086 C 
ATOM     21  C   LIG    1        2.115  -0.056  -1.227  0.00  0.00    +0.164 C 
ATOM     22  O   LIG    1        2.679   0.126  -2.288  0.00  0.00    -0.292 OA
ATOM     23  C   LIG    1        2.807   0.158  -0.026  0.00  0.00    +0.044 C 
ATOM     24  C   LIG    1        2.223  -0.035   1.170  0.00  0.00    +0.102 C 
ATOM     25  C   LIG    1       -1.432  -0.520   0.135  0.00  0.00    +0.012 C 
ATOM     26  C   LIG    1        0.794  -0.497   1.276  0.00  0.00    +0.080 C 
BRANCH  24  27
ATOM     27  O   LIG    1        2.929   0.189   2.294  0.00  0.00    -0.511 OA
ATOM     28  H   LIG    1        3.809   0.560   2.139  0.00  0.00    +0.292 HD
ENDBRANCH  24  27
ENDBRANCH   1  23
TORSDOF 2
