REMARK  Name = ZINC03966300
REMARK                            x       y       z     vdW  Elec       q    Type
REMARK                         _______ _______ _______ _____ _____    ______ ____
ROOT
ATOM      1  C   LIG    1        1.244  -2.060   0.072  0.00  0.00    +0.053 A 
ATOM      2  C   LIG    1        0.083  -2.821   0.077  0.00  0.00    +0.028 A 
ATOM      3  C   LIG    1        0.160  -4.197   0.157  0.00  0.00    +0.048 A 
ATOM      4  C   LIG    1        1.397  -4.820   0.233  0.00  0.00    +0.132 A 
ATOM      5  C   LIG    1        2.559  -4.061   0.228  0.00  0.00    +0.068 A 
ATOM      6  C   LIG    1        2.483  -2.684   0.141  0.00  0.00    +0.066 A 
ATOM      7 CL   LIG    1        3.936  -1.734   0.127  0.00  0.00    -0.082 Cl
ENDROOT
BRANCH   1  11
ATOM      8  N   LIG    1        0.123   1.339   0.584  0.00  0.00    -0.299 N 
ATOM      9  H   LIG    1        0.835   1.838   0.154  0.00  0.00    +0.150 HD
ATOM     10  C   LIG    1        0.150  -0.008   0.586  0.00  0.00    +0.304 C 
ATOM     11  N   LIG    1        1.167  -0.662  -0.010  0.00  0.00    -0.268 N 
ATOM     12  H   LIG    1        1.845  -0.167  -0.495  0.00  0.00    +0.156 HD
ATOM     13  O   LIG    1       -0.743  -0.634   1.124  0.00  0.00    -0.253 OA
BRANCH   8  14
ATOM     14  C   LIG    1       -0.986   2.050   1.226  0.00  0.00    +0.105 C 
BRANCH  14  16
ATOM     15  C   LIG    1       -1.932   4.302   1.753  0.00  0.00    +0.005 C 
ATOM     16  C   LIG    1       -0.775   3.559   1.083  0.00  0.00    +0.015 C 
ENDBRANCH  14  16
ENDBRANCH   8  14
ENDBRANCH   1  11
BRANCH   4  17
ATOM     17  O   LIG    1        1.472  -6.175   0.312  0.00  0.00    -0.437 OA
BRANCH  17  18
ATOM     18  C   LIG    1        1.238  -6.891  -0.812  0.00  0.00    +0.231 A 
ATOM     19  C   LIG    1        1.405  -8.294  -0.825  0.00  0.00    +0.066 A 
ATOM     20  C   LIG    1        1.803  -9.006   0.314  0.00  0.00    +0.064 A 
ATOM     21  C   LIG    1        1.942 -10.363   0.246  0.00  0.00    +0.162 A 
ATOM     22  C   LIG    1        1.685 -11.051  -0.949  0.00  0.00    +0.164 A 
ATOM     23  C   LIG    1        1.290 -10.380  -2.073  0.00  0.00    +0.078 A 
ATOM     24  C   LIG    1        1.139  -8.989  -2.032  0.00  0.00    +0.082 A 
ATOM     25  N   LIG    1        0.754  -8.286  -3.108  0.00  0.00    -0.235 NA
ATOM     26  C   LIG    1        0.621  -6.983  -3.037  0.00  0.00    +0.225 A 
ATOM     27  N   LIG    1        0.853  -6.295  -1.930  0.00  0.00    -0.201 NA
BRANCH  21  28
ATOM     28  O   LIG    1        2.333 -11.055   1.349  0.00  0.00    -0.491 OA
ATOM     29  C   LIG    1        2.580 -10.299   2.536  0.00  0.00    +0.277 C 
ENDBRANCH  21  28
BRANCH  22  30
ATOM     30  O   LIG    1        1.831 -12.401  -0.990  0.00  0.00    -0.491 OA
ATOM     31  C   LIG    1        1.555 -13.046  -2.235  0.00  0.00    +0.277 C 
ENDBRANCH  22  30
ENDBRANCH  17  18
ENDBRANCH   4  17
TORSDOF 7
