REMARK  Name = ZINC03874616
REMARK                            x       y       z     vdW  Elec       q    Type
REMARK                         _______ _______ _______ _____ _____    ______ ____
ROOT
ATOM      1  C   LIG    1       -0.017   1.421   0.010  0.00  0.00    +0.194 C 
ATOM      2  C   LIG    1        1.385   1.990  -0.001  0.00  0.00    +0.048 C 
ATOM      3  C   LIG    1        2.331   1.282  -0.641  0.00  0.00    +0.138 C 
ATOM      4  C   LIG    1        2.000  -0.022  -1.256  0.00  0.00    +0.057 C 
ATOM      5  C   LIG    1        0.616  -0.608  -1.149  0.00  0.00    +0.283 C 
ATOM      6  C   LIG    1        3.118  -0.469  -1.838  0.00  0.00    +0.104 C 
ATOM      7  C   LIG    1        4.135   0.492  -1.602  0.00  0.00    +0.338 C 
ATOM      8  O   LIG    1        5.280   0.418  -2.009  0.00  0.00    -0.245 OA
ATOM      9  O   LIG    1        3.637   1.502  -0.856  0.00  0.00    -0.423 OA
ATOM     10  O   LIG    1        0.002  -0.004   0.002  0.00  0.00    -0.343 OA
ENDROOT
BRANCH   5  11
ATOM     11  O   LIG    1        0.696  -2.024  -0.977  0.00  0.00    -0.363 OA
ATOM     12  H   LIG    1       -0.164  -2.461  -0.902  0.00  0.00    +0.213 HD
ENDBRANCH   5  11
TORSDOF 1
