REMARK  Name = ZINC03993855
REMARK                            x       y       z     vdW  Elec       q    Type
REMARK                         _______ _______ _______ _____ _____    ______ ____
ROOT
ATOM      1  C   LIG    1        0.197   1.469  -0.038  0.00  0.00    +0.132 C 
ATOM      2  N   LIG    1        0.162   0.005  -0.035  0.00  0.00    -0.294 N 
ATOM      3  C   LIG    1        0.159  -0.683  -1.315  0.00  0.00    +0.203 C 
ATOM      4  C   LIG    1        0.197  -2.168  -1.156  0.00  0.00    +0.234 C 
ATOM      5  N   LIG    1        0.205  -2.800   0.020  0.00  0.00    -0.276 N 
ATOM      6  C   LIG    1        0.096  -2.105   1.302  0.00  0.00    +0.167 C 
ATOM      7  C   LIG    1       -1.215  -2.515   1.987  0.00  0.00    +0.069 C 
ATOM      8  C   LIG    1       -1.363  -4.013   1.895  0.00  0.00    -0.015 A 
ATOM      9  C   LIG    1       -2.223  -4.880   2.674  0.00  0.00    +0.003 A 
ATOM     10  C   LIG    1       -3.138  -4.633   3.702  0.00  0.00    +0.010 A 
ATOM     11  C   LIG    1       -3.792  -5.721   4.225  0.00  0.00    +0.001 A 
ATOM     12  C   LIG    1       -3.565  -7.008   3.764  0.00  0.00    +0.002 A 
ATOM     13  C   LIG    1       -2.667  -7.281   2.746  0.00  0.00    +0.026 A 
ATOM     14  C   LIG    1       -1.988  -6.195   2.196  0.00  0.00    +0.047 A 
ATOM     15  N   LIG    1       -1.056  -6.107   1.203  0.00  0.00    -0.356 N 
ATOM     16  H   LIG    1       -0.708  -6.857   0.696  0.00  0.00    +0.166 HD
ATOM     17  C   LIG    1       -0.685  -4.800   1.031  0.00  0.00    +0.046 A 
ATOM     18  C   LIG    1        0.329  -4.273   0.041  0.00  0.00    +0.154 C 
ATOM     19  O   LIG    1        0.221  -2.845  -2.162  0.00  0.00    -0.274 OA
ATOM     20  C   LIG    1        0.141  -0.620   1.141  0.00  0.00    +0.237 C 
ATOM     21  O   LIG    1        0.154   0.060   2.145  0.00  0.00    -0.274 OA
ENDROOT
BRANCH  18  22
ATOM     22  C   LIG    1        0.044  -4.831  -1.329  0.00  0.00    -0.018 A 
ATOM     23  C   LIG    1        1.057  -5.433  -2.053  0.00  0.00    +0.009 A 
ATOM     24  C   LIG    1        0.800  -5.946  -3.311  0.00  0.00    +0.050 A 
ATOM     25  C   LIG    1       -0.473  -5.859  -3.849  0.00  0.00    +0.166 A 
ATOM     26  C   LIG    1       -1.493  -5.253  -3.119  0.00  0.00    +0.167 A 
ATOM     27  O   LIG    1       -2.640  -5.292  -3.858  0.00  0.00    -0.453 OA
ATOM     28  C   LIG    1       -2.219  -5.560  -5.209  0.00  0.00    +0.466 C 
ATOM     29  O   LIG    1       -0.981  -6.277  -5.045  0.00  0.00    -0.453 OA
ATOM     30  C   LIG    1       -1.230  -4.746  -1.857  0.00  0.00    +0.055 A 
ENDBRANCH  18  22
TORSDOF 1
