REMARK  Name = ZINC03979039
REMARK                            x       y       z     vdW  Elec       q    Type
REMARK                         _______ _______ _______ _____ _____    ______ ____
ROOT
ATOM      1  C   LIG    1        0.606  -0.607  -1.056  0.00  0.00    +0.121 A 
ATOM      2  C   LIG    1        1.175   0.164  -2.065  0.00  0.00    +0.049 A 
ATOM      3  C   LIG    1        1.788  -0.432  -3.146  0.00  0.00    +0.050 A 
ATOM      4  C   LIG    1        1.849  -1.819  -3.240  0.00  0.00    +0.139 A 
ATOM      5  C   LIG    1        1.279  -2.595  -2.218  0.00  0.00    +0.068 A 
ATOM      6  C   LIG    1        1.365  -4.068  -2.322  0.00  0.00    +0.200 A 
ATOM      7  C   LIG    1        2.295  -4.588  -3.346  0.00  0.00    +0.065 A 
ATOM      8  C   LIG    1        2.664  -5.932  -3.366  0.00  0.00    +0.015 A 
ATOM      9  C   LIG    1        3.538  -6.383  -4.331  0.00  0.00    +0.001 A 
ATOM     10  C   LIG    1        4.047  -5.503  -5.275  0.00  0.00    +0.004 A 
ATOM     11  C   LIG    1        3.687  -4.173  -5.266  0.00  0.00    +0.047 A 
ATOM     12  C   LIG    1        2.804  -3.695  -4.302  0.00  0.00    +0.139 A 
ATOM     13  O   LIG    1        0.710  -4.805  -1.609  0.00  0.00    -0.286 OA
ATOM     14  O   LIG    1        2.444  -2.396  -4.303  0.00  0.00    -0.455 OA
ATOM     15  C   LIG    1        0.660  -1.987  -1.127  0.00  0.00    +0.061 A 
ENDROOT
BRANCH   1  17
ATOM     16  C   LIG    1       -0.017   1.425   0.010  0.00  0.00    +0.277 C 
ATOM     17  O   LIG    1        0.002  -0.004   0.002  0.00  0.00    -0.495 OA
ENDBRANCH   1  17
TORSDOF 1
