REMARK  Name = ZINC03893798
REMARK                            x       y       z     vdW  Elec       q    Type
REMARK                         _______ _______ _______ _____ _____    ______ ____
ROOT
ATOM      1  C   LIG    1        2.333   1.109  -1.101  0.00  0.00    +0.034 A 
ATOM      2  C   LIG    1        2.408  -0.252  -0.826  0.00  0.00    +0.024 A 
ATOM      3  C   LIG    1        3.616  -0.910  -0.922  0.00  0.00    +0.012 A 
ATOM      4  C   LIG    1        4.764  -0.208  -1.285  0.00  0.00    +0.002 A 
ATOM      5  C   LIG    1        4.688   1.158  -1.554  0.00  0.00    +0.012 A 
ATOM      6  C   LIG    1        3.477   1.811  -1.462  0.00  0.00    +0.024 A 
ENDROOT
BRANCH   4   7
ATOM      7  C   LIG    1        6.066  -0.913  -1.383  0.00  0.00    +0.090 A 
ATOM      8  C   LIG    1        6.276  -2.238  -1.146  0.00  0.00    +0.121 A 
ATOM      9  N   LIG    1        7.607  -2.476  -1.347  0.00  0.00    -0.306 N 
ATOM     10  C   LIG    1        8.363  -3.608  -1.254  0.00  0.00    +0.093 A 
ATOM     11  C   LIG    1        9.688  -3.574  -1.510  0.00  0.00    +0.018 A 
ATOM     12  C   LIG    1       10.307  -2.368  -1.878  0.00  0.00    +0.005 A 
ATOM     13  C   LIG    1        9.566  -1.232  -1.975  0.00  0.00    +0.047 A 
ATOM     14  C   LIG    1        8.183  -1.284  -1.704  0.00  0.00    +0.138 A 
ATOM     15  N   LIG    1        7.238  -0.355  -1.725  0.00  0.00    -0.228 NA
ENDBRANCH   4   7
BRANCH   1  17
ATOM     16  C   LIG    1       -0.033   1.131  -1.332  0.00  0.00    +0.250 C 
ATOM     17  N   LIG    1        1.107   1.773  -1.008  0.00  0.00    -0.281 N 
ATOM     18  H   LIG    1        1.076   2.696  -0.710  0.00  0.00    +0.155 HD
ATOM     19  O   LIG    1        0.012   0.008  -1.793  0.00  0.00    -0.270 OA
BRANCH  16  24
ATOM     20  C   LIG    1       -2.801   3.664  -1.506  0.00  0.00    +0.001 A 
ATOM     21  C   LIG    1       -3.783   3.042  -0.755  0.00  0.00    +0.002 A 
ATOM     22  C   LIG    1       -3.549   1.800  -0.191  0.00  0.00    +0.033 A 
ATOM     23  C   LIG    1       -2.333   1.174  -0.375  0.00  0.00    +0.134 A 
ATOM     24  C   LIG    1       -1.338   1.796  -1.131  0.00  0.00    +0.067 A 
ATOM     25  C   LIG    1       -1.579   3.051  -1.692  0.00  0.00    +0.015 A 
BRANCH  23  26
ATOM     26  N   LIG    1       -2.084  -0.154   0.230  0.00  0.00    +0.007 N 
ATOM     27  O   LIG    1       -2.988  -0.748   0.788  0.00  0.00    -0.130 OA
BRANCH  26  28
ATOM     28  O   LIG    1       -0.974  -0.652   0.169  0.00  0.00    -0.396 OA
ATOM     29  H   LIG    1       -0.278  -0.195  -0.261  0.00  0.00    +0.329 HD
ENDBRANCH  26  28
ENDBRANCH  23  26
ENDBRANCH  16  24
ENDBRANCH   1  17
TORSDOF 5
