REMARK  Name = ZINC03982174
REMARK                            x       y       z     vdW  Elec       q    Type
REMARK                         _______ _______ _______ _____ _____    ______ ____
ROOT
ATOM      1  C   LIG    1       -0.199  -5.901   2.741  0.00  0.00    +0.078 C 
ATOM      2  C   LIG    1        0.413  -6.470   4.039  0.00  0.00    +0.022 C 
ATOM      3  C   LIG    1       -0.501  -7.684   4.351  0.00  0.00    +0.019 C 
ATOM      4  C   LIG    1       -1.883  -7.162   3.882  0.00  0.00    +0.110 C 
ATOM      5  N   LIG    1       -1.594  -6.360   2.675  0.00  0.00    -0.174 NA
ENDROOT
BRANCH   5   6
ATOM      6  S   LIG    1       -2.661  -6.032   1.452  0.00  0.00    +0.061 S 
ATOM      7  O   LIG    1       -2.134  -4.920   0.741  0.00  0.00    -0.153 OA
ATOM      8  O   LIG    1       -3.956  -6.016   2.036  0.00  0.00    -0.153 OA
BRANCH   6   9
ATOM      9  C   LIG    1       -2.624  -7.402   0.345  0.00  0.00    +0.109 A 
ATOM     10  C   LIG    1       -1.728  -7.415  -0.709  0.00  0.00    +0.029 A 
ATOM     11  C   LIG    1       -1.697  -8.489  -1.579  0.00  0.00    +0.005 A 
ATOM     12  C   LIG    1       -2.560  -9.552  -1.397  0.00  0.00    +0.045 A 
ATOM     13  C   LIG    1       -3.459  -9.541  -0.341  0.00  0.00    +0.119 A 
ATOM     14  C   LIG    1       -3.485  -8.465   0.534  0.00  0.00    +0.074 A 
BRANCH  13  15
ATOM     15  O   LIG    1       -4.309 -10.586  -0.161  0.00  0.00    -0.507 OA
ATOM     16  H   LIG    1       -3.957 -11.287   0.405  0.00  0.00    +0.292 HD
ENDBRANCH  13  15
ENDBRANCH   6   9
ENDBRANCH   5   6
BRANCH   1  17
ATOM     17  C   LIG    1       -0.156  -4.372   2.773  0.00  0.00    +0.002 C 
BRANCH  17  18
ATOM     18  C   LIG    1        1.300  -3.902   2.740  0.00  0.00    -0.077 C 
BRANCH  18  23
ATOM     19  C   LIG    1        2.116   1.714   3.306  0.00  0.00    +0.007 C 
ATOM     20  C   LIG    1        2.151   0.199   3.522  0.00  0.00    -0.018 C 
ATOM     21  C   LIG    1        2.772  -0.479   2.297  0.00  0.00    -0.016 C 
ATOM     22  C   LIG    1        2.732  -1.997   2.486  0.00  0.00    -0.079 C 
ATOM     23  N   LIG    1        1.340  -2.437   2.638  0.00  0.00    +0.380 N 
ATOM     24  H   LIG    1        0.806  -2.144   1.833  0.00  0.00    -0.082 HD
ATOM     25  C   LIG    1        0.760  -1.847   3.850  0.00  0.00    -0.079 C 
ATOM     26  C   LIG    1        0.724  -0.324   3.714  0.00  0.00    -0.016 C 
ENDBRANCH  18  23
ENDBRANCH  17  18
ENDBRANCH   1  17
TORSDOF 6
