REMARK  Name = ZINC03995564
REMARK                            x       y       z     vdW  Elec       q    Type
REMARK                         _______ _______ _______ _____ _____    ______ ____
ROOT
ATOM      1  C   LIG    1        1.182  -0.418  -1.140  0.00  0.00    -0.023 C 
ATOM      2  C   LIG    1       -0.024  -0.274  -0.178  0.00  0.00    -0.078 C 
ATOM      3  N   LIG    1       -0.091   1.178   0.038  0.00  0.00    +0.388 N 
ATOM      4  H1  LIG    1       -0.568   1.628  -0.752  0.00  0.00    -0.085 HD
ATOM      5  H2  LIG    1       -0.600   1.381   0.906  0.00  0.00    -0.085 HD
ATOM      6  CA  LIG    1        1.284   1.670   0.138  0.00  0.00    +0.043 C 
ATOM      7  C   LIG    1        2.161   0.665  -0.633  0.00  0.00    -0.002 C 
ENDROOT
BRANCH   1   9
ATOM      8  C   LIG    1        0.722  -2.872  -1.239  0.00  0.00    +0.007 C 
ATOM      9  C   LIG    1        1.804  -1.811  -1.025  0.00  0.00    -0.016 C 
ATOM     10  C   LIG    1        2.893  -1.973  -2.087  0.00  0.00    +0.007 C 
ENDBRANCH   1   9
BRANCH   6  11
ATOM     11  C   LIG    1        1.403   3.038  -0.484  0.00  0.00    +0.291 C 
ATOM     12  O   LIG    1        0.552   3.431  -1.246  0.00  0.00    -0.253 OA
BRANCH  11  13
ATOM     13  OXT LIG    1        2.455   3.819  -0.192  0.00  0.00    -0.482 OA
ATOM     14  HXT LIG    1        3.116   3.514   0.398  0.00  0.00    +0.295 HD
ENDBRANCH  11  13
ENDBRANCH   6  11
BRANCH   7  15
ATOM     15  C   LIG    1        3.203   0.045   0.301  0.00  0.00    +0.123 C 
BRANCH  15  16
ATOM     16  C   LIG    1        4.243   1.078   0.650  0.00  0.00    +0.305 C 
ATOM     17  O   LIG    1        4.159   2.196   0.199  0.00  0.00    -0.251 OA
BRANCH  16  18
ATOM     18  O   LIG    1        5.262   0.756   1.462  0.00  0.00    -0.481 OA
ATOM     19  H   LIG    1        5.326  -0.110   1.812  0.00  0.00    +0.295 HD
ENDBRANCH  16  18
ENDBRANCH  15  16
ENDBRANCH   7  15
TORSDOF 6
