REMARK  Name = ZINC03977785
REMARK                            x       y       z     vdW  Elec       q    Type
REMARK                         _______ _______ _______ _____ _____    ______ ____
ROOT
ATOM      1  C   LIG    1        0.657  -2.104  -1.120  0.00  0.00    +0.129 C 
ATOM      2  C   LIG    1        1.409  -2.646   0.097  0.00  0.00    +0.129 C 
ATOM      3  C   LIG    1        1.470  -4.173   0.015  0.00  0.00    +0.032 C 
ATOM      4  C   LIG    1        2.211  -4.582  -1.259  0.00  0.00    +0.004 C 
ATOM      5  C   LIG    1        1.466  -4.044  -2.483  0.00  0.00    -0.024 C 
ATOM      6  C   LIG    1        2.240  -4.435  -3.748  0.00  0.00    -0.074 C 
ATOM      7  N   LIG    1        3.592  -3.865  -3.676  0.00  0.00    +0.386 N 
ATOM      8  H   LIG    1        4.020  -4.166  -2.813  0.00  0.00    -0.081 HD
ATOM      9  C   LIG    1        4.410  -4.336  -4.799  0.00  0.00    -0.073 C 
ATOM     10  C   LIG    1        5.887  -4.012  -4.530  0.00  0.00    +0.019 C 
ATOM     11  C   LIG    1        5.979  -2.566  -4.111  0.00  0.00    -0.022 A 
ATOM     12  C   LIG    1        7.137  -1.704  -4.031  0.00  0.00    +0.003 A 
ATOM     13  C   LIG    1        8.495  -1.909  -4.298  0.00  0.00    +0.010 A 
ATOM     14  C   LIG    1        9.332  -0.837  -4.111  0.00  0.00    +0.001 A 
ATOM     15  C   LIG    1        8.867   0.394  -3.678  0.00  0.00    +0.002 A 
ATOM     16  C   LIG    1        7.530   0.624  -3.405  0.00  0.00    +0.026 A 
ATOM     17  C   LIG    1        6.656  -0.446  -3.586  0.00  0.00    +0.047 A 
ATOM     18  N   LIG    1        5.306  -0.563  -3.412  0.00  0.00    -0.359 N 
ATOM     19  H   LIG    1        4.718   0.147  -3.110  0.00  0.00    +0.166 HD
ATOM     20  C   LIG    1        4.907  -1.833  -3.728  0.00  0.00    +0.006 A 
ATOM     21  C   LIG    1        3.510  -2.398  -3.682  0.00  0.00    -0.020 C 
ATOM     22  C   LIG    1        2.793  -1.926  -2.416  0.00  0.00    -0.005 C 
ATOM     23  C   LIG    1        1.381  -2.518  -2.399  0.00  0.00    +0.005 C 
ENDROOT
BRANCH   1  24
ATOM     24  C   LIG    1        0.598  -0.600  -1.043  0.00  0.00    +0.313 C 
ATOM     25  O   LIG    1        1.088   0.070  -1.921  0.00  0.00    -0.250 OA
BRANCH  24  27
ATOM     26  C   LIG    1       -0.017   1.425   0.010  0.00  0.00    +0.280 C 
ATOM     27  O   LIG    1        0.002  -0.004   0.002  0.00  0.00    -0.468 OA
ENDBRANCH  24  27
ENDBRANCH   1  24
BRANCH   2  28
ATOM     28  O   LIG    1        0.726  -2.259   1.291  0.00  0.00    -0.391 OA
ATOM     29  H   LIG    1        1.148  -2.570   2.104  0.00  0.00    +0.210 HD
ENDBRANCH   2  28
TORSDOF 3
