REMARK  Name = ZINC03875393
REMARK                            x       y       z     vdW  Elec       q    Type
REMARK                         _______ _______ _______ _____ _____    ______ ____
ROOT
ATOM      1  C   LIG    1       -1.416  -2.058  -0.121  0.00  0.00    +0.039 C 
ATOM      2  C   LIG    1       -2.843  -2.604  -0.001  0.00  0.00    -0.067 C 
ATOM      3  N   LIG    1       -2.837  -4.048  -0.268  0.00  0.00    +0.385 N 
ATOM      4  H   LIG    1       -2.161  -4.497   0.332  0.00  0.00    -0.081 HD
ATOM      5  C   LIG    1       -4.170  -4.600   0.011  0.00  0.00    -0.073 C 
ATOM      6  C   LIG    1       -4.075  -6.126   0.036  0.00  0.00    +0.017 C 
ATOM      7  C   LIG    1       -3.393  -6.613  -1.217  0.00  0.00    -0.044 A 
ATOM      8  C   LIG    1       -3.522  -7.949  -1.567  0.00  0.00    +0.053 A 
ATOM      9  C   LIG    1       -2.909  -8.435  -2.708  0.00  0.00    +0.162 A 
ATOM     10  C   LIG    1       -2.160  -7.575  -3.507  0.00  0.00    +0.162 A 
ATOM     11  C   LIG    1       -2.036  -6.244  -3.153  0.00  0.00    +0.051 A 
ATOM     12  C   LIG    1       -2.652  -5.761  -2.008  0.00  0.00    -0.054 A 
ATOM     13  C   LIG    1       -2.489  -4.303  -1.667  0.00  0.00    -0.030 C 
ATOM     14  C   LIG    1       -1.034  -3.887  -1.917  0.00  0.00    +0.064 C 
ATOM     15  C   LIG    1       -0.873  -2.445  -1.481  0.00  0.00    +0.133 C 
ATOM     16  O   LIG    1       -0.333  -1.633  -2.193  0.00  0.00    -0.297 OA
ENDROOT
BRANCH   9  17
ATOM     17  O   LIG    1       -3.038  -9.745  -3.048  0.00  0.00    -0.491 OA
ATOM     18  C   LIG    1       -3.821 -10.567  -2.180  0.00  0.00    +0.277 C 
ENDBRANCH   9  17
BRANCH  10  19
ATOM     19  O   LIG    1       -1.554  -8.043  -4.631  0.00  0.00    -0.491 OA
ATOM     20  C   LIG    1       -0.802  -7.102  -5.401  0.00  0.00    +0.277 C 
ENDBRANCH  10  19
BRANCH   1  21
ATOM     21  C   LIG    1       -1.433  -0.534   0.013  0.00  0.00    +0.012 C 
BRANCH  21  23
ATOM     22  C   LIG    1       -0.019   1.526   0.010  0.00  0.00    +0.007 C 
ATOM     23  C   LIG    1        0.002  -0.004   0.002  0.00  0.00    -0.017 C 
ATOM     24  C   LIG    1        0.742  -0.511   1.242  0.00  0.00    +0.007 C 
ENDBRANCH  21  23
ENDBRANCH   1  21
TORSDOF 4
