REMARK  Name = ZINC03873146
REMARK                            x       y       z     vdW  Elec       q    Type
REMARK                         _______ _______ _______ _____ _____    ______ ____
ROOT
ATOM      1  C   UNK A  1        6.487  -3.994   0.743  0.00  0.00    +0.017 C 
ENDROOT
BRANCH   1   2
ATOM      2  C   UNK A  1        7.027  -4.229   2.131  0.00  0.00    +0.202 C 
ATOM      3  N   PRO A  2        8.266  -4.733   2.296  0.00  0.00    -0.289 N 
ATOM      4  CD  PRO A  2        9.198  -5.092   1.212  0.00  0.00    +0.108 C 
ATOM      5  CG  PRO A  2       10.605  -5.011   1.856  0.00  0.00    +0.021 C 
ATOM      6  CB  PRO A  2       10.325  -5.553   3.283  0.00  0.00    +0.035 C 
ATOM      7  CA  PRO A  2        8.913  -5.010   3.586  0.00  0.00    +0.184 C 
ATOM      8  O   UNK A  1        6.346  -3.963   3.099  0.00  0.00    -0.277 OA
BRANCH   7   9
ATOM      9  C   PRO A  2        8.121  -6.044   4.345  0.00  0.00    +0.325 C 
ATOM     10  O   PRO A  2        7.484  -6.889   3.740  0.00  0.00    -0.249 OA
BRANCH   9  11
ATOM     11  OXT PRO A  2        8.118  -6.036   5.564  0.00  0.00    -0.479 OA
ATOM     12  HXT PRO A  2        8.608  -5.386   6.029  0.00  0.00    +0.295 HD
ENDBRANCH   9  11
ENDBRANCH   7   9
ENDBRANCH   1   2
BRANCH   1  13
ATOM     13  N   UNK A  1        5.120  -3.465   0.832  0.00  0.00    +0.395 N 
ATOM     14  H   UNK A  1        5.124  -2.609   1.366  0.00  0.00    -0.084 HD
ATOM     15  H   UNK A  1        4.769  -3.281  -0.096  0.00  0.00    -0.084 HD
BRANCH  13  16
ATOM     16  C   UNK A  1        4.256  -4.452   1.495  0.00  0.00    +0.040 C 
BRANCH  16  17
ATOM     17  C   UNK A  1        3.862  -5.519   0.506  0.00  0.00    +0.291 C 
ATOM     18  O   UNK A  1        3.559  -5.212  -0.634  0.00  0.00    -0.253 OA
BRANCH  17  19
ATOM     19  O   UNK A  1        3.847  -6.689   0.847  0.00  0.00    -0.482 OA
ATOM     20  H   UNK A  1        4.080  -6.925   1.723  0.00  0.00    +0.295 HD
ENDBRANCH  17  19
ENDBRANCH  16  17
BRANCH  16  21
ATOM     21  C   UNK A  1        2.999  -3.756   2.022  0.00  0.00    -0.000 C 
BRANCH  21  22
ATOM     22  C   UNK A  1        3.389  -2.760   3.116  0.00  0.00    +0.034 C 
BRANCH  22  26
ATOM     23  C   UNK A  1       -0.119  -0.817   4.590  0.00  0.00    +0.000 A 
ATOM     24  C   UNK A  1        0.321  -1.989   5.177  0.00  0.00    +0.000 A 
ATOM     25  C   UNK A  1        1.456  -2.618   4.700  0.00  0.00    +0.003 A 
ATOM     26  C   UNK A  1        2.151  -2.075   3.635  0.00  0.00    -0.047 A 
ATOM     27  C   UNK A  1        1.711  -0.903   3.048  0.00  0.00    +0.003 A 
ATOM     28  C   UNK A  1        0.577  -0.274   3.526  0.00  0.00    +0.000 A 
ENDBRANCH  22  26
ENDBRANCH  21  22
ENDBRANCH  16  21
ENDBRANCH  13  16
ENDBRANCH   1  13
BRANCH   1  29
ATOM     29  C   UNK A  1        6.474  -5.315  -0.029  0.00  0.00    -0.007 C 
BRANCH  29  30
ATOM     30  C   UNK A  1        6.100  -5.049  -1.488  0.00  0.00    -0.003 C 
BRANCH  30  31
ATOM     31  C   UNK A  1        5.967  -6.380  -2.232  0.00  0.00    -0.020 C 
BRANCH  31  32
ATOM     32  C   UNK A  1        5.593  -6.113  -3.691  0.00  0.00    -0.086 C 
BRANCH  32  33
ATOM     33  N   UNK A  1        5.466  -7.391  -4.405  0.00  0.00    +0.378 N 
ATOM     34  H   UNK A  1        5.219  -7.216  -5.367  0.00  0.00    -0.090 HD
ATOM     35  H   UNK A  1        4.747  -7.949  -3.970  0.00  0.00    -0.090 HD
ATOM     36  H   UNK A  1        6.344  -7.886  -4.368  0.00  0.00    -0.090 HD
ENDBRANCH  32  33
ENDBRANCH  31  32
ENDBRANCH  30  31
ENDBRANCH  29  30
ENDBRANCH   1  29
TORSDOF 15
