REMARK  Name = ZINC04015565
REMARK                            x       y       z     vdW  Elec       q    Type
REMARK                         _______ _______ _______ _____ _____    ______ ____
ROOT
ATOM      1  C   LIG    1       -3.011   4.124  -1.392  0.00  0.00    +0.166 C 
ENDROOT
BRANCH   1   4
ATOM      2  N   LIG    1       -5.417   4.092  -0.818  0.00  0.00    -0.301 N 
ATOM      3  H   LIG    1       -5.279   3.216  -0.424  0.00  0.00    +0.150 HD
ATOM      4  C   LIG    1       -4.382   4.749  -1.378  0.00  0.00    +0.234 C 
ATOM      5  O   LIG    1       -4.555   5.844  -1.870  0.00  0.00    -0.274 OA
BRANCH   2   6
ATOM      6  C   LIG    1       -6.750   4.699  -0.805  0.00  0.00    +0.186 C 
BRANCH   6   7
ATOM      7  C   LIG    1       -6.874   5.613   0.387  0.00  0.00    +0.328 C 
ATOM      8  O   LIG    1       -5.944   5.744   1.147  0.00  0.00    -0.249 OA
BRANCH   7   9
ATOM      9  O   LIG    1       -8.017   6.282   0.604  0.00  0.00    -0.464 OA
BRANCH   9  11
ATOM     10  C   LIG    1       -9.436   7.818   1.853  0.00  0.00    +0.048 C 
ATOM     11  C   LIG    1       -8.065   7.144   1.772  0.00  0.00    +0.229 C 
ENDBRANCH   9  11
ENDBRANCH   7   9
ENDBRANCH   6   7
BRANCH   6  12
ATOM     12  C   LIG    1       -7.811   3.600  -0.717  0.00  0.00    +0.069 C 
BRANCH  12  13
ATOM     13  C   LIG    1       -7.768   2.760  -1.967  0.00  0.00    -0.045 A 
ATOM     14  C   LIG    1       -8.551   3.101  -3.055  0.00  0.00    +0.007 A 
ATOM     15  C   LIG    1       -8.510   2.336  -4.204  0.00  0.00    +0.045 A 
ATOM     16  C   LIG    1       -7.690   1.218  -4.263  0.00  0.00    +0.117 A 
ATOM     17  C   LIG    1       -6.910   0.875  -3.168  0.00  0.00    +0.045 A 
ATOM     18  C   LIG    1       -6.951   1.647  -2.023  0.00  0.00    +0.007 A 
BRANCH  16  19
ATOM     19  O   LIG    1       -7.652   0.460  -5.390  0.00  0.00    -0.507 OA
ATOM     20  H   LIG    1       -8.299  -0.258  -5.404  0.00  0.00    +0.292 HD
ENDBRANCH  16  19
ENDBRANCH  12  13
ENDBRANCH   6  12
ENDBRANCH   2   6
ENDBRANCH   1   4
BRANCH   1  21
ATOM     21  N   LIG    1       -2.068   5.031  -2.051  0.00  0.00    -0.269 N 
ATOM     22  H   LIG    1       -2.245   5.984  -2.071  0.00  0.00    +0.153 HD
ATOM     23  C   LIG    1       -0.955   4.540  -2.631  0.00  0.00    +0.401 C 
ATOM     24  O   LIG    1       -0.733   3.345  -2.606  0.00  0.00    -0.226 OA
BRANCH  23  25
ATOM     25  O   LIG    1       -0.088   5.373  -3.236  0.00  0.00    -0.446 OA
BRANCH  25  26
ATOM     26  C   LIG    1        1.090   4.774  -3.839  0.00  0.00    +0.269 C 
BRANCH  26  27
ATOM     27  C   LIG    1        1.937   5.852  -4.465  0.00  0.00    -0.010 A 
ATOM     28  C   LIG    1        1.735   6.212  -5.785  0.00  0.00    +0.007 A 
ATOM     29  C   LIG    1        2.509   7.204  -6.357  0.00  0.00    +0.000 A 
ATOM     30  C   LIG    1        3.491   7.830  -5.613  0.00  0.00    +0.000 A 
ATOM     31  C   LIG    1        3.697   7.466  -4.295  0.00  0.00    +0.000 A 
ATOM     32  C   LIG    1        2.920   6.478  -3.721  0.00  0.00    +0.007 A 
ENDBRANCH  26  27
ENDBRANCH  25  26
ENDBRANCH  23  25
ENDBRANCH   1  21
BRANCH   1  33
ATOM     33  C   LIG    1       -2.553   3.869   0.045  0.00  0.00    +0.067 C 
BRANCH  33  34
ATOM     34  C   LIG    1       -1.238   3.133   0.030  0.00  0.00    -0.045 A 
ATOM     35  C   LIG    1       -1.219   1.751   0.017  0.00  0.00    +0.004 A 
ATOM     36  C   LIG    1       -0.013   1.076   0.008  0.00  0.00    +0.000 A 
ATOM     37  C   LIG    1        1.175   1.783   0.000  0.00  0.00    +0.000 A 
ATOM     38  C   LIG    1        1.156   3.165   0.008  0.00  0.00    +0.000 A 
ATOM     39  C   LIG    1       -0.050   3.840   0.022  0.00  0.00    +0.004 A 
ENDBRANCH  33  34
ENDBRANCH   1  33
TORSDOF 14
