REMARK  Name = ZINC03873953
REMARK                            x       y       z     vdW  Elec       q    Type
REMARK                         _______ _______ _______ _____ _____    ______ ____
ROOT
ATOM      1  C   LIG    1        1.801  -2.650  -0.674  0.00  0.00    +0.091 A 
ATOM      2  C   LIG    1        2.924  -2.973  -1.425  0.00  0.00    +0.145 A 
ATOM      3  C   LIG    1        3.973  -3.653  -0.837  0.00  0.00    +0.047 A 
ATOM      4  C   LIG    1        3.906  -4.012   0.497  0.00  0.00    +0.059 A 
ATOM      5  C   LIG    1        2.789  -3.691   1.247  0.00  0.00    +0.047 A 
ATOM      6  C   LIG    1        1.739  -3.006   0.667  0.00  0.00    +0.145 A 
ENDROOT
BRANCH   4   7
ATOM      7  C   LIG    1        5.052  -4.754   1.134  0.00  0.00    +0.418 C 
ATOM      8  F   LIG    1        5.692  -5.540   0.170  0.00  0.00    -0.166 F 
ATOM      9  F   LIG    1        4.564  -5.575   2.156  0.00  0.00    -0.166 F 
ATOM     10  F   LIG    1        5.963  -3.836   1.668  0.00  0.00    -0.166 F 
ENDBRANCH   4   7
BRANCH   2  11
ATOM     11  N   LIG    1        2.996  -2.591  -2.853  0.00  0.00    +0.008 N 
ATOM     12  O   LIG    1        3.974  -2.873  -3.505  0.00  0.00    -0.130 OA
BRANCH  11  13
ATOM     13  O   LIG    1        2.077  -1.996  -3.366  0.00  0.00    -0.396 OA
ATOM     14  H   LIG    1        1.319  -1.778  -2.860  0.00  0.00    +0.329 HD
ENDBRANCH  11  13
ENDBRANCH   2  11
BRANCH   6  15
ATOM     15  N   LIG    1        0.547  -2.657   1.473  0.00  0.00    +0.008 N 
ATOM     16  O   LIG    1        0.495  -2.968   2.640  0.00  0.00    -0.130 OA
BRANCH  15  17
ATOM     17  O   LIG    1       -0.373  -2.062   0.964  0.00  0.00    -0.396 OA
ATOM     18  H   LIG    1       -0.333  -1.821   0.059  0.00  0.00    +0.329 HD
ENDBRANCH  15  17
ENDBRANCH   6  15
BRANCH   1  19
ATOM     19  N   LIG    1        0.738  -1.962  -1.265  0.00  0.00    -0.326 N 
BRANCH  19  20
ATOM     20  C   LIG    1        0.718  -0.497  -1.257  0.00  0.00    +0.105 C 
BRANCH  20  22
ATOM     21  C   LIG    1       -0.019   1.526   0.010  0.00  0.00    +0.005 C 
ATOM     22  C   LIG    1        0.002  -0.004   0.002  0.00  0.00    +0.015 C 
ENDBRANCH  20  22
ENDBRANCH  19  20
BRANCH  19  23
ATOM     23  C   LIG    1       -0.357  -2.706  -1.893  0.00  0.00    +0.105 C 
BRANCH  23  24
ATOM     24  C   LIG    1       -0.029  -2.949  -3.367  0.00  0.00    +0.015 C 
ATOM     25  C   LIG    1       -1.172  -3.726  -4.023  0.00  0.00    +0.005 C 
ENDBRANCH  23  24
ENDBRANCH  19  23
ENDBRANCH   1  19
TORSDOF 10
