REMARK  Name = ZINC03897192
REMARK                            x       y       z     vdW  Elec       q    Type
REMARK                         _______ _______ _______ _____ _____    ______ ____
ROOT
ATOM      1  C   LIG    1        0.361   2.059  -2.715  0.00  0.00    +0.012 C 
ATOM      2  C   LIG    1        1.240   1.436  -1.637  0.00  0.00    -0.026 C 
ATOM      3  C   LIG    1        2.692   1.883  -1.836  0.00  0.00    +0.010 C 
ATOM      4  C   LIG    1        3.234   1.374  -3.169  0.00  0.00    +0.032 C 
ATOM      5  C   LIG    1        3.136  -0.147  -3.254  0.00  0.00    +0.115 C 
ATOM      6  C   LIG    1        1.688  -0.597  -3.042  0.00  0.00    +0.035 C 
ATOM      7  C   LIG    1        0.775   1.859  -0.241  0.00  0.00    +0.001 C 
ATOM      8  C   LIG    1        0.860   3.354   0.004  0.00  0.00    +0.005 C 
ATOM      9  C   LIG    1        0.603   3.685   1.487  0.00  0.00    +0.010 C 
ATOM     10  C   LIG    1       -0.224   2.621   2.153  0.00  0.00    +0.004 C 
ATOM     11  C   LIG    1        0.706   1.529   2.721  0.00  0.00    +0.014 C 
ATOM     12  C   LIG    1       -1.268   2.020   1.192  0.00  0.00    +0.075 C 
ATOM     13  C   LIG    1       -2.080   1.115   2.133  0.00  0.00    +0.036 C 
ATOM     14  C   LIG    1       -2.212   1.980   3.415  0.00  0.00    +0.011 C 
ATOM     15  C   LIG    1       -1.092   3.049   3.347  0.00  0.00    +0.027 C 
ATOM     16  C   LIG    1       -0.649   1.359  -0.005  0.00  0.00    +0.025 C 
ATOM     17  C   LIG    1       -0.647  -0.165   0.013  0.00  0.00    +0.007 C 
ATOM     18  C   LIG    1       -0.194  -0.639  -1.378  0.00  0.00    +0.004 C 
ATOM     19  C   LIG    1        1.195  -0.094  -1.689  0.00  0.00    -0.002 C 
ENDROOT
BRANCH  15  20
ATOM     20  C   LIG    1       -1.678   4.429   3.199  0.00  0.00    -0.022 C 
ATOM     21  C   LIG    1       -1.583   5.428   4.073  0.00  0.00    +0.094 C 
ATOM     22  C   LIG    1       -2.288   6.602   3.553  0.00  0.00    +0.332 C 
ATOM     23  O   LIG    1       -2.821   6.323   2.349  0.00  0.00    -0.457 OA
ATOM     24  O   LIG    1       -2.380   7.671   4.125  0.00  0.00    -0.246 OA
ATOM     25  C   LIG    1       -2.478   4.946   2.026  0.00  0.00    +0.264 C 
ENDBRANCH  15  20
BRANCH   5  26
ATOM     26  O   LIG    1        3.972  -0.740  -2.258  0.00  0.00    -0.392 OA
ATOM     27  H   LIG    1        4.908  -0.511  -2.343  0.00  0.00    +0.210 HD
ENDBRANCH   5  26
BRANCH  12  28
ATOM     28  O   LIG    1       -2.149   3.060   0.709  0.00  0.00    -0.388 OA
ATOM     29  H   LIG    1       -2.855   2.740   0.130  0.00  0.00    +0.210 HD
ENDBRANCH  12  28
TORSDOF 3
