REMARK  Name = ZINC04025279
REMARK                            x       y       z     vdW  Elec       q    Type
REMARK                         _______ _______ _______ _____ _____    ______ ____
ROOT
ATOM      1  C   LIG    1        4.665   6.019  -1.081  0.00  0.00    +0.129 A 
ATOM      2  C   LIG    1        3.427   6.572  -0.794  0.00  0.00    +0.093 A 
ATOM      3  C   LIG    1        2.319   5.754  -0.618  0.00  0.00    +0.147 A 
ATOM      4  C   LIG    1        2.468   4.364  -0.732  0.00  0.00    +0.067 A 
ATOM      5  C   LIG    1        3.721   3.812  -1.021  0.00  0.00    +0.136 A 
ATOM      6  C   LIG    1        1.290   3.498  -0.543  0.00  0.00    +0.003 A 
ATOM      7  C   LIG    1        1.370   2.114  -0.642  0.00  0.00    +0.009 A 
ATOM      8  C   LIG    1        0.235   1.352  -0.455  0.00  0.00    +0.001 A 
ATOM      9  C   LIG    1       -0.983   1.954  -0.175  0.00  0.00    +0.001 A 
ATOM     10  C   LIG    1       -1.081   3.325  -0.068  0.00  0.00    +0.015 A 
ATOM     11  C   LIG    1        0.053   4.113  -0.253  0.00  0.00    +0.067 A 
ATOM     12  C   LIG    1        0.005   5.578  -0.155  0.00  0.00    +0.345 A 
ATOM     13  O   LIG    1       -1.048   6.133   0.094  0.00  0.00    -0.245 OA
ATOM     14  O   LIG    1        1.117   6.307  -0.338  0.00  0.00    -0.421 OA
ATOM     15  C   LIG    1        4.814   4.643  -1.194  0.00  0.00    +0.092 A 
ENDROOT
BRANCH   1  16
ATOM     16  O   LIG    1        5.741   6.830  -1.253  0.00  0.00    -0.478 OA
BRANCH  16  18
ATOM     17  C   LIG    1        7.150   5.887  -2.975  0.00  0.00    +0.064 C 
ATOM     18  C   LIG    1        7.001   6.195  -1.484  0.00  0.00    +0.278 C 
BRANCH  18  19
ATOM     19  C   LIG    1        8.113   7.113  -1.047  0.00  0.00    +0.346 C 
ATOM     20  O   LIG    1        7.854   8.199  -0.585  0.00  0.00    -0.247 OA
BRANCH  19  21
ATOM     21  O   LIG    1        9.392   6.724  -1.172  0.00  0.00    -0.478 OA
ATOM     22  H   LIG    1        9.593   5.882  -1.530  0.00  0.00    +0.295 HD
ENDBRANCH  19  21
ENDBRANCH  18  19
ENDBRANCH  16  18
ENDBRANCH   1  16
BRANCH   5  23
ATOM     23  O   LIG    1        3.864   2.466  -1.130  0.00  0.00    -0.477 OA
BRANCH  23  24
ATOM     24  C   LIG    1        5.182   1.972  -1.377  0.00  0.00    +0.278 C 
ATOM     25  C   LIG    1        5.482   2.047  -2.875  0.00  0.00    +0.064 C 
BRANCH  24  26
ATOM     26  C   LIG    1        5.275   0.540  -0.917  0.00  0.00    +0.346 C 
ATOM     27  O   LIG    1        4.290  -0.030  -0.512  0.00  0.00    -0.247 OA
BRANCH  26  28
ATOM     28  O   LIG    1        6.453  -0.102  -0.957  0.00  0.00    -0.478 OA
ATOM     29  H   LIG    1        7.217   0.339  -1.271  0.00  0.00    +0.295 HD
ENDBRANCH  26  28
ENDBRANCH  24  26
ENDBRANCH  23  24
ENDBRANCH   5  23
TORSDOF 8
