REMARK  Name = ZINC03995935
REMARK                            x       y       z     vdW  Elec       q    Type
REMARK                         _______ _______ _______ _____ _____    ______ ____
ROOT
ATOM      1  C   LIG    1       -2.513   0.977   0.019  0.00  0.00    +0.126 C 
ENDROOT
BRANCH   1   2
ATOM      2  C   LIG    1       -1.220   1.750   0.017  0.00  0.00    -0.030 A 
ATOM      3  C   LIG    1       -0.013   1.076   0.008  0.00  0.00    +0.008 A 
ATOM      4  C   LIG    1        1.175   1.782   0.000  0.00  0.00    +0.046 A 
ATOM      5  C   LIG    1        1.155   3.169   0.008  0.00  0.00    +0.117 A 
ATOM      6  C   LIG    1       -0.057   3.844   0.023  0.00  0.00    +0.046 A 
ATOM      7  C   LIG    1       -1.242   3.133   0.031  0.00  0.00    +0.008 A 
BRANCH   5   8
ATOM      8  O   LIG    1        2.322   3.866   0.000  0.00  0.00    -0.507 OA
ATOM      9  H   LIG    1        2.651   4.073  -0.885  0.00  0.00    +0.292 HD
ENDBRANCH   5   8
ENDBRANCH   1   2
BRANCH   1  10
ATOM     10  C   LIG    1       -3.285   1.314   1.226  0.00  0.00    +0.071 C 
ATOM     11  N   LIG    1       -3.880   1.574   2.158  0.00  0.00    -0.196 NA
ENDBRANCH   1  10
BRANCH   1  12
ATOM     12  C   LIG    1       -3.327   1.342  -1.225  0.00  0.00    +0.058 C 
BRANCH  12  18
ATOM     13  C   LIG    1       -4.526  -0.730  -1.956  0.00  0.00    +0.007 A 
ATOM     14  C   LIG    1       -5.655  -1.524  -2.010  0.00  0.00    +0.045 A 
ATOM     15  C   LIG    1       -6.829  -1.101  -1.403  0.00  0.00    +0.117 A 
ATOM     16  C   LIG    1       -6.864   0.117  -0.738  0.00  0.00    +0.045 A 
ATOM     17  C   LIG    1       -5.730   0.904  -0.682  0.00  0.00    +0.007 A 
ATOM     18  C   LIG    1       -4.562   0.480  -1.288  0.00  0.00    -0.046 A 
BRANCH  15  19
ATOM     19  O   LIG    1       -7.942  -1.878  -1.459  0.00  0.00    -0.507 OA
ATOM     20  H   LIG    1       -8.507  -1.701  -2.224  0.00  0.00    +0.292 HD
ENDBRANCH  15  19
ENDBRANCH  12  18
ENDBRANCH   1  12
TORSDOF 6
