REMARK  Name = ZINC03927469
REMARK                            x       y       z     vdW  Elec       q    Type
REMARK                         _______ _______ _______ _____ _____    ______ ____
ROOT
ATOM      1  C   LIG    1       -1.033   1.321  -4.802  0.00  0.00    +0.169 C 
ENDROOT
BRANCH   1   2
ATOM      2  N   LIG    1       -0.591   2.035  -6.003  0.00  0.00    -0.302 N 
ATOM      3  H   LIG    1       -0.051   2.836  -5.920  0.00  0.00    +0.150 HD
ATOM      4  C   LIG    1       -0.935   1.577  -7.223  0.00  0.00    +0.234 C 
ATOM      5  O   LIG    1       -1.611   0.575  -7.327  0.00  0.00    -0.274 OA
BRANCH   4   6
ATOM      6  C   LIG    1       -0.481   2.311  -8.459  0.00  0.00    +0.165 C 
BRANCH   6   7
ATOM      7  N   LIG    1       -0.982   1.619  -9.649  0.00  0.00    -0.288 N 
ATOM      8  H   LIG    1       -1.777   1.068  -9.591  0.00  0.00    +0.151 HD
ATOM      9  C   LIG    1       -0.336   1.749 -10.825  0.00  0.00    +0.303 C 
ATOM     10  N   LIG    1       -0.745   1.045 -11.900  0.00  0.00    -0.281 N 
ATOM     11  C   LIG    1        0.005   1.091 -13.165  0.00  0.00    +0.137 C 
ATOM     12  C   LIG    1        0.262  -0.353 -13.623  0.00  0.00    +0.179 C 
ATOM     13  O   LIG    1       -0.978  -1.066 -13.645  0.00  0.00    -0.377 OA
ATOM     14  C   LIG    1       -1.607  -1.186 -12.367  0.00  0.00    +0.179 C 
ATOM     15  C   LIG    1       -1.956   0.212 -11.843  0.00  0.00    +0.137 C 
ATOM     16  O   LIG    1        0.614   2.502 -10.917  0.00  0.00    -0.253 OA
ENDBRANCH   6   7
BRANCH   6  17
ATOM     17  C   LIG    1       -1.026   3.740  -8.433  0.00  0.00    +0.067 C 
BRANCH  17  18
ATOM     18  C   LIG    1       -0.473   4.511  -9.604  0.00  0.00    -0.045 A 
ATOM     19  C   LIG    1        0.711   5.212  -9.472  0.00  0.00    +0.004 A 
ATOM     20  C   LIG    1        1.222   5.915 -10.547  0.00  0.00    +0.000 A 
ATOM     21  C   LIG    1        0.543   5.925 -11.752  0.00  0.00    +0.000 A 
ATOM     22  C   LIG    1       -0.644   5.227 -11.882  0.00  0.00    +0.000 A 
ATOM     23  C   LIG    1       -1.151   4.521 -10.808  0.00  0.00    +0.004 A 
ENDBRANCH  17  18
ENDBRANCH   6  17
ENDBRANCH   4   6
ENDBRANCH   1   2
BRANCH   1  26
ATOM     24  N   LIG    1       -1.460   1.841  -2.422  0.00  0.00    -0.308 N 
ATOM     25  H   LIG    1       -1.705   0.911  -2.295  0.00  0.00    +0.149 HD
ATOM     26  C   LIG    1       -1.079   2.278  -3.639  0.00  0.00    +0.234 C 
ATOM     27  O   LIG    1       -0.773   3.441  -3.797  0.00  0.00    -0.274 OA
BRANCH  24  28
ATOM     28  C   LIG    1       -1.505   2.771  -1.291  0.00  0.00    +0.113 C 
BRANCH  28  29
ATOM     29  C   LIG    1       -1.345   1.992   0.016  0.00  0.00    +0.243 C 
BRANCH  29  30
ATOM     30  O   LIG    1       -2.406   1.042   0.138  0.00  0.00    -0.379 OA
ATOM     31  H   LIG    1       -2.438   0.394  -0.579  0.00  0.00    +0.211 HD
ENDBRANCH  29  30
BRANCH  29  32
ATOM     32  C   LIG    1       -0.023   1.269   0.012  0.00  0.00    +0.338 C 
ATOM     33  O   LIG    1        0.006   0.061   0.012  0.00  0.00    -0.248 OA
BRANCH  32  34
ATOM     34  O   LIG    1        1.123   1.968   0.002  0.00  0.00    -0.460 OA
BRANCH  34  36
ATOM     35  C   LIG    1        2.782   0.938  -1.454  0.00  0.00    +0.052 C 
ATOM     36  C   LIG    1        2.360   1.206  -0.008  0.00  0.00    +0.170 C 
ATOM     37  C   LIG    1        3.455   2.002   0.704  0.00  0.00    +0.052 C 
ENDBRANCH  34  36
ENDBRANCH  32  34
ENDBRANCH  29  32
ENDBRANCH  28  29
BRANCH  28  38
ATOM     38  C   LIG    1       -2.848   3.504  -1.286  0.00  0.00    +0.029 C 
BRANCH  38  39
ATOM     39  C   LIG    1       -2.954   4.381  -2.535  0.00  0.00    -0.009 C 
ATOM     40  C   LIG    1       -1.892   5.481  -2.478  0.00  0.00    +0.003 C 
ATOM     41  C   LIG    1       -1.998   6.358  -3.727  0.00  0.00    +0.000 C 
ATOM     42  C   LIG    1       -3.389   6.994  -3.787  0.00  0.00    +0.000 C 
ATOM     43  C   LIG    1       -4.451   5.894  -3.844  0.00  0.00    +0.000 C 
ATOM     44  C   LIG    1       -4.345   5.017  -2.595  0.00  0.00    +0.003 C 
ENDBRANCH  38  39
ENDBRANCH  28  38
ENDBRANCH  24  28
ENDBRANCH   1  26
BRANCH   1  45
ATOM     45  C   LIG    1       -0.053   0.188  -4.493  0.00  0.00    +0.100 C 
BRANCH  45  46
ATOM     46  S   LIG    1        0.003  -0.963  -5.893  0.00  0.00    -0.162 S 
ATOM     47  C   LIG    1        1.193  -2.229  -5.374  0.00  0.00    +0.084 C 
ENDBRANCH  45  46
ENDBRANCH   1  45
TORSDOF 16
