REMARK  Name = ZINC03933534
REMARK                            x       y       z     vdW  Elec       q    Type
REMARK                         _______ _______ _______ _____ _____    ______ ____
ROOT
ATOM      1  N   LIG    1        0.139  -5.597  -0.196  0.00  0.00    -0.265 N 
ATOM      2  C   LIG    1        1.369  -5.047  -0.213  0.00  0.00    +0.244 C 
ATOM      3  O   LIG    1        2.352  -5.757  -0.320  0.00  0.00    -0.270 OA
ENDROOT
BRANCH   1  12
ATOM      4  C   LIG    1       -5.094  -4.269   4.051  0.00  0.00    +0.109 C 
ATOM      5  C   LIG    1       -3.935  -4.438   3.103  0.00  0.00    +0.217 C 
ATOM      6  N   LIG    1       -3.933  -3.792   1.921  0.00  0.00    -0.271 N 
ATOM      7  C   LIG    1       -4.939  -2.817   1.494  0.00  0.00    +0.118 C 
ATOM      8  C   LIG    1       -4.500  -2.371   0.090  0.00  0.00    +0.056 C 
ATOM      9  C   LIG    1       -3.235  -3.155  -0.181  0.00  0.00    -0.024 A 
ATOM     10  C   LIG    1       -2.397  -3.169  -1.280  0.00  0.00    +0.007 A 
ATOM     11  C   LIG    1       -1.273  -3.972  -1.287  0.00  0.00    +0.024 A 
ATOM     12  C   LIG    1       -0.993  -4.776  -0.190  0.00  0.00    +0.039 A 
ATOM     13  C   LIG    1       -1.835  -4.766   0.911  0.00  0.00    +0.047 A 
ATOM     14  C   LIG    1       -2.965  -3.950   0.923  0.00  0.00    +0.041 A 
ATOM     15  O   LIG    1       -3.004  -5.154   3.405  0.00  0.00    -0.276 OA
ENDBRANCH   1  12
BRANCH   1  16
ATOM     16  C   LIG    1       -0.012  -7.054  -0.183  0.00  0.00    +0.078 C 
ATOM     17  C   LIG    1        0.546  -7.638  -1.484  0.00  0.00    +0.004 C 
ATOM     18  C   LIG    1        0.458  -9.165  -1.430  0.00  0.00    -0.077 C 
ATOM     19  N   LIG    1        1.240  -9.664  -0.293  0.00  0.00    +0.380 N 
ATOM     20  H   LIG    1        2.193  -9.345  -0.376  0.00  0.00    -0.082 HD
ATOM     21  C   LIG    1        0.666  -9.165   0.963  0.00  0.00    -0.077 C 
ATOM     22  C   LIG    1        0.762  -7.639   1.001  0.00  0.00    +0.004 C 
BRANCH  19  23
ATOM     23  C   LIG    1        1.216 -11.133  -0.291  0.00  0.00    -0.079 C 
BRANCH  23  24
ATOM     24  C   LIG    1        2.131 -11.656   0.818  0.00  0.00    -0.015 C 
BRANCH  24  25
ATOM     25  C   LIG    1        2.106 -13.186   0.820  0.00  0.00    -0.013 C 
ATOM     26  C   LIG    1        2.832 -13.741  -0.430  0.00  0.00    +0.003 C 
ATOM     27  C   LIG    1        3.242 -15.166   0.017  0.00  0.00    +0.000 C 
ATOM     28  C   LIG    1        3.644 -14.997   1.497  0.00  0.00    +0.000 C 
ATOM     29  C   LIG    1        2.921 -13.738   2.007  0.00  0.00    +0.003 C 
ENDBRANCH  24  25
ENDBRANCH  23  24
ENDBRANCH  19  23
ENDBRANCH   1  16
BRANCH   2  30
ATOM     30  C   LIG    1        1.524  -3.595  -0.104  0.00  0.00    +0.068 C 
ATOM     31  C   LIG    1        2.745  -3.037  -0.224  0.00  0.00    +0.013 C 
BRANCH  31  32
ATOM     32  C   LIG    1        2.918  -1.591  -0.004  0.00  0.00    -0.024 A 
ATOM     33  C   LIG    1        1.842  -0.815   0.441  0.00  0.00    +0.008 A 
ATOM     34  C   LIG    1        2.004   0.539   0.648  0.00  0.00    +0.002 A 
ATOM     35  C   LIG    1        3.227   1.139   0.419  0.00  0.00    +0.019 A 
ATOM     36  C   LIG    1        4.311   0.377  -0.025  0.00  0.00    +0.052 A 
ATOM     37  C   LIG    1        4.158  -0.992  -0.232  0.00  0.00    +0.026 A 
BRANCH  36  38
ATOM     38  C   LIG    1        5.577   1.002  -0.263  0.00  0.00    +0.099 C 
ATOM     39  N   LIG    1        6.582   1.498  -0.451  0.00  0.00    -0.191 NA
ENDBRANCH  36  38
ENDBRANCH  31  32
ENDBRANCH   2  30
TORSDOF 8
