REMARK  Name = ZINC04097225
REMARK                            x       y       z     vdW  Elec       q    Type
REMARK                         _______ _______ _______ _____ _____    ______ ____
ROOT
ATOM      1  C   LIG    1        0.613  -0.506   1.297  0.00  0.00    +0.125 C 
ATOM      2  C   LIG    1        0.640  -2.032   1.391  0.00  0.00    +0.101 C 
ATOM      3  C   LIG    1        2.032  -2.636   1.629  0.00  0.00    +0.068 C 
ATOM      4  C   LIG    1        2.118  -2.814   3.127  0.00  0.00    +0.016 C 
ATOM      5  C   LIG    1        0.986  -2.337   3.687  0.00  0.00    +0.131 C 
ATOM      6  N   LIG    1        0.078  -1.808   2.733  0.00  0.00    -0.260 N 
ATOM      7  C   LIG    1       -0.052  -0.456   2.650  0.00  0.00    +0.228 C 
ATOM      8  O   LIG    1       -0.506   0.417   3.359  0.00  0.00    -0.275 OA
ENDROOT
BRANCH   1  10
ATOM      9  C   LIG    1       -0.251   1.544   0.159  0.00  0.00    +0.038 C 
ATOM     10  C   LIG    1       -0.277   0.014   0.166  0.00  0.00    +0.125 C 
BRANCH  10  11
ATOM     11  O   LIG    1        0.206  -0.477  -1.085  0.00  0.00    -0.391 OA
ATOM     12  H   LIG    1       -0.311  -0.186  -1.849  0.00  0.00    +0.210 HD
ENDBRANCH  10  11
ENDBRANCH   1  10
BRANCH   5  13
ATOM     13  C   LIG    1        0.727  -2.367   5.073  0.00  0.00    +0.352 C 
ATOM     14  O   LIG    1        1.667  -2.789   5.918  0.00  0.00    -0.244 OA
BRANCH  13  15
ATOM     15  O   LIG    1       -0.459  -1.972   5.538  0.00  0.00    -0.476 OA
ATOM     16  H   LIG    1       -1.120  -1.676   4.944  0.00  0.00    +0.295 HD
ENDBRANCH  13  15
ENDBRANCH   5  13
BRANCH   4  17
ATOM     17  S   LIG    1        3.473  -3.527   4.000  0.00  0.00    -0.126 S 
BRANCH  17  18
ATOM     18  C   LIG    1        4.843  -2.377   3.698  0.00  0.00    +0.093 C 
BRANCH  18  19
ATOM     19  C   LIG    1        6.128  -2.945   4.305  0.00  0.00    +0.113 C 
BRANCH  19  20
ATOM     20  N   LIG    1        7.235  -2.017   4.061  0.00  0.00    -0.336 N 
ATOM     21  H   LIG    1        7.077  -1.190   3.578  0.00  0.00    +0.147 HD
BRANCH  20  22
ATOM     22  C   LIG    1        8.492  -2.315   4.516  0.00  0.00    +0.148 C 
ATOM     23  N   LIG    1        9.469  -1.495   4.301  0.00  0.00    -0.393 N 
ATOM     24  H   LIG    1       10.359  -1.707   4.623  0.00  0.00    +0.156 HD
ATOM     25  H   LIG    1        9.312  -0.669   3.818  0.00  0.00    +0.156 HD
ENDBRANCH  20  22
ENDBRANCH  19  20
ENDBRANCH  18  19
ENDBRANCH  17  18
ENDBRANCH   4  17
TORSDOF 9
