REMARK  Name = ZINC03960657
REMARK                            x       y       z     vdW  Elec       q    Type
REMARK                         _______ _______ _______ _____ _____    ______ ____
ROOT
ATOM      1  C   LIG    1        0.226  -5.652  -0.612  0.00  0.00    +0.031 C 
ATOM      2  C   LIG    1       -0.680  -6.107   0.534  0.00  0.00    +0.016 C 
ATOM      3  C   LIG    1       -1.284  -7.472   0.195  0.00  0.00    +0.017 C 
ATOM      4  C   LIG    1       -0.781  -7.927  -1.176  0.00  0.00    +0.050 C 
ATOM      5  C   LIG    1       -1.199  -6.907  -2.237  0.00  0.00    +0.017 C 
ATOM      6  C   LIG    1        0.745  -8.037  -1.148  0.00  0.00    +0.017 C 
ATOM      7  C   LIG    1       -0.595  -5.542  -1.899  0.00  0.00    +0.016 C 
ATOM      8  C   LIG    1        1.349  -6.673  -0.810  0.00  0.00    +0.016 C 
ENDROOT
BRANCH   1  14
ATOM      9  C   LIG    1       -1.249  -2.884  -0.582  0.00  0.00    +0.152 C 
ATOM     10  N   LIG    1        0.164  -3.117  -0.272  0.00  0.00    -0.314 N 
ATOM     11  C   LIG    1        1.096  -2.180   0.084  0.00  0.00    +0.165 A 
ATOM     12  N   LIG    1        2.229  -2.819   0.277  0.00  0.00    -0.129 NA
ATOM     13  N   LIG    1        2.060  -4.075   0.061  0.00  0.00    -0.133 NA
ATOM     14  C   LIG    1        0.821  -4.309  -0.279  0.00  0.00    +0.140 A 
BRANCH  11  15
ATOM     15  C   LIG    1        0.871  -0.725   0.230  0.00  0.00    +0.031 A 
ATOM     16  C   LIG    1       -0.344  -0.161  -0.164  0.00  0.00    +0.012 A 
ATOM     17  C   LIG    1       -0.547   1.196  -0.026  0.00  0.00    +0.001 A 
ATOM     18  C   LIG    1        0.449   1.998   0.501  0.00  0.00    +0.001 A 
ATOM     19  C   LIG    1        1.655   1.446   0.893  0.00  0.00    +0.013 A 
ATOM     20  C   LIG    1        1.871   0.089   0.761  0.00  0.00    +0.065 A 
BRANCH  20  21
ATOM     21  C   LIG    1        3.186  -0.511   1.189  0.00  0.00    +0.418 C 
ATOM     22  F   LIG    1        3.798  -1.125   0.090  0.00  0.00    -0.166 F 
ATOM     23  F   LIG    1        2.960  -1.463   2.189  0.00  0.00    -0.166 F 
ATOM     24  F   LIG    1        4.019   0.497   1.684  0.00  0.00    -0.166 F 
ENDBRANCH  20  21
ENDBRANCH  11  15
ENDBRANCH   1  14
BRANCH   4  25
ATOM     25  C   LIG    1       -1.376  -9.271  -1.509  0.00  0.00    +0.234 A 
ATOM     26  N   LIG    1       -2.650  -9.551  -1.619  0.00  0.00    -0.191 NA
ATOM     27  C   LIG    1       -2.707 -10.867  -1.927  0.00  0.00    +0.202 A 
ATOM     28  N   LIG    1       -1.476 -11.303  -1.985  0.00  0.00    -0.056 NA
ATOM     29  O   LIG    1       -0.702 -10.399  -1.754  0.00  0.00    -0.337 OA
BRANCH  27  30
ATOM     30  C   LIG    1       -3.936 -11.666  -2.156  0.00  0.00    +0.023 A 
ATOM     31  C   LIG    1       -5.189 -11.064  -2.055  0.00  0.00    +0.014 A 
ATOM     32  C   LIG    1       -6.330 -11.809  -2.274  0.00  0.00    +0.039 A 
ATOM     33  C   LIG    1       -6.231 -13.156  -2.584  0.00  0.00    +0.123 A 
ATOM     34  F   LIG    1       -7.350 -13.883  -2.792  0.00  0.00    -0.205 F 
ATOM     35  C   LIG    1       -4.987 -13.759  -2.680  0.00  0.00    +0.039 A 
ATOM     36  C   LIG    1       -3.841 -13.021  -2.467  0.00  0.00    +0.014 A 
ENDBRANCH  27  30
ENDBRANCH   4  25
TORSDOF 5
