REMARK  Name = ZINC03953037
REMARK                            x       y       z     vdW  Elec       q    Type
REMARK                         _______ _______ _______ _____ _____    ______ ____
ROOT
ATOM      1  C   LIG    1        0.617  -1.943  -1.137  0.00  0.00    -0.022 C 
ATOM      2  C   LIG    1        1.229  -2.527  -2.401  0.00  0.00    +0.098 C 
ATOM      3  N   LIG    1        1.218  -4.002  -2.373  0.00  0.00    -0.177 NA
ATOM      4  S   LIG    1        2.191  -4.696  -1.196  0.00  0.00    +0.067 S 
ATOM      5  C   LIG    1        2.006  -3.592   0.155  0.00  0.00    +0.146 A 
ATOM      6  S   LIG    1        2.616  -3.716   1.806  0.00  0.00    -0.049 S 
ATOM      7  C   LIG    1        1.973  -2.163   2.407  0.00  0.00    +0.144 A 
ATOM      8  C   LIG    1        1.336  -1.682   1.314  0.00  0.00    +0.040 A 
ATOM      9  O   LIG    1        1.591  -5.929  -0.825  0.00  0.00    -0.152 OA
ATOM     10  O   LIG    1        3.536  -4.593  -1.645  0.00  0.00    -0.152 OA
ATOM     11  C   LIG    1        1.329  -2.412   0.122  0.00  0.00    -0.025 A 
ENDROOT
BRANCH   1  12
ATOM     12  N   LIG    1        0.690  -0.478  -1.207  0.00  0.00    +0.384 N 
ATOM     13  H   LIG    1        0.330  -0.082  -0.351  0.00  0.00    -0.085 HD
ATOM     14  H   LIG    1        1.650  -0.194  -1.331  0.00  0.00    -0.085 HD
BRANCH  12  16
ATOM     15  C   LIG    1       -0.144   1.529  -2.336  0.00  0.00    -0.017 C 
ATOM     16  C   LIG    1       -0.112  -0.001  -2.341  0.00  0.00    -0.085 C 
ENDBRANCH  12  16
ENDBRANCH   1  12
BRANCH   7  17
ATOM     17  S   LIG    1        2.124  -1.445   4.009  0.00  0.00    +0.062 S 
ATOM     18  O   LIG    1        1.954  -0.044   3.844  0.00  0.00    -0.153 OA
ATOM     19  O   LIG    1        3.289  -2.007   4.598  0.00  0.00    -0.153 OA
BRANCH  17  20
ATOM     20  N   LIG    1        0.838  -1.975   4.907  0.00  0.00    -0.203 NA
ATOM     21  H   LIG    1        0.738  -1.689   5.828  0.00  0.00    +0.144 HD
ATOM     22  H   LIG    1        0.183  -2.572   4.511  0.00  0.00    +0.144 HD
ENDBRANCH  17  20
ENDBRANCH   7  17
BRANCH   3  23
ATOM     23  C   LIG    1        0.415  -4.800  -3.302  0.00  0.00    +0.111 C 
BRANCH  23  24
ATOM     24  C   LIG    1        1.192  -4.999  -4.605  0.00  0.00    +0.045 C 
BRANCH  24  25
ATOM     25  C   LIG    1        0.354  -5.833  -5.577  0.00  0.00    +0.161 C 
BRANCH  25  26
ATOM     26  O   LIG    1        1.080  -6.019  -6.793  0.00  0.00    -0.383 OA
ATOM     27  C   LIG    1        0.383  -6.790  -7.774  0.00  0.00    +0.193 C 
ENDBRANCH  25  26
ENDBRANCH  24  25
ENDBRANCH  23  24
ENDBRANCH   3  23
TORSDOF 8
