REMARK  Name = ZINC03873147
REMARK                            x       y       z     vdW  Elec       q    Type
REMARK                         _______ _______ _______ _____ _____    ______ ____
ROOT
ATOM      1  C   UNK A  1        7.793  -1.608   0.662  0.00  0.00    +0.017 C 
ENDROOT
BRANCH   1   2
ATOM      2  C   UNK A  1        7.601  -2.735  -0.320  0.00  0.00    +0.202 C 
ATOM      3  N   PRO A  2        8.623  -3.568  -0.597  0.00  0.00    -0.289 N 
ATOM      4  CD  PRO A  2        9.974  -3.497  -0.010  0.00  0.00    +0.108 C 
ATOM      5  CG  PRO A  2       10.536  -4.935  -0.133  0.00  0.00    +0.021 C 
ATOM      6  CB  PRO A  2        9.962  -5.378  -1.505  0.00  0.00    +0.035 C 
ATOM      7  CA  PRO A  2        8.574  -4.704  -1.530  0.00  0.00    +0.184 C 
ATOM      8  O   UNK A  1        6.527  -2.892  -0.860  0.00  0.00    -0.277 OA
BRANCH   7   9
ATOM      9  C   PRO A  2        8.273  -4.210  -2.922  0.00  0.00    +0.325 C 
ATOM     10  O   PRO A  2        8.633  -3.098  -3.266  0.00  0.00    -0.249 OA
BRANCH   9  11
ATOM     11  OXT PRO A  2        7.668  -4.924  -3.704  0.00  0.00    -0.479 OA
ATOM     12  HXT PRO A  2        7.390  -5.779  -3.439  0.00  0.00    +0.295 HD
ENDBRANCH   9  11
ENDBRANCH   7   9
ENDBRANCH   1   2
BRANCH   1  13
ATOM     13  N   UNK A  1        6.540  -0.851   0.789  0.00  0.00    +0.395 N 
ATOM     14  H   UNK A  1        6.691  -0.049   1.383  0.00  0.00    -0.084 HD
ATOM     15  H   UNK A  1        6.240  -0.542  -0.123  0.00  0.00    -0.084 HD
BRANCH  13  16
ATOM     16  C   UNK A  1        5.507  -1.710   1.381  0.00  0.00    +0.040 C 
BRANCH  16  17
ATOM     17  C   UNK A  1        5.899  -2.071   2.791  0.00  0.00    +0.291 C 
ATOM     18  O   UNK A  1        5.274  -2.922   3.399  0.00  0.00    -0.253 OA
BRANCH  17  19
ATOM     19  O   UNK A  1        6.843  -1.510   3.323  0.00  0.00    -0.482 OA
ATOM     20  H   UNK A  1        7.323  -0.856   2.855  0.00  0.00    +0.295 HD
ENDBRANCH  17  19
ENDBRANCH  16  17
BRANCH  16  21
ATOM     21  C   UNK A  1        4.171  -0.963   1.399  0.00  0.00    -0.000 C 
BRANCH  21  22
ATOM     22  C   UNK A  1        3.711  -0.707  -0.038  0.00  0.00    +0.034 C 
BRANCH  22  26
ATOM     23  C   UNK A  1       -0.017   1.378   0.010  0.00  0.00    +0.000 A 
ATOM     24  C   UNK A  1        1.171   2.086   0.002  0.00  0.00    +0.000 A 
ATOM     25  C   UNK A  1        2.377   1.411  -0.013  0.00  0.00    +0.003 A 
ATOM     26  C   UNK A  1        2.396   0.029  -0.020  0.00  0.00    -0.047 A 
ATOM     27  C   UNK A  1        1.208  -0.679  -0.012  0.00  0.00    +0.003 A 
ATOM     28  C   UNK A  1        0.002  -0.004   0.002  0.00  0.00    +0.000 A 
ENDBRANCH  22  26
ENDBRANCH  21  22
ENDBRANCH  16  21
ENDBRANCH  13  16
ENDBRANCH   1  13
BRANCH   1  29
ATOM     29  C   UNK A  1        8.902  -0.680   0.163  0.00  0.00    -0.007 C 
BRANCH  29  30
ATOM     30  C   UNK A  1        9.182   0.393   1.217  0.00  0.00    -0.003 C 
BRANCH  30  31
ATOM     31  C   UNK A  1       10.291   1.321   0.718  0.00  0.00    -0.020 C 
BRANCH  31  32
ATOM     32  C   UNK A  1       10.572   2.394   1.772  0.00  0.00    -0.086 C 
BRANCH  32  33
ATOM     33  N   UNK A  1       11.637   3.285   1.293  0.00  0.00    +0.378 N 
ATOM     34  H   UNK A  1       11.822   3.992   1.988  0.00  0.00    -0.090 HD
ATOM     35  H   UNK A  1       11.345   3.726   0.434  0.00  0.00    -0.090 HD
ATOM     36  H   UNK A  1       12.475   2.749   1.127  0.00  0.00    -0.090 HD
ENDBRANCH  32  33
ENDBRANCH  31  32
ENDBRANCH  30  31
ENDBRANCH  29  30
ENDBRANCH   1  29
TORSDOF 15
