REMARK  Name = ZINC03995905
REMARK                            x       y       z     vdW  Elec       q    Type
REMARK                         _______ _______ _______ _____ _____    ______ ____
ROOT
ATOM      1  C   LIG    1        0.710  -0.473  -1.148  0.00  0.00    +0.348 C 
ATOM      2  C   LIG    1        0.319   0.095  -2.519  0.00  0.00    +0.321 C 
ATOM      3  O   LIG    1        0.381   1.524  -2.447  0.00  0.00    -0.481 OA
ATOM      4  C   LIG    1        1.486   2.059  -1.861  0.00  0.00    +0.162 A 
ATOM      5  C   LIG    1        1.789   3.396  -2.072  0.00  0.00    +0.049 A 
ATOM      6  C   LIG    1        2.906   3.955  -1.481  0.00  0.00    +0.004 A 
ATOM      7  C   LIG    1        3.725   3.183  -0.678  0.00  0.00    +0.004 A 
ATOM      8  C   LIG    1        3.430   1.850  -0.464  0.00  0.00    +0.049 A 
ATOM      9  C   LIG    1        2.311   1.283  -1.055  0.00  0.00    +0.166 A 
ATOM     10  O   LIG    1        2.038  -0.033  -0.842  0.00  0.00    -0.444 OA
ENDROOT
BRANCH   1  11
ATOM     11  C   LIG    1        0.669  -1.978  -1.190  0.00  0.00    +0.316 C 
ATOM     12  N   LIG    1        0.230  -2.642  -2.234  0.00  0.00    -0.270 N 
ATOM     13  H   LIG    1       -0.102  -2.244  -3.053  0.00  0.00    +0.304 HD
ATOM     14  C   LIG    1        0.320  -4.086  -1.964  0.00  0.00    +0.276 C 
ATOM     15  C   LIG    1        0.906  -4.142  -0.538  0.00  0.00    +0.268 C 
ATOM     16  N   LIG    1        1.076  -2.723  -0.189  0.00  0.00    -0.231 N 
ATOM     17  H   LIG    1        1.432  -2.389   0.650  0.00  0.00    +0.291 HD
ENDBRANCH   1  11
BRANCH   1  19
ATOM     18  C   LIG    1        0.117  -0.423   1.174  0.00  0.00    +0.199 C 
ATOM     19  O   LIG    1       -0.197   0.006  -0.152  0.00  0.00    -0.331 OA
ENDBRANCH   1  19
TORSDOF 2
