REMARK  Name = ZINC03986654
REMARK                            x       y       z     vdW  Elec       q    Type
REMARK                         _______ _______ _______ _____ _____    ______ ____
ROOT
ATOM      1  C   LIG    1       -1.065  -0.752  -0.279  0.00  0.00    +0.045 C 
ATOM      2  C   LIG    1        0.155   0.129  -0.342  0.00  0.00    -0.029 A 
ATOM      3  C   LIG    1        1.401  -0.433  -0.552  0.00  0.00    +0.006 A 
ATOM      4  C   LIG    1        2.523   0.367  -0.611  0.00  0.00    +0.013 A 
ATOM      5  C   LIG    1        2.404   1.750  -0.458  0.00  0.00    +0.039 A 
ATOM      6  C   LIG    1        1.147   2.317  -0.245  0.00  0.00    +0.036 A 
ATOM      7  C   LIG    1        0.025   1.504  -0.188  0.00  0.00    +0.036 A 
ENDROOT
BRANCH   5   8
ATOM      8  C   LIG    1        3.605   2.609  -0.519  0.00  0.00    +0.249 C 
ATOM      9  N   LIG    1        4.818   2.059  -0.725  0.00  0.00    -0.264 N 
ATOM     10  H   LIG    1        4.902   1.099  -0.832  0.00  0.00    +0.157 HD
ATOM     11  O   LIG    1        3.498   3.813  -0.385  0.00  0.00    -0.270 OA
BRANCH   9  12
ATOM     12  C   LIG    1        5.950   2.869  -0.783  0.00  0.00    +0.168 A 
ATOM     13  C   LIG    1        5.995   4.283  -0.647  0.00  0.00    +0.088 A 
ATOM     14  C   LIG    1        7.308   4.581  -0.778  0.00  0.00    +0.232 A 
ATOM     15  O   LIG    1        7.948   3.419  -0.974  0.00  0.00    -0.361 OA
ATOM     16  N   LIG    1        7.185   2.481  -0.969  0.00  0.00    -0.063 NA
ENDBRANCH   9  12
ENDBRANCH   5   8
BRANCH   7  17
ATOM     17  N   LIG    1       -1.237   2.068   0.019  0.00  0.00    -0.298 N 
ATOM     18  H   LIG    1       -2.029   1.623  -0.321  0.00  0.00    +0.154 HD
BRANCH  17  19
ATOM     19  C   LIG    1       -1.357   3.260   0.708  0.00  0.00    +0.146 A 
ATOM     20  C   LIG    1       -2.603   3.908   0.809  0.00  0.00    +0.131 A 
ATOM     21  C   LIG    1       -2.661   5.117   1.528  0.00  0.00    +0.142 A 
ATOM     22  N   LIG    1       -1.544   5.596   2.068  0.00  0.00    -0.220 NA
ATOM     23  C   LIG    1       -0.399   4.955   1.942  0.00  0.00    +0.225 A 
ATOM     24  N   LIG    1       -0.295   3.819   1.283  0.00  0.00    -0.219 NA
BRANCH  20  25
ATOM     25  C   LIG    1       -3.776   3.352   0.203  0.00  0.00    +0.106 C 
ATOM     26  N   LIG    1       -4.706   2.910  -0.277  0.00  0.00    -0.191 NA
ENDBRANCH  20  25
BRANCH  21  27
ATOM     27  N   LIG    1       -3.855   5.795   1.667  0.00  0.00    -0.326 N 
ATOM     28  H   LIG    1       -4.665   5.438   1.270  0.00  0.00    +0.148 HD
BRANCH  27  29
ATOM     29  C   LIG    1       -3.899   7.056   2.413  0.00  0.00    +0.066 C 
ATOM     30  C   LIG    1       -5.313   7.279   2.952  0.00  0.00    +0.027 C 
ATOM     31  C   LIG    1       -3.518   8.211   1.485  0.00  0.00    +0.027 C 
ENDBRANCH  27  29
ENDBRANCH  21  27
ENDBRANCH  17  19
ENDBRANCH   7  17
TORSDOF 7
