REMARK  Name = ZINC03966770
REMARK                            x       y       z     vdW  Elec       q    Type
REMARK                         _______ _______ _______ _____ _____    ______ ____
ROOT
ATOM      1  C   LIG    1        2.719  -8.541   4.363  0.00  0.00    +0.135 A 
ATOM      2  C   LIG    1        3.836  -9.312   4.106  0.00  0.00    +0.063 A 
ATOM      3  C   LIG    1        3.699 -10.661   3.835  0.00  0.00    +0.124 A 
ATOM      4  C   LIG    1        2.445 -11.243   3.819  0.00  0.00    +0.034 A 
ATOM      5  C   LIG    1        1.324 -10.478   4.075  0.00  0.00    +0.027 A 
ATOM      6  C   LIG    1        1.458  -9.123   4.354  0.00  0.00    +0.055 A 
ENDROOT
BRANCH   1   7
ATOM      7  S   LIG    1        2.894  -6.822   4.709  0.00  0.00    +0.105 S 
ATOM      8  O   LIG    1        2.137  -6.565   5.883  0.00  0.00    -0.146 OA
ATOM      9  O   LIG    1        4.282  -6.529   4.617  0.00  0.00    -0.146 OA
BRANCH   7  11
ATOM     10  C   LIG    1        2.136  -4.697   3.485  0.00  0.00    +0.298 C 
ATOM     11  N   LIG    1        2.154  -5.997   3.478  0.00  0.00    -0.076 NA
BRANCH  10  12
ATOM     12  N   LIG    1        1.523  -4.012   2.465  0.00  0.00    -0.298 N 
ATOM     13  H   LIG    1        1.102  -4.499   1.738  0.00  0.00    +0.150 HD
BRANCH  12  14
ATOM     14  C   LIG    1        1.503  -2.548   2.473  0.00  0.00    +0.106 C 
BRANCH  14  15
ATOM     15  C   LIG    1        0.763  -2.041   1.233  0.00  0.00    +0.019 C 
BRANCH  15  16
ATOM     16  C   LIG    1        0.742  -0.511   1.242  0.00  0.00    +0.001 C 
BRANCH  16  18
ATOM     17  C   LIG    1       -0.019   1.526   0.010  0.00  0.00    +0.004 C 
ATOM     18  C   LIG    1        0.002  -0.004   0.002  0.00  0.00    -0.003 C 
ENDBRANCH  16  18
ENDBRANCH  15  16
ENDBRANCH  14  15
ENDBRANCH  12  14
ENDBRANCH  10  12
BRANCH  10  19
ATOM     19  O   LIG    1        2.722  -4.019   4.497  0.00  0.00    -0.481 OA
ATOM     20  H   LIG    1        2.709  -3.082   4.502  0.00  0.00    +0.295 HD
ENDBRANCH  10  19
ENDBRANCH   7  11
ENDBRANCH   1   7
BRANCH   3  21
ATOM     21  N   LIG    1        4.899 -11.483   3.559  0.00  0.00    +0.006 N 
ATOM     22  O   LIG    1        5.996 -10.976   3.572  0.00  0.00    -0.130 OA
BRANCH  21  23
ATOM     23  O   LIG    1        4.781 -12.663   3.322  0.00  0.00    -0.396 OA
ATOM     24  H   LIG    1        3.930 -13.056   3.312  0.00  0.00    +0.329 HD
ENDBRANCH  21  23
ENDBRANCH   3  21
BRANCH   6  25
ATOM     25  N   LIG    1        0.327  -8.348   4.619  0.00  0.00    -0.339 N 
ATOM     26  H   LIG    1        0.422  -7.402   4.810  0.00  0.00    +0.146 HD
BRANCH  25  27
ATOM     27  C   LIG    1       -1.002  -8.964   4.609  0.00  0.00    +0.070 C 
ATOM     28  C   LIG    1       -1.539  -8.995   3.177  0.00  0.00    +0.022 C 
ATOM     29  C   LIG    1       -2.928  -9.639   3.167  0.00  0.00    +0.002 C 
ATOM     30  C   LIG    1       -3.874  -8.822   4.050  0.00  0.00    +0.000 C 
ATOM     31  C   LIG    1       -3.337  -8.791   5.482  0.00  0.00    +0.002 C 
ATOM     32  C   LIG    1       -1.949  -8.148   5.492  0.00  0.00    +0.022 C 
ENDBRANCH  25  27
ENDBRANCH   6  25
TORSDOF 12
