REMARK  Name = ZINC03896836
REMARK                            x       y       z     vdW  Elec       q    Type
REMARK                         _______ _______ _______ _____ _____    ______ ____
ROOT
ATOM      1  C   LIG    1        2.483  -2.481  -4.342  0.00  0.00    +0.026 C 
ATOM      2  C   LIG    1        3.462  -1.813  -5.051  0.00  0.00    +0.100 C 
ATOM      3  C   LIG    1        3.960  -0.491  -4.621  0.00  0.00    +0.256 C 
ATOM      4  N   LIG    1        4.919   0.100  -5.363  0.00  0.00    -0.236 N 
ATOM      5  H   LIG    1        5.257   0.969  -5.094  0.00  0.00    +0.159 HD
ATOM      6  C   LIG    1        5.414  -0.483  -6.463  0.00  0.00    +0.313 C 
ATOM      7  N   LIG    1        5.011  -1.680  -6.912  0.00  0.00    -0.236 N 
ATOM      8  H   LIG    1        5.413  -2.044  -7.717  0.00  0.00    +0.159 HD
ATOM      9  O   LIG    1        6.276   0.104  -7.087  0.00  0.00    -0.252 OA
ATOM     10  O   LIG    1        3.519   0.049  -3.624  0.00  0.00    -0.270 OA
ATOM     11  C   LIG    1        4.063  -2.392  -6.270  0.00  0.00    +0.256 C 
ATOM     12  O   LIG    1        3.708  -3.479  -6.685  0.00  0.00    -0.270 OA
ENDROOT
BRANCH   1  16
ATOM     13  C   LIG    1        0.380  -0.496  -1.260  0.00  0.00    +0.120 A 
ATOM     14  C   LIG    1        0.579   0.138  -2.483  0.00  0.00    +0.046 A 
ATOM     15  C   LIG    1        1.258  -0.498  -3.483  0.00  0.00    +0.011 A 
ATOM     16  C   LIG    1        1.755  -1.794  -3.275  0.00  0.00    -0.024 A 
ATOM     17  C   LIG    1        1.551  -2.428  -2.040  0.00  0.00    +0.011 A 
ATOM     18  C   LIG    1        0.875  -1.779  -1.046  0.00  0.00    +0.046 A 
BRANCH  13  20
ATOM     19  C   LIG    1       -0.776   1.456  -0.557  0.00  0.00    +0.277 C 
ATOM     20  O   LIG    1       -0.295   0.141  -0.271  0.00  0.00    -0.495 OA
ENDBRANCH  13  20
ENDBRANCH   1  16
TORSDOF 2
