REMARK  Name = ZINC04096846
REMARK                            x       y       z     vdW  Elec       q    Type
REMARK                         _______ _______ _______ _____ _____    ______ ____
ROOT
ATOM      1  C   LIG    1       -2.242  -2.724   2.507  0.00  0.00    +0.179 C 
ATOM      2  C   LIG    1       -3.069  -2.144   3.657  0.00  0.00    +0.177 C 
ATOM      3  C   LIG    1       -4.515  -2.634   3.535  0.00  0.00    +0.180 C 
ATOM      4  C   LIG    1       -4.524  -4.166   3.527  0.00  0.00    +0.214 C 
ATOM      5  C   LIG    1       -3.641  -4.668   2.381  0.00  0.00    +0.340 C 
ATOM      6  O   LIG    1       -2.318  -4.151   2.539  0.00  0.00    -0.331 OA
ENDROOT
BRANCH   4   7
ATOM      7  O   LIG    1       -5.862  -4.634   3.341  0.00  0.00    -0.383 OA
ATOM      8  H   LIG    1       -5.942  -5.598   3.326  0.00  0.00    +0.210 HD
ENDBRANCH   4   7
BRANCH   3   9
ATOM      9  O   LIG    1       -5.277  -2.155   4.644  0.00  0.00    -0.386 OA
ATOM     10  H   LIG    1       -6.205  -2.428   4.631  0.00  0.00    +0.210 HD
ENDBRANCH   3   9
BRANCH   2  11
ATOM     11  O   LIG    1       -3.040  -0.717   3.594  0.00  0.00    -0.386 OA
ATOM     12  H   LIG    1       -3.544  -0.281   4.295  0.00  0.00    +0.210 HD
ENDBRANCH   2  11
BRANCH   5  13
ATOM     13  O   LIG    1       -3.601  -6.096   2.402  0.00  0.00    -0.453 OA
BRANCH  13  14
ATOM     14  C   LIG    1       -3.031  -6.713   1.331  0.00  0.00    +0.214 A 
ATOM     15  C   LIG    1       -3.637  -6.629   0.051  0.00  0.00    +0.238 A 
ATOM     16  C   LIG    1       -2.968  -7.320  -1.063  0.00  0.00    +0.109 A 
ATOM     17  C   LIG    1       -3.496  -7.289  -2.360  0.00  0.00    +0.135 A 
ATOM     18  C   LIG    1       -2.838  -7.950  -3.379  0.00  0.00    +0.091 A 
ATOM     19  C   LIG    1       -1.659  -8.642  -3.117  0.00  0.00    +0.124 A 
ATOM     20  C   LIG    1       -1.131  -8.677  -1.836  0.00  0.00    +0.092 A 
ATOM     21  C   LIG    1       -1.777  -8.019  -0.800  0.00  0.00    +0.147 A 
ATOM     22  O   LIG    1       -1.275  -8.044   0.452  0.00  0.00    -0.451 OA
ATOM     23  O   LIG    1       -4.673  -6.006  -0.120  0.00  0.00    -0.283 OA
ATOM     24  C   LIG    1       -1.871  -7.413   1.478  0.00  0.00    +0.181 A 
BRANCH  24  25
ATOM     25  C   LIG    1       -1.251  -7.486   2.814  0.00  0.00    +0.025 A 
ATOM     26  C   LIG    1       -2.027  -7.808   3.930  0.00  0.00    +0.015 A 
ATOM     27  C   LIG    1       -1.445  -7.876   5.178  0.00  0.00    +0.050 A 
ATOM     28  C   LIG    1       -0.088  -7.625   5.329  0.00  0.00    +0.158 A 
ATOM     29  C   LIG    1        0.692  -7.304   4.220  0.00  0.00    +0.159 A 
ATOM     30  C   LIG    1        0.117  -7.239   2.965  0.00  0.00    +0.060 A 
BRANCH  29  31
ATOM     31  O   LIG    1        2.021  -7.059   4.372  0.00  0.00    -0.503 OA
ATOM     32  H   LIG    1        2.578  -7.846   4.288  0.00  0.00    +0.292 HD
ENDBRANCH  29  31
BRANCH  28  33
ATOM     33  O   LIG    1        0.480  -7.693   6.561  0.00  0.00    -0.503 OA
ATOM     34  H   LIG    1        0.817  -8.570   6.791  0.00  0.00    +0.292 HD
ENDBRANCH  28  33
ENDBRANCH  24  25
BRANCH  19  35
ATOM     35  O   LIG    1       -1.021  -9.288  -4.125  0.00  0.00    -0.507 OA
ATOM     36  H   LIG    1       -0.369  -8.746  -4.590  0.00  0.00    +0.292 HD
ENDBRANCH  19  35
BRANCH  17  37
ATOM     37  O   LIG    1       -4.646  -6.614  -2.614  0.00  0.00    -0.506 OA
ATOM     38  H   LIG    1       -4.513  -5.688  -2.860  0.00  0.00    +0.292 HD
ENDBRANCH  17  37
ENDBRANCH  13  14
ENDBRANCH   5  13
BRANCH   1  39
ATOM     39  C   LIG    1       -0.783  -2.288   2.656  0.00  0.00    +0.197 C 
BRANCH  39  40
ATOM     40  O   LIG    1       -0.035  -2.732   1.522  0.00  0.00    -0.346 OA
BRANCH  40  46
ATOM     41  C   LIG    1        1.070   1.153   0.384  0.00  0.00    +0.041 C 
ATOM     42  C   LIG    1        0.901  -0.366   0.329  0.00  0.00    +0.149 C 
ATOM     43  C   LIG    1        1.608  -0.915  -0.913  0.00  0.00    +0.174 C 
ATOM     44  C   LIG    1        1.485  -2.442  -0.929  0.00  0.00    +0.179 C 
ATOM     45  C   LIG    1        2.073  -3.003   0.370  0.00  0.00    +0.201 C 
ATOM     46  C   LIG    1        1.348  -2.374   1.563  0.00  0.00    +0.282 C 
ATOM     47  O   LIG    1        1.475  -0.952   1.500  0.00  0.00    -0.343 OA
BRANCH  45  48
ATOM     48  O   LIG    1        3.466  -2.692   0.438  0.00  0.00    -0.384 OA
ATOM     49  H   LIG    1        3.904  -3.018   1.236  0.00  0.00    +0.210 HD
ENDBRANCH  45  48
BRANCH  44  50
ATOM     50  O   LIG    1        2.203  -2.967  -2.047  0.00  0.00    -0.386 OA
ATOM     51  H   LIG    1        2.168  -3.931  -2.119  0.00  0.00    +0.210 HD
ENDBRANCH  44  50
BRANCH  43  52
ATOM     52  O   LIG    1        0.998  -0.374  -2.087  0.00  0.00    -0.387 OA
ATOM     53  H   LIG    1        1.036   0.591  -2.140  0.00  0.00    +0.210 HD
ENDBRANCH  43  52
ENDBRANCH  40  46
ENDBRANCH  39  40
ENDBRANCH   1  39
TORSDOF 16
