REMARK  Name = ZINC03975663
REMARK                            x       y       z     vdW  Elec       q    Type
REMARK                         _______ _______ _______ _____ _____    ______ ____
ROOT
ATOM      1  N   LIG    1        1.832   0.458   4.589  0.00  0.00    -0.269 N 
ATOM      2  H   LIG    1        2.238   1.235   4.174  0.00  0.00    +0.156 HD
ATOM      3  C   LIG    1        2.392  -0.090   5.685  0.00  0.00    +0.308 C 
ATOM      4  N   LIG    1        3.462   0.494   6.259  0.00  0.00    -0.269 N 
ATOM      5  H   LIG    1        3.784   1.348   5.929  0.00  0.00    +0.156 HD
ATOM      6  O   LIG    1        1.932  -1.113   6.157  0.00  0.00    -0.252 OA
ENDROOT
BRANCH   1   9
ATOM      7  C   LIG    1       -1.456   0.195   2.961  0.00  0.00    +0.133 A 
ATOM      8  C   LIG    1       -0.300   0.737   3.495  0.00  0.00    +0.069 A 
ATOM      9  C   LIG    1        0.665  -0.093   4.050  0.00  0.00    +0.038 A 
ATOM     10  C   LIG    1        0.474  -1.470   4.072  0.00  0.00    +0.024 A 
ATOM     11  C   LIG    1       -0.673  -2.019   3.542  0.00  0.00    +0.017 A 
ATOM     12  C   LIG    1       -1.651  -1.192   2.987  0.00  0.00    +0.061 A 
BRANCH  12  13
ATOM     13  C   LIG    1       -2.885  -1.777   2.424  0.00  0.00    +0.158 A 
ATOM     14  C   LIG    1       -2.963  -2.809   1.544  0.00  0.00    +0.161 A 
ATOM     15  N   LIG    1       -4.263  -3.026   1.290  0.00  0.00    -0.224 NA
ATOM     16  C   LIG    1       -4.974  -2.175   1.974  0.00  0.00    +0.308 A 
ATOM     17  O   LIG    1       -4.153  -1.393   2.689  0.00  0.00    -0.442 OA
ENDBRANCH  12  13
BRANCH   7  19
ATOM     18  C   LIG    1       -2.134   2.409   2.427  0.00  0.00    +0.277 C 
ATOM     19  O   LIG    1       -2.401   1.006   2.419  0.00  0.00    -0.494 OA
ENDBRANCH   7  19
ENDBRANCH   1   9
BRANCH   4  20
ATOM     20  C   LIG    1        4.110  -0.131   7.331  0.00  0.00    +0.035 A 
ATOM     21  C   LIG    1        4.182  -1.516   7.389  0.00  0.00    +0.023 A 
ATOM     22  C   LIG    1        4.822  -2.130   8.448  0.00  0.00    +0.002 A 
ATOM     23  C   LIG    1        5.390  -1.365   9.450  0.00  0.00    +0.005 A 
ATOM     24  C   LIG    1        5.321   0.014   9.396  0.00  0.00    -0.028 A 
ATOM     25  C   LIG    1        4.687   0.634   8.336  0.00  0.00    +0.028 A 
BRANCH  24  26
ATOM     26  C   LIG    1        5.941   0.843  10.491  0.00  0.00    +0.143 C 
BRANCH  26  27
ATOM     27  N   LIG    1        7.333   1.144  10.146  0.00  0.00    -0.277 N 
ATOM     28  H   LIG    1        7.709   0.815   9.315  0.00  0.00    +0.152 HD
ATOM     29  C   LIG    1        8.091   1.879  10.984  0.00  0.00    +0.401 C 
ATOM     30  O   LIG    1        7.620   2.291  12.025  0.00  0.00    -0.226 OA
BRANCH  29  31
ATOM     31  O   LIG    1        9.370   2.156  10.667  0.00  0.00    -0.445 OA
BRANCH  31  32
ATOM     32  C   LIG    1       10.115   2.939  11.601  0.00  0.00    +0.206 C 
ATOM     33  C   LIG    1       11.632   2.625  11.500  0.00  0.00    +0.075 C 
ATOM     34  C   LIG    1       12.243   3.969  11.973  0.00  0.00    +0.163 C 
ATOM     35  O   LIG    1       11.370   4.982  11.449  0.00  0.00    -0.376 OA
ATOM     36  C   LIG    1       10.060   4.437  11.230  0.00  0.00    +0.204 C 
ENDBRANCH  31  32
ENDBRANCH  29  31
ENDBRANCH  26  27
ENDBRANCH  24  26
ENDBRANCH   4  20
TORSDOF 8
