REMARK  Name = ZINC03935475
REMARK                            x       y       z     vdW  Elec       q    Type
REMARK                         _______ _______ _______ _____ _____    ______ ____
ROOT
ATOM      1  C   LIG    1        4.888  -2.819   1.979  0.00  0.00    +0.012 C 
ATOM      2  C   LIG    1        5.012  -3.522   3.332  0.00  0.00    +0.014 C 
ATOM      3  C   LIG    1        4.526  -2.587   4.442  0.00  0.00    +0.020 C 
ATOM      4  C   LIG    1        5.405  -1.332   4.467  0.00  0.00    +0.108 C 
ATOM      5  N   LIG    1        5.407  -0.729   3.127  0.00  0.00    -0.297 N 
ATOM      6  C   LIG    1        5.082   0.568   2.957  0.00  0.00    +0.247 C 
ATOM      7  O   LIG    1        5.006   1.034   1.837  0.00  0.00    -0.270 OA
ATOM      8  C   LIG    1        5.771  -1.567   1.976  0.00  0.00    +0.119 C 
ENDROOT
BRANCH   1   9
ATOM      9  C   LIG    1        5.336  -3.752   0.884  0.00  0.00    -0.038 A 
ATOM     10  C   LIG    1        6.576  -4.359   0.957  0.00  0.00    +0.006 A 
ATOM     11  C   LIG    1        6.990  -5.210  -0.049  0.00  0.00    +0.022 A 
ATOM     12  C   LIG    1        6.160  -5.465  -1.126  0.00  0.00    +0.059 A 
ATOM     13 CL   LIG    1        6.677  -6.540  -2.387  0.00  0.00    -0.082 Cl
ATOM     14  C   LIG    1        4.918  -4.857  -1.199  0.00  0.00    +0.060 A 
ATOM     15 CL   LIG    1        3.877  -5.171  -2.553  0.00  0.00    -0.082 Cl
ATOM     16  C   LIG    1        4.507  -4.001  -0.194  0.00  0.00    +0.025 A 
ENDBRANCH   1   9
BRANCH   6  17
ATOM     17  C   LIG    1        4.817   1.424   4.133  0.00  0.00    +0.037 A 
ATOM     18  C   LIG    1        3.827   2.405   4.077  0.00  0.00    +0.013 A 
ATOM     19  C   LIG    1        3.581   3.197   5.180  0.00  0.00    +0.001 A 
ATOM     20  C   LIG    1        4.322   3.027   6.336  0.00  0.00    +0.000 A 
ATOM     21  C   LIG    1        5.309   2.060   6.396  0.00  0.00    +0.001 A 
ATOM     22  C   LIG    1        5.561   1.258   5.303  0.00  0.00    +0.013 A 
ENDBRANCH   6  17
BRANCH   1  23
ATOM     23  C   LIG    1        3.431  -2.417   1.743  0.00  0.00    +0.011 C 
BRANCH  23  24
ATOM     24  C   LIG    1        2.531  -3.644   1.902  0.00  0.00    -0.018 C 
BRANCH  24  25
ATOM     25  C   LIG    1        1.095  -3.276   1.523  0.00  0.00    -0.079 C 
BRANCH  25  29
ATOM     26  C   LIG    1       -1.716  -6.433   0.881  0.00  0.00    +0.059 C 
ATOM     27  C   LIG    1       -2.058  -5.307   1.860  0.00  0.00    +0.012 C 
ATOM     28  C   LIG    1       -1.186  -4.088   1.552  0.00  0.00    -0.076 C 
ATOM     29  N   LIG    1        0.236  -4.465   1.704  0.00  0.00    +0.380 N 
ATOM     30  H   LIG    1        0.382  -4.841   2.648  0.00  0.00    -0.082 HD
ATOM     31  C   LIG    1        0.595  -5.502   0.713  0.00  0.00    -0.076 C 
ATOM     32  C   LIG    1       -0.225  -6.763   0.996  0.00  0.00    +0.012 C 
BRANCH  26  33
ATOM     33  C   LIG    1       -2.529  -7.657   1.218  0.00  0.00    -0.024 A 
ATOM     34  C   LIG    1       -2.795  -7.968   2.538  0.00  0.00    +0.006 A 
ATOM     35  C   LIG    1       -3.546  -9.088   2.846  0.00  0.00    +0.000 A 
ATOM     36  C   LIG    1       -4.021  -9.901   1.834  0.00  0.00    +0.000 A 
ATOM     37  C   LIG    1       -3.750  -9.593   0.514  0.00  0.00    +0.000 A 
ATOM     38  C   LIG    1       -3.004  -8.470   0.206  0.00  0.00    +0.006 A 
ENDBRANCH  26  33
BRANCH  26  41
ATOM     39  C   LIG    1       -1.770  -6.208  -2.938  0.00  0.00    +0.109 C 
ATOM     40  C   LIG    1       -1.550  -6.709  -1.534  0.00  0.00    +0.213 C 
ATOM     41  N   LIG    1       -2.020  -6.004  -0.486  0.00  0.00    -0.295 N 
ATOM     42  C   LIG    1       -2.834  -4.808  -0.713  0.00  0.00    +0.133 C 
ATOM     43  O   LIG    1       -0.952  -7.747  -1.347  0.00  0.00    -0.276 OA
ENDBRANCH  26  41
ENDBRANCH  25  29
ENDBRANCH  24  25
ENDBRANCH  23  24
ENDBRANCH   1  23
TORSDOF 8
