REMARK  Name = ZINC03975560
REMARK                            x       y       z     vdW  Elec       q    Type
REMARK                         _______ _______ _______ _____ _____    ______ ____
ROOT
ATOM      1  C   LIG    1        6.783   0.492   5.546  0.00  0.00    +0.123 C 
ATOM      2  C   LIG    1        7.310  -0.940   5.463  0.00  0.00    +0.101 C 
ATOM      3  C   LIG    1        6.463  -1.113   6.696  0.00  0.00    +0.226 C 
ATOM      4  O   LIG    1        6.254  -2.073   7.407  0.00  0.00    -0.275 OA
ATOM      5  N   LIG    1        6.014   0.156   6.745  0.00  0.00    -0.263 N 
ENDROOT
BRANCH   5   6
ATOM      6  C   LIG    1        5.158   0.865   7.598  0.00  0.00    +0.037 A 
ATOM      7  C   LIG    1        4.900   2.209   7.363  0.00  0.00    +0.026 A 
ATOM      8  C   LIG    1        4.052   2.905   8.201  0.00  0.00    +0.040 A 
ATOM      9  C   LIG    1        3.468   2.266   9.282  0.00  0.00    +0.124 A 
ATOM     10  F   LIG    1        2.643   2.950  10.105  0.00  0.00    -0.205 F 
ATOM     11  C   LIG    1        3.728   0.927   9.521  0.00  0.00    +0.040 A 
ATOM     12  C   LIG    1        4.572   0.226   8.682  0.00  0.00    +0.026 A 
ENDBRANCH   5   6
BRANCH   1  18
ATOM     13  C   LIG    1        6.444   1.606   3.331  0.00  0.00    +0.009 A 
ATOM     14  C   LIG    1        5.649   1.954   2.256  0.00  0.00    +0.046 A 
ATOM     15  C   LIG    1        4.318   1.564   2.224  0.00  0.00    +0.124 A 
ATOM     16  C   LIG    1        3.787   0.831   3.275  0.00  0.00    +0.046 A 
ATOM     17  C   LIG    1        4.587   0.481   4.346  0.00  0.00    +0.009 A 
ATOM     18  C   LIG    1        5.914   0.870   4.375  0.00  0.00    -0.026 A 
BRANCH  15  19
ATOM     19  O   LIG    1        3.534   1.905   1.167  0.00  0.00    -0.461 OA
BRANCH  19  20
ATOM     20  C   LIG    1        2.174   1.469   1.202  0.00  0.00    +0.340 C 
ATOM     21  C   LIG    1        1.422   2.047  -0.001  0.00  0.00    +0.214 C 
ATOM     22  C   LIG    1       -0.019   1.528   0.010  0.00  0.00    +0.180 C 
ATOM     23  C   LIG    1        0.002  -0.004   0.002  0.00  0.00    +0.185 C 
ATOM     24  C   LIG    1        0.808  -0.502   1.204  0.00  0.00    +0.261 C 
ATOM     25  O   LIG    1        2.128   0.042   1.149  0.00  0.00    -0.322 OA
BRANCH  21  26
ATOM     26  O   LIG    1        1.417   3.474   0.080  0.00  0.00    -0.383 OA
ATOM     27  H   LIG    1        2.298   3.871   0.078  0.00  0.00    +0.210 HD
ENDBRANCH  21  26
BRANCH  22  28
ATOM     28  O   LIG    1       -0.707   2.003  -1.148  0.00  0.00    -0.386 OA
ATOM     29  H   LIG    1       -0.758   2.966  -1.208  0.00  0.00    +0.210 HD
ENDBRANCH  22  28
BRANCH  23  30
ATOM     30  O   LIG    1       -1.335  -0.500   0.085  0.00  0.00    -0.386 OA
ATOM     31  H   LIG    1       -1.398  -1.465   0.085  0.00  0.00    +0.210 HD
ENDBRANCH  23  30
BRANCH  24  32
ATOM     32  C   LIG    1        0.883  -2.007   1.170  0.00  0.00    +0.337 C 
ATOM     33  O   LIG    1        1.949  -2.555   1.016  0.00  0.00    -0.248 OA
BRANCH  32  34
ATOM     34  O   LIG    1       -0.234  -2.738   1.312  0.00  0.00    -0.479 OA
ATOM     35  H   LIG    1       -1.060  -2.313   1.431  0.00  0.00    +0.295 HD
ENDBRANCH  32  34
ENDBRANCH  24  32
ENDBRANCH  19  20
ENDBRANCH  15  19
ENDBRANCH   1  18
BRANCH   2  36
ATOM     36  C   LIG    1        8.814  -1.075   5.707  0.00  0.00    +0.018 C 
BRANCH  36  37
ATOM     37  C   LIG    1        9.241  -2.526   5.476  0.00  0.00    +0.037 C 
BRANCH  37  38
ATOM     38  C   LIG    1       10.745  -2.660   5.720  0.00  0.00    +0.145 C 
BRANCH  38  39
ATOM     39  C   LIG    1       11.144  -4.109   5.613  0.00  0.00    -0.019 A 
ATOM     40  C   LIG    1       11.424  -4.659   4.375  0.00  0.00    +0.009 A 
ATOM     41  C   LIG    1       11.794  -5.987   4.276  0.00  0.00    +0.039 A 
ATOM     42  C   LIG    1       11.875  -6.769   5.416  0.00  0.00    +0.123 A 
ATOM     43  F   LIG    1       12.232  -8.069   5.319  0.00  0.00    -0.205 F 
ATOM     44  C   LIG    1       11.589  -6.219   6.654  0.00  0.00    +0.039 A 
ATOM     45  C   LIG    1       11.224  -4.890   6.751  0.00  0.00    +0.009 A 
ENDBRANCH  38  39
BRANCH  38  46
ATOM     46  O   LIG    1       11.456  -1.897   4.743  0.00  0.00    -0.387 OA
ATOM     47  H   LIG    1       11.290  -2.172   3.832  0.00  0.00    +0.210 HD
ENDBRANCH  38  46
ENDBRANCH  37  38
ENDBRANCH  36  37
ENDBRANCH   2  36
TORSDOF 14
