REMARK  Name = ZINC03875392
REMARK                            x       y       z     vdW  Elec       q    Type
REMARK                         _______ _______ _______ _____ _____    ______ ____
ROOT
ATOM      1  C   LIG    1       -1.405  -2.085   0.003  0.00  0.00    +0.070 C 
ATOM      2  C   LIG    1       -2.815  -2.641  -0.223  0.00  0.00    +0.096 C 
ATOM      3  N   LIG    1       -3.664  -2.299   0.926  0.00  0.00    -0.294 NA
ATOM      4  C   LIG    1       -5.071  -2.623   0.647  0.00  0.00    +0.089 C 
ATOM      5  C   LIG    1       -5.950  -1.928   1.688  0.00  0.00    +0.051 C 
ATOM      6  C   LIG    1       -5.445  -2.241   3.073  0.00  0.00    -0.038 A 
ATOM      7  C   LIG    1       -6.296  -2.034   4.149  0.00  0.00    +0.053 A 
ATOM      8  C   LIG    1       -5.873  -2.305   5.438  0.00  0.00    +0.162 A 
ATOM      9  C   LIG    1       -4.585  -2.788   5.653  0.00  0.00    +0.162 A 
ATOM     10  C   LIG    1       -3.741  -2.993   4.576  0.00  0.00    +0.054 A 
ATOM     11  C   LIG    1       -4.170  -2.720   3.284  0.00  0.00    -0.023 A 
ATOM     12  C   LIG    1       -3.211  -2.966   2.149  0.00  0.00    +0.094 C 
ATOM     13  C   LIG    1       -1.825  -2.436   2.537  0.00  0.00    +0.098 C 
ATOM     14  C   LIG    1       -0.907  -2.588   1.342  0.00  0.00    +0.139 C 
ATOM     15  O   LIG    1        0.185  -3.092   1.453  0.00  0.00    -0.297 OA
ENDROOT
BRANCH   8  16
ATOM     16  O   LIG    1       -6.711  -2.101   6.489  0.00  0.00    -0.491 OA
ATOM     17  C   LIG    1       -8.017  -1.603   6.191  0.00  0.00    +0.277 C 
ENDBRANCH   8  16
BRANCH   9  18
ATOM     18  O   LIG    1       -4.159  -3.057   6.916  0.00  0.00    -0.491 OA
ATOM     19  C   LIG    1       -2.825  -3.550   7.059  0.00  0.00    +0.277 C 
ENDBRANCH   9  18
BRANCH   1  20
ATOM     20  C   LIG    1       -1.448  -0.555   0.010  0.00  0.00    +0.015 C 
BRANCH  20  22
ATOM     21  C   LIG    1        0.767  -0.365  -1.130  0.00  0.00    +0.007 C 
ATOM     22  C   LIG    1       -0.025  -0.005   0.129  0.00  0.00    -0.016 C 
ATOM     23  C   LIG    1       -0.077   1.516   0.281  0.00  0.00    +0.007 C 
ENDBRANCH  20  22
ENDBRANCH   1  20
TORSDOF 4
