REMARK  Name = ZINC03979065
REMARK                            x       y       z     vdW  Elec       q    Type
REMARK                         _______ _______ _______ _____ _____    ______ ____
ROOT
ATOM      1  C   LIG    1        1.524  -2.195  -2.651  0.00  0.00    +0.183 C 
ATOM      2  C   LIG    1        3.030  -2.439  -2.367  0.00  0.00    +0.045 C 
ATOM      3  C   LIG    1        3.355  -3.859  -2.922  0.00  0.00    +0.008 C 
ATOM      4  C   LIG    1        2.220  -4.055  -3.941  0.00  0.00    +0.002 C 
ATOM      5  C   LIG    1        2.037  -5.434  -4.519  0.00  0.00    -0.003 C 
ATOM      6  C   LIG    1        2.277  -6.538  -3.515  0.00  0.00    +0.008 C 
ATOM      7  C   LIG    1        1.318  -7.713  -3.681  0.00  0.00    +0.032 C 
ATOM      8  C   LIG    1        1.121  -7.943  -5.158  0.00  0.00    -0.060 C 
ATOM      9  C   LIG    1        1.485  -9.086  -5.726  0.00  0.00    +0.046 C 
ATOM     10  C   LIG    1        1.327  -9.296  -7.162  0.00  0.00    +0.156 C 
ATOM     11  C   LIG    1        0.941  -8.154  -8.065  0.00  0.00    +0.080 C 
ATOM     12  C   LIG    1        1.162  -6.819  -7.356  0.00  0.00    +0.019 C 
ATOM     13  O   LIG    1        1.522 -10.399  -7.634  0.00  0.00    -0.293 OA
ATOM     14  C   LIG    1        0.500  -6.835  -5.973  0.00  0.00    -0.007 C 
ATOM     15  C   LIG    1       -0.993  -7.126  -6.139  0.00  0.00    +0.016 C 
ATOM     16  C   LIG    1        0.724  -5.497  -5.287  0.00  0.00    +0.002 C 
ATOM     17  C   LIG    1       -0.470  -4.994  -4.502  0.00  0.00    +0.005 C 
ATOM     18  C   LIG    1       -0.223  -3.558  -3.993  0.00  0.00    +0.011 C 
ATOM     19  C   LIG    1        1.008  -3.568  -3.121  0.00  0.00    +0.008 C 
ATOM     20  C   LIG    1        0.739  -4.396  -1.867  0.00  0.00    +0.015 C 
ENDROOT
BRANCH   1  21
ATOM     21  O   LIG    1        0.846  -1.807  -1.459  0.00  0.00    -0.461 OA
BRANCH  21  22
ATOM     22  C   LIG    1        0.707  -0.490  -1.238  0.00  0.00    +0.307 C 
ATOM     23  O   LIG    1        1.148   0.305  -2.033  0.00  0.00    -0.251 OA
BRANCH  22  25
ATOM     24  C   LIG    1       -0.019   1.526   0.010  0.00  0.00    +0.015 C 
ATOM     25  C   LIG    1        0.002  -0.004   0.002  0.00  0.00    +0.117 C 
ENDBRANCH  22  25
ENDBRANCH  21  22
ENDBRANCH   1  21
TORSDOF 3
