REMARK  Name = ZINC03935839
REMARK                            x       y       z     vdW  Elec       q    Type
REMARK                         _______ _______ _______ _____ _____    ______ ____
ROOT
ATOM      1  C   LIG    1        5.088   7.098  -3.584  0.00  0.00    +0.121 A 
ATOM      2  C   LIG    1        4.295   7.994  -2.880  0.00  0.00    +0.046 A 
ATOM      3  C   LIG    1        3.842   7.668  -1.617  0.00  0.00    +0.009 A 
ATOM      4  C   LIG    1        4.178   6.451  -1.053  0.00  0.00    -0.030 A 
ATOM      5  C   LIG    1        4.972   5.559  -1.750  0.00  0.00    +0.009 A 
ATOM      6  C   LIG    1        5.423   5.878  -3.017  0.00  0.00    +0.046 A 
ENDROOT
BRANCH   1   7
ATOM      7  O   LIG    1        5.534   7.416  -4.828  0.00  0.00    -0.492 OA
BRANCH   7   8
ATOM      8  C   LIG    1        6.345   6.447  -5.494  0.00  0.00    +0.235 C 
BRANCH   8   9
ATOM      9  C   LIG    1        6.749   6.978  -6.870  0.00  0.00    +0.100 C 
BRANCH   9  12
ATOM     10  C   LIG    1        5.728   4.688  -8.738  0.00  0.00    +0.088 C 
ATOM     11  C   LIG    1        7.164   4.970  -8.376  0.00  0.00    +0.126 A 
ATOM     12  C   LIG    1        7.605   5.955  -7.572  0.00  0.00    +0.086 A 
ATOM     13  N   LIG    1        8.942   5.869  -7.512  0.00  0.00    -0.214 NA
ATOM     14  C   LIG    1        9.330   4.854  -8.248  0.00  0.00    +0.228 A 
ATOM     15  O   LIG    1        8.244   4.283  -8.796  0.00  0.00    -0.440 OA
BRANCH  14  16
ATOM     16  C   LIG    1       10.728   4.415  -8.444  0.00  0.00    +0.037 A 
ATOM     17  C   LIG    1       11.772   5.099  -7.819  0.00  0.00    +0.013 A 
ATOM     18  C   LIG    1       13.074   4.681  -8.003  0.00  0.00    +0.001 A 
ATOM     19  C   LIG    1       13.347   3.593  -8.813  0.00  0.00    +0.000 A 
ATOM     20  C   LIG    1       12.317   2.914  -9.440  0.00  0.00    +0.001 A 
ATOM     21  C   LIG    1       11.011   3.319  -9.261  0.00  0.00    +0.013 A 
ENDBRANCH  14  16
ENDBRANCH   9  12
ENDBRANCH   8   9
ENDBRANCH   7   8
ENDBRANCH   1   7
BRANCH   4  22
ATOM     22  C   LIG    1        3.683   6.098   0.326  0.00  0.00    +0.146 C 
BRANCH  22  23
ATOM     23  N   LIG    1        2.390   5.416   0.221  0.00  0.00    -0.252 N 
ATOM     24  C   LIG    1        2.344   4.074   0.106  0.00  0.00    +0.409 C 
ATOM     25  O   LIG    1        3.374   3.429   0.090  0.00  0.00    -0.226 OA
BRANCH  24  26
ATOM     26  O   LIG    1        1.157   3.447   0.010  0.00  0.00    -0.411 OA
BRANCH  26  27
ATOM     27  C   LIG    1        1.173   2.087   0.022  0.00  0.00    +0.133 A 
ATOM     28  C   LIG    1        1.495   1.408   1.188  0.00  0.00    +0.050 A 
ATOM     29  C   LIG    1        1.512   0.027   1.201  0.00  0.00    +0.049 A 
ATOM     30  C   LIG    1        1.208  -0.681   0.048  0.00  0.00    +0.120 A 
ATOM     31  C   LIG    1        0.886  -0.002  -1.118  0.00  0.00    +0.049 A 
ATOM     32  C   LIG    1        0.869   1.379  -1.131  0.00  0.00    +0.050 A 
BRANCH  30  33
ATOM     33  O   LIG    1        1.225  -2.041   0.060  0.00  0.00    -0.495 OA
ATOM     34  C   LIG    1        0.901  -2.705  -1.163  0.00  0.00    +0.277 C 
ENDBRANCH  30  33
ENDBRANCH  26  27
ENDBRANCH  24  26
BRANCH  23  35
ATOM     35  C   LIG    1        1.148   6.192   0.240  0.00  0.00    +0.231 C 
BRANCH  35  36
ATOM     36  C   LIG    1        0.670   6.340   1.661  0.00  0.00    +0.322 C 
ATOM     37  O   LIG    1        1.302   5.847   2.566  0.00  0.00    -0.249 OA
BRANCH  36  38
ATOM     38  O   LIG    1       -0.458   7.019   1.923  0.00  0.00    -0.480 OA
ATOM     39  H   LIG    1       -0.948   7.401   1.222  0.00  0.00    +0.295 HD
ENDBRANCH  36  38
ENDBRANCH  35  36
ENDBRANCH  23  35
ENDBRANCH  22  23
ENDBRANCH   4  22
TORSDOF 13
