REMARK  Name = ZINC03985981
REMARK                            x       y       z     vdW  Elec       q    Type
REMARK                         _______ _______ _______ _____ _____    ______ ____
ROOT
ATOM      1  C   LIG    1        1.201   8.572   3.993  0.00  0.00    +0.225 A 
ATOM      2  N   LIG    1        1.080   8.409   5.298  0.00  0.00    -0.219 NA
ATOM      3  C   LIG    1        0.961   7.199   5.833  0.00  0.00    +0.150 A 
ATOM      4  C   LIG    1        0.965   6.085   4.976  0.00  0.00    +0.147 A 
ATOM      5  C   LIG    1        1.096   6.311   3.595  0.00  0.00    +0.167 A 
ATOM      6  N   LIG    1        1.070   5.072   3.005  0.00  0.00    -0.286 N 
ATOM      7  C   LIG    1        0.923   4.150   3.998  0.00  0.00    +0.203 A 
ATOM      8  N   LIG    1        0.868   4.745   5.154  0.00  0.00    -0.231 NA
ATOM      9  N   LIG    1        1.210   7.559   3.153  0.00  0.00    -0.216 NA
ENDROOT
BRANCH   6  10
ATOM     10  C1* LIG    1        1.174   4.793   1.571  0.00  0.00    +0.253 C 
ATOM     11  C2* LIG    1        2.656   4.614   1.156  0.00  0.00    +0.195 C 
ATOM     12  C3* LIG    1        2.533   3.741  -0.121  0.00  0.00    +0.178 C 
ATOM     13  C4* LIG    1        1.145   3.085   0.008  0.00  0.00    +0.177 C 
ATOM     14  O4* LIG    1        0.579   3.516   1.257  0.00  0.00    -0.346 OA
BRANCH  11  15
ATOM     15  O2* LIG    1        3.258   5.875   0.854  0.00  0.00    -0.385 OA
ATOM     16  H2* LIG    1        4.186   5.814   0.589  0.00  0.00    +0.210 HD
ENDBRANCH  11  15
BRANCH  12  17
ATOM     17  O3* LIG    1        2.596   4.555  -1.294  0.00  0.00    -0.386 OA
ATOM     18  H3* LIG    1        2.464   4.067  -2.118  0.00  0.00    +0.210 HD
ENDBRANCH  12  17
BRANCH  13  19
ATOM     19  C5* LIG    1        1.286   1.562  -0.002  0.00  0.00    +0.190 C 
BRANCH  19  20
ATOM     20  O5* LIG    1       -0.011   0.963   0.007  0.00  0.00    -0.392 OA
ATOM     21  H5* LIG    1        0.002  -0.004   0.002  0.00  0.00    +0.210 HD
ENDBRANCH  19  20
ENDBRANCH  13  19
ENDBRANCH   6  10
BRANCH   3  22
ATOM     22  N   LIG    1        0.835   7.038   7.202  0.00  0.00    -0.322 N 
ATOM     23  H   LIG    1       -0.031   6.582   7.406  0.00  0.00    +0.148 HD
BRANCH  22  24
ATOM     24  C   LIG    1        0.833   8.211   8.080  0.00  0.00    +0.100 C 
ATOM     25  C   LIG    1        1.258   7.816   9.512  0.00  0.00    +0.052 C 
ATOM     26  C   LIG    1        0.030   8.170  10.379  0.00  0.00    +0.162 C 
ATOM     27  O   LIG    1       -1.088   8.141   9.465  0.00  0.00    -0.378 OA
ATOM     28  C   LIG    1       -0.602   8.758   8.248  0.00  0.00    +0.182 C 
ENDBRANCH  22  24
ENDBRANCH   3  22
TORSDOF 7
