REMARK  Name = ZINC03874832
REMARK                            x       y       z     vdW  Elec       q    Type
REMARK                         _______ _______ _______ _____ _____    ______ ____
ROOT
ATOM      1  C   LIG    1       -0.017   1.387   0.010  0.00  0.00    +0.016 A 
ATOM      2  C   LIG    1        1.171   2.096   0.002  0.00  0.00    +0.050 A 
ATOM      3  C   LIG    1        2.387   1.432  -0.013  0.00  0.00    +0.159 A 
ATOM      4  C   LIG    1        2.427   0.033  -0.021  0.00  0.00    +0.170 A 
ATOM      5  C   LIG    1        1.235  -0.689  -0.014  0.00  0.00    +0.078 A 
ATOM      6  C   LIG    1        1.251  -2.165  -0.021  0.00  0.00    +0.202 C 
ATOM      7  O   LIG    1        2.274  -2.768  -0.284  0.00  0.00    -0.286 OA
ATOM      8  C   LIG    1        0.012  -2.900   0.294  0.00  0.00    +0.078 A 
ATOM      9  C   LIG    1        0.048  -4.266   0.577  0.00  0.00    +0.129 A 
ATOM     10  C   LIG    1       -1.134  -4.943   0.874  0.00  0.00    +0.050 A 
ATOM     11  C   LIG    1       -2.337  -4.274   0.892  0.00  0.00    +0.050 A 
ATOM     12  C   LIG    1       -2.393  -2.910   0.612  0.00  0.00    +0.129 A 
ATOM     13  C   LIG    1       -1.221  -2.215   0.311  0.00  0.00    +0.078 A 
ATOM     14  C   LIG    1       -1.259  -0.771   0.012  0.00  0.00    +0.198 C 
ATOM     15  O   LIG    1       -2.317  -0.220  -0.224  0.00  0.00    -0.286 OA
ATOM     16  C   LIG    1        0.002  -0.004   0.002  0.00  0.00    +0.037 A 
ENDROOT
BRANCH   3  17
ATOM     17  O   LIG    1        3.545   2.142  -0.021  0.00  0.00    -0.503 OA
ATOM     18  H   LIG    1        3.888   2.342   0.860  0.00  0.00    +0.292 HD
ENDBRANCH   3  17
BRANCH   4  19
ATOM     19  O   LIG    1        3.618  -0.615  -0.037  0.00  0.00    -0.503 OA
ATOM     20  H   LIG    1        3.973  -0.808   0.842  0.00  0.00    +0.292 HD
ENDBRANCH   4  19
BRANCH   9  21
ATOM     21  O   LIG    1        1.229  -4.933   0.563  0.00  0.00    -0.506 OA
ATOM     22  H   LIG    1        1.459  -5.306  -0.299  0.00  0.00    +0.292 HD
ENDBRANCH   9  21
BRANCH  12  23
ATOM     23  O   LIG    1       -3.583  -2.260   0.631  0.00  0.00    -0.506 OA
ATOM     24  H   LIG    1       -4.041  -2.252  -0.220  0.00  0.00    +0.292 HD
ENDBRANCH  12  23
TORSDOF 4
