REMARK  Name = ZINC03915436
REMARK                            x       y       z     vdW  Elec       q    Type
REMARK                         _______ _______ _______ _____ _____    ______ ____
ROOT
ATOM      1  C   LIG    1        1.231  -0.682   0.013  0.00  0.00    +0.034 A 
ATOM      2  C   LIG    1        0.021  -0.001   0.044  0.00  0.00    +0.023 A 
ATOM      3  C   LIG    1        0.009   1.380   0.062  0.00  0.00    +0.005 A 
ATOM      4  C   LIG    1        1.198   2.085   0.050  0.00  0.00    -0.049 A 
ATOM      5  C   LIG    1        2.405   1.409   0.020  0.00  0.00    +0.005 A 
ATOM      6  C   LIG    1        2.425   0.029   0.001  0.00  0.00    +0.023 A 
ENDROOT
BRANCH   1   8
ATOM      7  C   LIG    1        2.198  -2.734  -0.703  0.00  0.00    +0.250 C 
ATOM      8  N   LIG    1        1.248  -2.080  -0.005  0.00  0.00    -0.281 N 
ATOM      9  H   LIG    1        0.576  -2.580   0.485  0.00  0.00    +0.155 HD
ATOM     10  O   LIG    1        3.087  -2.111  -1.250  0.00  0.00    -0.270 OA
BRANCH   7  22
ATOM     11  C   LIG    1        6.417  -4.081  -3.039  0.00  0.00    +0.144 A 
ATOM     12  C   LIG    1        7.482  -4.711  -3.653  0.00  0.00    +0.048 A 
ATOM     13  C   LIG    1        7.508  -6.092  -3.780  0.00  0.00    +0.004 A 
ATOM     14  C   LIG    1        6.470  -6.855  -3.295  0.00  0.00    +0.014 A 
ATOM     15  C   LIG    1        5.385  -6.234  -2.672  0.00  0.00    +0.049 A 
ATOM     16  C   LIG    1        4.262  -7.030  -2.144  0.00  0.00    +0.197 A 
ATOM     17  O   LIG    1        4.250  -8.244  -2.237  0.00  0.00    -0.287 OA
ATOM     18  C   LIG    1        3.155  -6.300  -1.499  0.00  0.00    +0.046 A 
ATOM     19  C   LIG    1        2.059  -6.987  -0.976  0.00  0.00    +0.014 A 
ATOM     20  C   LIG    1        1.030  -6.291  -0.375  0.00  0.00    +0.002 A 
ATOM     21  C   LIG    1        1.077  -4.912  -0.282  0.00  0.00    +0.015 A 
ATOM     22  C   LIG    1        2.159  -4.204  -0.802  0.00  0.00    +0.061 A 
ATOM     23  C   LIG    1        3.217  -4.899  -1.418  0.00  0.00    +0.063 A 
ATOM     24  N   LIG    1        4.287  -4.210  -1.926  0.00  0.00    -0.351 N 
ATOM     25  H   LIG    1        4.296  -3.213  -1.850  0.00  0.00    +0.166 HD
ATOM     26  C   LIG    1        5.352  -4.837  -2.539  0.00  0.00    +0.093 A 
BRANCH  11  28
ATOM     27  C   LIG    1        7.524  -2.018  -3.454  0.00  0.00    +0.277 C 
ATOM     28  O   LIG    1        6.404  -2.726  -2.921  0.00  0.00    -0.493 OA
ENDBRANCH  11  28
ENDBRANCH   7  22
ENDBRANCH   1   8
BRANCH   4  29
ATOM     29  C   LIG    1        1.181   3.591   0.070  0.00  0.00    +0.016 C 
BRANCH  29  30
ATOM     30  C   LIG    1        1.200   4.083   1.519  0.00  0.00    -0.074 C 
BRANCH  30  31
ATOM     31  N   LIG    1        1.200   5.563   1.525  0.00  0.00    +0.383 N 
ATOM     32  H   LIG    1        1.959   5.900   0.921  0.00  0.00    -0.081 HD
ATOM     33  C   LIG    1       -0.084   6.069   1.011  0.00  0.00    -0.043 C 
ATOM     34  C   LIG    1       -0.130   7.570   1.126  0.00  0.00    -0.057 A 
ATOM     35  C   LIG    1       -1.059   8.261   0.362  0.00  0.00    +0.051 A 
ATOM     36  C   LIG    1       -1.141   9.640   0.437  0.00  0.00    +0.162 A 
ATOM     37  C   LIG    1       -0.285  10.337   1.285  0.00  0.00    +0.162 A 
ATOM     38  C   LIG    1        0.640   9.644   2.044  0.00  0.00    +0.053 A 
ATOM     39  C   LIG    1        0.720   8.261   1.964  0.00  0.00    -0.044 A 
ATOM     40  C   LIG    1        1.752   7.553   2.804  0.00  0.00    +0.017 C 
ATOM     41  C   LIG    1        1.416   6.064   2.897  0.00  0.00    -0.074 C 
BRANCH  36  42
ATOM     42  O   LIG    1       -2.054  10.312  -0.315  0.00  0.00    -0.491 OA
ATOM     43  C   LIG    1       -2.898   9.530  -1.162  0.00  0.00    +0.277 C 
ENDBRANCH  36  42
BRANCH  37  44
ATOM     44  O   LIG    1       -0.359  11.693   1.367  0.00  0.00    -0.491 OA
ATOM     45  C   LIG    1        0.551  12.339   2.259  0.00  0.00    +0.277 C 
ENDBRANCH  37  44
ENDBRANCH  30  31
ENDBRANCH  29  30
ENDBRANCH   4  29
TORSDOF 8
