REMARK  Name = ZINC03946466
REMARK                            x       y       z     vdW  Elec       q    Type
REMARK                         _______ _______ _______ _____ _____    ______ ____
ROOT
ATOM      1  N   LIG    1        2.618   3.553   0.216  0.00  0.00    -0.265 N 
ATOM      2  H   LIG    1        2.595   4.217  -0.491  0.00  0.00    +0.259 HD
ENDROOT
BRANCH   1   3
ATOM      3  C   LIG    1        2.526   2.129  -0.113  0.00  0.00    +0.112 C 
ATOM      4  C   LIG    1        2.808   1.817  -1.592  0.00  0.00    +0.049 C 
ATOM      5  C   LIG    1        4.289   1.685  -1.200  0.00  0.00    +0.008 C 
ATOM      6  C   LIG    1        3.802   1.336   0.216  0.00  0.00    +0.049 C 
BRANCH   3   9
ATOM      7  C   LIG    1       -0.929   1.691   1.345  0.00  0.00    +0.002 A 
ATOM      8  C   LIG    1        0.227   2.278   0.866  0.00  0.00    +0.007 A 
ATOM      9  C   LIG    1        1.265   1.488   0.408  0.00  0.00    -0.007 A 
ATOM     10  C   LIG    1        1.148   0.111   0.429  0.00  0.00    +0.027 A 
ATOM     11  C   LIG    1       -0.009  -0.477   0.908  0.00  0.00    +0.041 A 
ATOM     12 CL   LIG    1       -0.158  -2.206   0.934  0.00  0.00    -0.084 Cl
ATOM     13  C   LIG    1       -1.048   0.314   1.366  0.00  0.00    +0.020 A 
ENDBRANCH   3   9
ENDBRANCH   1   3
BRANCH   1  14
ATOM     14  C   LIG    1        2.738   3.948   1.525  0.00  0.00    +0.401 C 
ATOM     15  N   LIG    1        2.798   5.225   1.822  0.00  0.00    -0.071 NA
BRANCH  15  16
ATOM     16  C   LIG    1        2.868   6.158   0.822  0.00  0.00    +0.160 A 
ATOM     17  C   LIG    1        1.923   7.189   0.742  0.00  0.00    +0.049 A 
ATOM     18  C   LIG    1        2.038   8.106  -0.287  0.00  0.00    +0.023 A 
ATOM     19  C   LIG    1        3.073   7.977  -1.196  0.00  0.00    +0.111 A 
ATOM     20  N   LIG    1        3.949   6.996  -1.097  0.00  0.00    -0.260 NA
ATOM     21  C   LIG    1        3.886   6.102  -0.132  0.00  0.00    +0.156 A 
ENDBRANCH  15  16
BRANCH  14  22
ATOM     22  N   LIG    1        2.796   3.005   2.527  0.00  0.00    -0.177 N 
ATOM     23  H   LIG    1        2.677   2.066   2.315  0.00  0.00    +0.278 HD
BRANCH  22  24
ATOM     24  C   LIG    1        3.017   3.389   3.807  0.00  0.00    +0.255 C 
ATOM     25  N   LIG    1        3.203   3.711   4.880  0.00  0.00    -0.154 NA
ENDBRANCH  22  24
ENDBRANCH  14  22
ENDBRANCH   1  14
TORSDOF 6
