REMARK  Name = ZINC03960325
REMARK                            x       y       z     vdW  Elec       q    Type
REMARK                         _______ _______ _______ _____ _____    ______ ____
ROOT
ATOM      1  C   LIG    1        9.046   4.145  -1.065  0.00  0.00    +0.074 C 
ATOM      2  C   LIG    1        7.724   4.906  -1.180  0.00  0.00    +0.165 C 
ATOM      3  C   LIG    1        7.939   6.182  -1.997  0.00  0.00    +0.074 C 
ATOM      4  O   LIG    1        6.754   4.081  -1.831  0.00  0.00    -0.347 OA
ATOM      5  C   LIG    1        6.462   2.870  -1.127  0.00  0.00    +0.188 C 
ATOM      6  C   LIG    1        5.962   3.220   0.279  0.00  0.00    +0.133 C 
ATOM      7  C   LIG    1        6.998   4.118   0.963  0.00  0.00    +0.174 C 
ATOM      8  O   LIG    1        7.257   5.250   0.127  0.00  0.00    -0.339 OA
ENDROOT
BRANCH   6   9
ATOM      9  N   LIG    1        4.684   3.930   0.183  0.00  0.00    -0.291 N 
ATOM     10  H   LIG    1        4.667   4.899   0.188  0.00  0.00    +0.151 HD
ATOM     11  C   LIG    1        3.533   3.235   0.088  0.00  0.00    +0.304 C 
ATOM     12  N   LIG    1        2.357   3.888   0.000  0.00  0.00    -0.268 N 
ATOM     13  H   LIG    1        2.344   4.855  -0.077  0.00  0.00    +0.156 HD
ATOM     14  O   LIG    1        3.555   2.019   0.082  0.00  0.00    -0.252 OA
BRANCH  12  15
ATOM     15  C   LIG    1        1.155   3.171   0.021  0.00  0.00    +0.049 A 
ATOM     16  C   LIG    1        1.100   1.922   0.625  0.00  0.00    +0.025 A 
ATOM     17  C   LIG    1       -0.087   1.217   0.644  0.00  0.00    +0.017 A 
ATOM     18  C   LIG    1       -1.221   1.752   0.057  0.00  0.00    +0.019 A 
ATOM     19 BR   LIG    1       -2.843   0.779   0.079  0.00  0.00    -0.050 Br
ATOM     20  C   LIG    1       -1.171   2.998  -0.540  0.00  0.00    +0.032 A 
ATOM     21  C   LIG    1        0.014   3.708  -0.563  0.00  0.00    +0.040 A 
ATOM     22 BR   LIG    1        0.084   5.409  -1.387  0.00  0.00    -0.048 Br
ENDBRANCH  12  15
ENDBRANCH   6   9
BRANCH   7  23
ATOM     23  C   LIG    1        6.463   4.584   2.292  0.00  0.00    -0.017 A 
ATOM     24  C   LIG    1        5.572   5.640   2.346  0.00  0.00    +0.006 A 
ATOM     25  C   LIG    1        5.077   6.065   3.565  0.00  0.00    +0.000 A 
ATOM     26  C   LIG    1        5.480   5.441   4.730  0.00  0.00    +0.000 A 
ATOM     27  C   LIG    1        6.374   4.388   4.677  0.00  0.00    +0.000 A 
ATOM     28  C   LIG    1        6.866   3.960   3.458  0.00  0.00    +0.006 A 
ENDBRANCH   7  23
TORSDOF 3
