REMARK  Name = ZINC03995954
REMARK                            x       y       z     vdW  Elec       q    Type
REMARK                         _______ _______ _______ _____ _____    ______ ____
ROOT
ATOM      1  C   LIG    1        2.009  -2.547  -4.448  0.00  0.00    +0.144 C 
ENDROOT
BRANCH   1   5
ATOM      2  C   LIG    1        2.390   0.043  -1.071  0.00  0.00    +0.120 A 
ATOM      3  C   LIG    1        1.598   0.416  -2.147  0.00  0.00    +0.046 A 
ATOM      4  C   LIG    1        1.476  -0.423  -3.237  0.00  0.00    +0.011 A 
ATOM      5  C   LIG    1        2.144  -1.633  -3.257  0.00  0.00    -0.007 A 
ATOM      6  C   LIG    1        2.934  -2.008  -2.187  0.00  0.00    +0.011 A 
ATOM      7  C   LIG    1        3.063  -1.170  -1.096  0.00  0.00    +0.046 A 
BRANCH   2   9
ATOM      8  C   LIG    1        1.789   2.099  -0.039  0.00  0.00    +0.277 C 
ATOM      9  O   LIG    1        2.511   0.866   0.004  0.00  0.00    -0.495 OA
ENDBRANCH   2   9
ENDBRANCH   1   5
BRANCH   1  10
ATOM     10  C   LIG    1        0.569  -2.584  -4.893  0.00  0.00    -0.007 A 
ATOM     11  C   LIG    1       -0.443  -2.400  -3.969  0.00  0.00    +0.011 A 
ATOM     12  C   LIG    1       -1.763  -2.433  -4.374  0.00  0.00    +0.046 A 
ATOM     13  C   LIG    1       -2.073  -2.651  -5.708  0.00  0.00    +0.120 A 
ATOM     14  C   LIG    1       -1.056  -2.835  -6.633  0.00  0.00    +0.046 A 
ATOM     15  C   LIG    1        0.263  -2.796  -6.224  0.00  0.00    +0.011 A 
BRANCH  13  16
ATOM     16  O   LIG    1       -3.372  -2.685  -6.109  0.00  0.00    -0.495 OA
ATOM     17  C   LIG    1       -3.616  -2.914  -7.498  0.00  0.00    +0.277 C 
ENDBRANCH  13  16
ENDBRANCH   1  10
BRANCH   1  18
ATOM     18  C   LIG    1        2.453  -3.936  -4.069  0.00  0.00    -0.007 A 
ATOM     19  C   LIG    1        1.723  -4.668  -3.151  0.00  0.00    +0.011 A 
ATOM     20  C   LIG    1        2.128  -5.941  -2.801  0.00  0.00    +0.046 A 
ATOM     21  C   LIG    1        3.269  -6.486  -3.372  0.00  0.00    +0.120 A 
ATOM     22  C   LIG    1        4.000  -5.750  -4.294  0.00  0.00    +0.046 A 
ATOM     23  C   LIG    1        3.587  -4.479  -4.644  0.00  0.00    +0.011 A 
BRANCH  21  24
ATOM     24  O   LIG    1        3.670  -7.739  -3.030  0.00  0.00    -0.495 OA
ATOM     25  C   LIG    1        4.853  -8.236  -3.658  0.00  0.00    +0.277 C 
ENDBRANCH  21  24
ENDBRANCH   1  18
BRANCH   1  26
ATOM     26  O   LIG    1        2.825  -2.061  -5.516  0.00  0.00    -0.361 OA
BRANCH  26  27
ATOM     27  C   LIG    1        2.517  -0.726  -5.921  0.00  0.00    +0.143 C 
BRANCH  27  28
ATOM     28  C   LIG    1        3.459  -0.306  -7.051  0.00  0.00    -0.050 C 
BRANCH  28  29
ATOM     29  N   LIG    1        3.200  -1.133  -8.238  0.00  0.00    +0.382 N 
ATOM     30  H   LIG    1        3.243  -2.108  -7.982  0.00  0.00    -0.082 HD
ATOM     31  C   LIG    1        4.215  -0.852  -9.259  0.00  0.00    -0.079 C 
ATOM     32  C   LIG    1        3.998  -1.769 -10.465  0.00  0.00    -0.018 C 
ATOM     33  C   LIG    1        2.604  -1.518 -11.046  0.00  0.00    +0.011 C 
ATOM     34  C   LIG    1        1.557  -1.742  -9.951  0.00  0.00    +0.081 C 
ATOM     35  C   LIG    1        1.865  -0.826  -8.764  0.00  0.00    -0.064 C 
BRANCH  34  36
ATOM     36  C   LIG    1        0.187  -1.423 -10.492  0.00  0.00    +0.306 C 
ATOM     37  O   LIG    1       -0.250  -2.042 -11.447  0.00  0.00    -0.251 OA
BRANCH  36  38
ATOM     38  O   LIG    1       -0.484  -0.547  -9.974  0.00  0.00    -0.480 OA
ATOM     39  H   LIG    1       -0.148  -0.072  -9.240  0.00  0.00    +0.295 HD
ENDBRANCH  36  38
ENDBRANCH  34  36
ENDBRANCH  28  29
ENDBRANCH  27  28
ENDBRANCH  26  27
ENDBRANCH   1  26
TORSDOF 12
