REMARK  Name = ZINC03952380
REMARK                            x       y       z     vdW  Elec       q    Type
REMARK                         _______ _______ _______ _____ _____    ______ ____
ROOT
ATOM      1  C   LIG    1        0.261   1.853   2.002  0.00  0.00    +0.217 A 
ATOM      2  N   LIG    1        1.329   2.636   1.869  0.00  0.00    -0.222 NA
ATOM      3  C   LIG    1        2.546   2.179   2.080  0.00  0.00    +0.126 A 
ATOM      4  C   LIG    1        2.701   0.833   2.453  0.00  0.00    +0.038 A 
ATOM      5  C   LIG    1        3.966   0.271   2.695  0.00  0.00    +0.025 A 
ATOM      6  C   LIG    1        4.024  -1.065   3.058  0.00  0.00    +0.026 A 
ATOM      7  C   LIG    1        2.829  -1.806   3.171  0.00  0.00    +0.136 A 
ATOM      8  N   LIG    1        1.654  -1.256   2.939  0.00  0.00    -0.212 NA
ATOM      9  C   LIG    1        1.542   0.026   2.586  0.00  0.00    +0.167 A 
ATOM     10  N   LIG    1        0.347   0.583   2.350  0.00  0.00    -0.195 NA
ENDROOT
BRANCH   6  11
ATOM     11  C   LIG    1        5.332  -1.711   3.325  0.00  0.00    +0.022 A 
ATOM     12  C   LIG    1        6.030  -2.333   2.290  0.00  0.00    +0.050 A 
ATOM     13 CL   LIG    1        5.369  -2.354   0.684  0.00  0.00    -0.083 Cl
ATOM     14  C   LIG    1        7.250  -2.928   2.544  0.00  0.00    +0.021 A 
ATOM     15  C   LIG    1        7.775  -2.917   3.823  0.00  0.00    +0.003 A 
ATOM     16  C   LIG    1        7.085  -2.307   4.855  0.00  0.00    +0.021 A 
ATOM     17  C   LIG    1        5.866  -1.704   4.613  0.00  0.00    +0.050 A 
ATOM     18 CL   LIG    1        5.002  -0.939   5.909  0.00  0.00    -0.083 Cl
ENDBRANCH   6  11
BRANCH   7  19
ATOM     19  N   LIG    1        2.891  -3.143   3.535  0.00  0.00    -0.254 N 
ATOM     20  H   LIG    1        3.750  -3.559   3.709  0.00  0.00    +0.158 HD
ATOM     21  C   LIG    1        1.758  -3.865   3.647  0.00  0.00    +0.305 C 
ATOM     22  N   LIG    1        1.819  -5.164   4.001  0.00  0.00    -0.294 N 
ATOM     23  H   LIG    1        2.679  -5.580   4.175  0.00  0.00    +0.151 HD
ATOM     24  O   LIG    1        0.682  -3.344   3.429  0.00  0.00    -0.252 OA
BRANCH  22  25
ATOM     25  C   LIG    1        0.588  -5.949   4.123  0.00  0.00    +0.028 C 
ATOM     26  C   LIG    1       -0.315  -5.318   5.185  0.00  0.00    +0.031 C 
ATOM     27  C   LIG    1        0.935  -7.381   4.533  0.00  0.00    +0.031 C 
ATOM     28  C   LIG    1       -0.141  -5.966   2.778  0.00  0.00    +0.031 C 
ENDBRANCH  22  25
ENDBRANCH   7  19
BRANCH   1  29
ATOM     29  N   LIG    1       -0.990   2.390   1.762  0.00  0.00    -0.313 N 
ATOM     30  H   LIG    1       -1.781   1.836   1.849  0.00  0.00    +0.149 HD
BRANCH  29  31
ATOM     31  C   LIG    1       -1.120   3.797   1.374  0.00  0.00    +0.104 C 
BRANCH  31  32
ATOM     32  C   LIG    1       -2.598   4.134   1.169  0.00  0.00    +0.017 C 
BRANCH  32  33
ATOM     33  C   LIG    1       -2.735   5.604   0.764  0.00  0.00    -0.017 C 
BRANCH  33  34
ATOM     34  C   LIG    1       -4.213   5.941   0.559  0.00  0.00    -0.079 C 
BRANCH  34  35
ATOM     35  N   LIG    1       -4.329   7.367   0.189  0.00  0.00    +0.379 N 
ATOM     36  H   LIG    1       -3.817   7.933   0.876  0.00  0.00    -0.082 HD
BRANCH  35  38
ATOM     37  C   LIG    1       -4.466   6.745  -2.199  0.00  0.00    -0.017 C 
ATOM     38  C   LIG    1       -3.744   7.592  -1.149  0.00  0.00    -0.082 C 
ENDBRANCH  35  38
BRANCH  35  39
ATOM     39  C   LIG    1       -5.750   7.776   0.195  0.00  0.00    -0.082 C 
ATOM     40  C   LIG    1       -5.821   9.305   0.174  0.00  0.00    -0.017 C 
ENDBRANCH  35  39
ENDBRANCH  34  35
ENDBRANCH  33  34
ENDBRANCH  32  33
ENDBRANCH  31  32
ENDBRANCH  29  31
ENDBRANCH   1  29
TORSDOF 11
