REMARK  Name = ZINC03952369
REMARK                            x       y       z     vdW  Elec       q    Type
REMARK                         _______ _______ _______ _____ _____    ______ ____
ROOT
ATOM      1  C   LIG    1       -0.018   1.440   0.010  0.00  0.00    +0.159 C 
ATOM      2  C   LIG    1        1.484   1.822  -0.002  0.00  0.00    +0.058 C 
ATOM      3  C   LIG    1        2.106   0.728   0.899  0.00  0.00    +0.036 C 
ATOM      4  C   LIG    1        2.485  -0.607   0.257  0.00  0.00    +0.131 C 
ATOM      5  C   LIG    1        1.071  -0.414   0.873  0.00  0.00    +0.135 C 
ATOM      6  O   LIG    1        0.002  -0.004   0.002  0.00  0.00    -0.376 OA
ENDROOT
BRANCH   2   7
ATOM      7  N   LIG    1        2.031   1.751  -1.364  0.00  0.00    +0.391 N 
ATOM      8  H   LIG    1        1.911   0.817  -1.727  0.00  0.00    -0.088 HD
ATOM      9  H   LIG    1        3.014   1.980  -1.344  0.00  0.00    -0.088 HD
ATOM     10  H   LIG    1        1.545   2.407  -1.956  0.00  0.00    -0.088 HD
ENDBRANCH   2   7
BRANCH   2  11
ATOM     11  C   LIG    1        1.695   3.191   0.592  0.00  0.00    +0.296 C 
ATOM     12  O   LIG    1        1.339   3.420   1.735  0.00  0.00    -0.253 OA
BRANCH  11  13
ATOM     13  O   LIG    1        2.222   4.068  -0.070  0.00  0.00    -0.482 OA
ATOM     14  H   LIG    1        2.495   3.892  -0.949  0.00  0.00    +0.295 HD
ENDBRANCH  11  13
ENDBRANCH   2  11
BRANCH   4  15
ATOM     15  C   LIG    1        3.447  -1.491   1.008  0.00  0.00    +0.311 C 
ATOM     16  O   LIG    1        3.383  -2.702   0.888  0.00  0.00    -0.251 OA
BRANCH  15  17
ATOM     17  O   LIG    1        4.289  -0.994   1.737  0.00  0.00    -0.480 OA
ATOM     18  H   LIG    1        4.338  -0.063   1.830  0.00  0.00    +0.295 HD
ENDBRANCH  15  17
ENDBRANCH   4  15
TORSDOF 5
