REMARK  Name = ZINC04018167
REMARK                            x       y       z     vdW  Elec       q    Type
REMARK                         _______ _______ _______ _____ _____    ______ ____
ROOT
ATOM      1  C   LIG    1        2.367   4.004   0.001  0.00  0.00    +0.018 C 
ENDROOT
BRANCH   1   2
ATOM      2  C   LIG    1        1.106   3.179   0.008  0.00  0.00    -0.031 A 
ATOM      3  C   LIG    1        1.173   1.794   0.001  0.00  0.00    +0.006 A 
ATOM      4  C   LIG    1       -0.013   1.076   0.008  0.00  0.00    +0.020 A 
ATOM      5  C   LIG    1       -1.214   1.759   0.017  0.00  0.00    +0.111 A 
ATOM      6  N   LIG    1       -1.240   3.078   0.030  0.00  0.00    -0.263 NA
ATOM      7  C   LIG    1       -0.132   3.793   0.023  0.00  0.00    +0.114 A 
ENDBRANCH   1   2
BRANCH   1   8
ATOM      8  C   LIG    1        2.781   4.291  -1.444  0.00  0.00    -0.075 C 
BRANCH   8  10
ATOM      9  C   LIG    1        5.142   4.332  -0.908  0.00  0.00    -0.097 C 
ATOM     10  N   LIG    1        4.006   5.118  -1.434  0.00  0.00    +0.376 N 
ATOM     11  H   LIG    1        3.854   5.931  -0.827  0.00  0.00    -0.083 HD
ATOM     12  C   LIG    1        4.308   5.589  -2.802  0.00  0.00    -0.097 C 
ENDBRANCH   8  10
ENDBRANCH   1   8
TORSDOF 3
