REMARK  Name = ZINC03925938
REMARK                            x       y       z     vdW  Elec       q    Type
REMARK                         _______ _______ _______ _____ _____    ______ ____
ROOT
ATOM      1  C   LIG    1       -1.169   3.057   1.025  0.00  0.00    +0.160 C 
ATOM      2  C   LIG    1       -1.183   2.283  -0.304  0.00  0.00    +0.221 C 
ATOM      3  C   LIG    1        0.145   1.577  -0.458  0.00  0.00    +0.165 C 
ATOM      4  C   LIG    1        1.417   2.389  -0.374  0.00  0.00    +0.080 C 
ATOM      5  C   LIG    1        1.417   3.164   0.949  0.00  0.00    +0.048 C 
ATOM      6  O   LIG    1        0.189   0.385  -0.650  0.00  0.00    -0.295 OA
ATOM      7  C   LIG    1        0.093   3.921   1.082  0.00  0.00    +0.127 C 
ATOM      8  C   LIG    1        0.068   5.165   1.968  0.00  0.00    +0.198 C 
ATOM      9  O   LIG    1        0.023   5.240   0.542  0.00  0.00    -0.365 OA
ENDROOT
BRANCH   1  11
ATOM     10  C   LIG    1       -2.858   4.420   2.492  0.00  0.00    +0.157 C 
ATOM     11  C   LIG    1       -2.406   3.953   1.107  0.00  0.00    +0.128 C 
ATOM     12  C   LIG    1       -2.615   4.907  -0.071  0.00  0.00    +0.047 C 
ATOM     13  O   LIG    1       -3.569   3.425   1.750  0.00  0.00    -0.362 OA
BRANCH  10  14
ATOM     14  C   LIG    1       -3.487   5.810   2.605  0.00  0.00    +0.061 C 
BRANCH  14  18
ATOM     15  C   LIG    1       -2.333   8.099   3.780  0.00  0.00    +0.038 C 
ATOM     16  C   LIG    1       -3.258   7.222   4.584  0.00  0.00    -0.080 C 
ATOM     17  C   LIG    1       -3.622   7.605   5.995  0.00  0.00    +0.038 C 
ATOM     18  C   LIG    1       -3.747   6.128   4.055  0.00  0.00    -0.026 C 
ENDBRANCH  14  18
ENDBRANCH  10  14
ENDBRANCH   1  11
BRANCH   1  19
ATOM     19  O   LIG    1       -1.168   2.137   2.119  0.00  0.00    -0.380 OA
ATOM     20  H   LIG    1       -0.411   1.535   2.126  0.00  0.00    +0.211 HD
ENDBRANCH   1  19
BRANCH   2  21
ATOM     21  O   LIG    1       -2.239   1.321  -0.290  0.00  0.00    -0.369 OA
ATOM     22  C   LIG    1       -2.770   1.022  -1.583  0.00  0.00    +0.195 C 
ENDBRANCH   2  21
TORSDOF 5
