REMARK  Name = ZINC03995486
REMARK                            x       y       z     vdW  Elec       q    Type
REMARK                         _______ _______ _______ _____ _____    ______ ____
ROOT
ATOM      1  N   LIG    1       -5.165   4.793   8.517  0.00  0.00    -0.259 N 
ATOM      2  C   LIG    1       -4.235   5.146   7.606  0.00  0.00    +0.282 A 
ATOM      3  C   LIG    1       -3.888   4.234   6.587  0.00  0.00    +0.147 A 
ATOM      4  C   LIG    1       -4.515   2.993   6.545  0.00  0.00    +0.143 A 
ATOM      5  N   LIG    1       -4.023   2.326   5.500  0.00  0.00    -0.326 N 
ATOM      6  H   LIG    1       -4.305   1.380   5.216  0.00  0.00    +0.169 HD
ATOM      7  C   LIG    1       -3.120   3.066   4.885  0.00  0.00    +0.118 A 
ATOM      8  N   LIG    1       -5.463   2.691   7.510  0.00  0.00    -0.292 N 
ATOM      9  H   LIG    1       -5.911   1.831   7.497  0.00  0.00    +0.172 HD
ATOM     10  N   LIG    1       -3.005   4.262   5.525  0.00  0.00    -0.334 N 
ATOM     11  H   LIG    1       -2.398   5.016   5.274  0.00  0.00    +0.168 HD
ATOM     12  O   LIG    1       -3.700   6.239   7.664  0.00  0.00    -0.265 OA
ATOM     13  C   LIG    1       -5.764   3.591   8.466  0.00  0.00    +0.331 A 
ATOM     14  O   LIG    1       -6.598   3.308   9.304  0.00  0.00    -0.246 OA
ENDROOT
BRANCH   7  15
ATOM     15  C   LIG    1       -2.357   2.660   3.686  0.00  0.00    +0.016 A 
ATOM     16  C   LIG    1       -2.562   1.402   3.117  0.00  0.00    +0.013 A 
ATOM     17  C   LIG    1       -1.846   1.030   1.998  0.00  0.00    +0.030 A 
ATOM     18  C   LIG    1       -0.927   1.900   1.439  0.00  0.00    +0.117 A 
ATOM     19  C   LIG    1       -0.715   3.146   2.002  0.00  0.00    +0.030 A 
ATOM     20  C   LIG    1       -1.427   3.533   3.118  0.00  0.00    +0.013 A 
BRANCH  18  21
ATOM     21  S   LIG    1       -0.017   1.417   0.010  0.00  0.00    +0.110 S 
ATOM     22  O   LIG    1        1.172   2.195   0.003  0.00  0.00    -0.142 OA
ATOM     23  O   LIG    1        0.002  -0.004   0.002  0.00  0.00    -0.142 OA
BRANCH  21  24
ATOM     24  O   LIG    1       -0.826   1.847  -1.205  0.00  0.00    -0.250 OA
ATOM     25  H   LIG    1       -1.652   1.339  -1.241  0.00  0.00    +0.245 HD
ENDBRANCH  21  24
ENDBRANCH  18  21
ENDBRANCH   7  15
BRANCH   1  26
ATOM     26  C   LIG    1       -5.528   5.734   9.579  0.00  0.00    +0.130 C 
BRANCH  26  28
ATOM     27  C   LIG    1       -5.000   6.495  11.900  0.00  0.00    +0.005 C 
ATOM     28  C   LIG    1       -4.621   5.511  10.791  0.00  0.00    +0.018 C 
ENDBRANCH  26  28
ENDBRANCH   1  26
TORSDOF 5
