REMARK  Name = ZINC03964101
REMARK                            x       y       z     vdW  Elec       q    Type
REMARK                         _______ _______ _______ _____ _____    ______ ____
ROOT
ATOM      1  N   LIG    1        7.457  -0.594  -7.745  0.00  0.00    +0.384 N 
ATOM      2  H   LIG    1        7.682   0.300  -7.336  0.00  0.00    -0.081 HD
ATOM      3  C   LIG    1        6.126  -0.548  -8.402  0.00  0.00    -0.077 C 
ATOM      4  C   LIG    1        6.384   0.147  -9.756  0.00  0.00    +0.002 C 
ATOM      5  C   LIG    1        7.879  -0.091 -10.051  0.00  0.00    +0.055 C 
ATOM      6  C   LIG    1        8.399  -0.911  -8.850  0.00  0.00    -0.056 C 
ENDROOT
BRANCH   5   7
ATOM      7  N   LIG    1        8.038  -0.849 -11.294  0.00  0.00    -0.310 N 
ATOM      8  H   LIG    1        8.113  -1.816 -11.266  0.00  0.00    +0.149 HD
ATOM      9  C   LIG    1        8.080  -0.204 -12.476  0.00  0.00    +0.244 C 
ATOM     10  O   LIG    1        7.985   1.008 -12.511  0.00  0.00    -0.270 OA
BRANCH   9  11
ATOM     11  C   LIG    1        8.240  -0.969 -13.731  0.00  0.00    +0.038 A 
ATOM     12  C   LIG    1        8.343  -2.361 -13.694  0.00  0.00    +0.014 A 
ATOM     13  C   LIG    1        8.492  -3.070 -14.867  0.00  0.00    +0.022 A 
ATOM     14  C   LIG    1        8.541  -2.404 -16.081  0.00  0.00    +0.059 A 
ATOM     15 CL   LIG    1        8.731  -3.304 -17.554  0.00  0.00    -0.082 Cl
ATOM     16  C   LIG    1        8.440  -1.023 -16.124  0.00  0.00    +0.060 A 
ATOM     17 CL   LIG    1        8.502  -0.197 -17.650  0.00  0.00    -0.082 Cl
ATOM     18  C   LIG    1        8.283  -0.303 -14.957  0.00  0.00    +0.034 A 
ENDBRANCH   9  11
ENDBRANCH   5   7
BRANCH   1  19
ATOM     19  C   LIG    1        7.490  -1.649  -6.724  0.00  0.00    -0.043 C 
BRANCH  19  23
ATOM     20  C   LIG    1        5.029  -0.512  -3.420  0.00  0.00    +0.121 A 
ATOM     21  C   LIG    1        4.487  -1.229  -4.477  0.00  0.00    +0.046 A 
ATOM     22  C   LIG    1        5.284  -1.595  -5.544  0.00  0.00    +0.005 A 
ATOM     23  C   LIG    1        6.622  -1.248  -5.559  0.00  0.00    -0.064 A 
ATOM     24  C   LIG    1        7.166  -0.534  -4.507  0.00  0.00    +0.005 A 
ATOM     25  C   LIG    1        6.371  -0.160  -3.441  0.00  0.00    +0.046 A 
BRANCH  20  26
ATOM     26  O   LIG    1        4.247  -0.150  -2.370  0.00  0.00    -0.492 OA
BRANCH  26  27
ATOM     27  C   LIG    1        2.875  -0.547  -2.416  0.00  0.00    +0.227 C 
BRANCH  27  28
ATOM     28  C   LIG    1        2.159  -0.053  -1.157  0.00  0.00    +0.022 C 
BRANCH  28  29
ATOM     29  C   LIG    1        0.690  -0.478  -1.207  0.00  0.00    -0.076 C 
BRANCH  29  31
ATOM     30  C   LIG    1       -0.018   1.465   0.010  0.00  0.00    -0.097 C 
ATOM     31  N   LIG    1        0.002  -0.004   0.002  0.00  0.00    +0.376 N 
ATOM     32  H   LIG    1        0.490  -0.338   0.820  0.00  0.00    -0.083 HD
ATOM     33  C   LIG    1       -1.376  -0.512   0.012  0.00  0.00    -0.097 C 
ENDBRANCH  29  31
ENDBRANCH  28  29
ENDBRANCH  27  28
ENDBRANCH  26  27
ENDBRANCH  20  26
ENDBRANCH  19  23
ENDBRANCH   1  19
TORSDOF 9
