REMARK  Name = ZINC04042476
REMARK                            x       y       z     vdW  Elec       q    Type
REMARK                         _______ _______ _______ _____ _____    ______ ____
ROOT
ATOM      1  C   LIG    1       -1.201  -0.638   0.010  0.00  0.00    +0.166 A 
ATOM      2  C   LIG    1       -2.369   0.100   0.019  0.00  0.00    +0.057 A 
ATOM      3  C   LIG    1       -3.607  -0.554   0.028  0.00  0.00    -0.018 A 
ATOM      4  C   LIG    1       -3.657  -1.953   0.027  0.00  0.00    +0.057 A 
ATOM      5  C   LIG    1       -2.484  -2.684   0.017  0.00  0.00    +0.166 A 
ATOM      6  C   LIG    1       -1.254  -2.030   0.003  0.00  0.00    +0.204 A 
ENDROOT
BRANCH   1   8
ATOM      7  C   LIG    1       -0.017   1.425   0.010  0.00  0.00    +0.277 C 
ATOM      8  O   LIG    1        0.002  -0.004   0.002  0.00  0.00    -0.491 OA
ENDBRANCH   1   8
BRANCH   3   9
ATOM      9  C   LIG    1       -4.852   0.227   0.038  0.00  0.00    +0.012 C 
ATOM     10  C   LIG    1       -6.047  -0.406   0.046  0.00  0.00    +0.052 C 
BRANCH  10  11
ATOM     11  C   LIG    1       -7.285   0.370   0.057  0.00  0.00    +0.190 C 
ATOM     12  O   LIG    1       -7.240   1.587   0.058  0.00  0.00    -0.287 OA
BRANCH  11  13
ATOM     13  C   LIG    1       -8.589  -0.321   0.066  0.00  0.00    +0.063 A 
ATOM     14  C   LIG    1       -8.645  -1.717   0.070  0.00  0.00    +0.015 A 
ATOM     15  C   LIG    1       -9.866  -2.356   0.078  0.00  0.00    +0.001 A 
ATOM     16  C   LIG    1      -11.040  -1.620   0.082  0.00  0.00    +0.004 A 
ATOM     17  C   LIG    1      -10.999  -0.240   0.078  0.00  0.00    +0.046 A 
ATOM     18  C   LIG    1       -9.779   0.420   0.076  0.00  0.00    +0.128 A 
BRANCH  18  19
ATOM     19  O   LIG    1       -9.738   1.776   0.078  0.00  0.00    -0.506 OA
ATOM     20  H   LIG    1       -9.732   2.171  -0.805  0.00  0.00    +0.292 HD
ENDBRANCH  18  19
ENDBRANCH  11  13
ENDBRANCH  10  11
ENDBRANCH   3   9
BRANCH   5  21
ATOM     21  O   LIG    1       -2.531  -4.043   0.016  0.00  0.00    -0.491 OA
ATOM     22  C   LIG    1       -3.826  -4.647   0.026  0.00  0.00    +0.277 C 
ENDBRANCH   5  21
BRANCH   6  23
ATOM     23  O   LIG    1       -0.103  -2.752  -0.012  0.00  0.00    -0.488 OA
ATOM     24  C   LIG    1        0.459  -3.103   1.254  0.00  0.00    +0.277 C 
ENDBRANCH   6  23
TORSDOF 7
