REMARK  Name = ZINC03922715
REMARK                            x       y       z     vdW  Elec       q    Type
REMARK                         _______ _______ _______ _____ _____    ______ ____
ROOT
ATOM      1  C   UNK A  2        1.804  -1.655   5.388  0.00  0.00    +0.163 C 
ENDROOT
BRANCH   1   3
ATOM      2  C   LEU A  1        0.901  -0.163   3.686  0.00  0.00    +0.234 C 
ATOM      3  N   UNK A  2        1.096  -1.422   4.126  0.00  0.00    -0.302 N 
ATOM      4  H   UNK A  2        0.768  -2.173   3.608  0.00  0.00    +0.150 HD
ATOM      5  O   LEU A  1        1.382   0.772   4.290  0.00  0.00    -0.274 OA
BRANCH   2   6
ATOM      6  CA  LEU A  1        0.085   0.083   2.443  0.00  0.00    +0.161 C 
BRANCH   6   7
ATOM      7  N   LEU A  1       -0.356   1.480   2.417  0.00  0.00    -0.288 N 
ATOM      8  H   LEU A  1        0.177   2.165   2.850  0.00  0.00    +0.151 HD
ATOM      9  C   UNK A  0       -1.502   1.813   1.791  0.00  0.00    +0.303 C 
ATOM     10  N   UNK A  0       -1.855   3.109   1.676  0.00  0.00    -0.286 N 
ATOM     11  C   UNK A  0       -0.980   4.117   2.231  0.00  0.00    +0.109 C 
ATOM     12  C   UNK A  0       -1.365   4.385   3.706  0.00  0.00    +0.019 C 
ATOM     13  C   UNK A  0       -2.646   5.105   3.778  0.00  0.00    +0.002 C 
ATOM     14  C   UNK A  0       -3.833   4.332   3.212  0.00  0.00    +0.002 C 
ATOM     15  C   UNK A  0       -3.903   4.545   1.720  0.00  0.00    +0.019 C 
ATOM     16  C   UNK A  0       -3.116   3.440   0.985  0.00  0.00    +0.109 C 
ATOM     17  O   UNK A  0       -2.217   0.945   1.329  0.00  0.00    -0.253 OA
ENDBRANCH   6   7
BRANCH   6  18
ATOM     18  CB  LEU A  1        0.939  -0.206   1.207  0.00  0.00    +0.034 C 
BRANCH  18  20
ATOM     19  CD1 LEU A  1        0.011  -2.510   0.933  0.00  0.00    +0.007 C 
ATOM     20  CG  LEU A  1        1.286  -1.696   1.164  0.00  0.00    -0.015 C 
ATOM     21  CD2 LEU A  1        2.271  -1.956   0.023  0.00  0.00    +0.007 C 
ENDBRANCH  18  20
ENDBRANCH   6  18
ENDBRANCH   2   6
ENDBRANCH   1   3
BRANCH   1  22
ATOM     22  C   UNK A  2        1.381  -2.983   5.962  0.00  0.00    +0.234 C 
ATOM     23  N   UNK A  3        1.905  -3.410   7.128  0.00  0.00    -0.301 N 
ATOM     24  H   UNK A  3        2.555  -2.864   7.597  0.00  0.00    +0.150 HD
ATOM     25  O   UNK A  2        0.569  -3.667   5.376  0.00  0.00    -0.274 OA
BRANCH  23  26
ATOM     26  C   UNK A  3        1.495  -4.701   7.686  0.00  0.00    +0.187 C 
BRANCH  26  27
ATOM     27  C   UNK A  3        2.326  -5.800   7.076  0.00  0.00    +0.326 C 
ATOM     28  O   UNK A  3        3.467  -5.572   6.715  0.00  0.00    -0.249 OA
BRANCH  27  29
ATOM     29  O   UNK A  3        1.856  -6.917   6.943  0.00  0.00    -0.479 OA
ATOM     30  H   UNK A  3        0.978  -7.093   7.220  0.00  0.00    +0.295 HD
ENDBRANCH  27  29
ENDBRANCH  26  27
BRANCH  26  31
ATOM     31  C   UNK A  3        1.700  -4.689   9.202  0.00  0.00    +0.089 C 
BRANCH  31  32
ATOM     32  C   UNK A  3        0.777  -3.673   9.826  0.00  0.00    +0.044 A 
ATOM     33  C   UNK A  3       -0.084  -4.061  10.835  0.00  0.00    +0.023 A 
ATOM     34  C   UNK A  3       -0.928  -3.119  11.402  0.00  0.00    +0.003 A 
ATOM     35  C   UNK A  3       -0.874  -1.816  10.931  0.00  0.00    +0.020 A 
ATOM     36  C   UNK A  3        0.013  -1.502   9.918  0.00  0.00    +0.111 A 
ATOM     37  N   UNK A  3        0.805  -2.424   9.406  0.00  0.00    -0.260 NA
ENDBRANCH  31  32
ENDBRANCH  26  31
ENDBRANCH  23  26
ENDBRANCH   1  22
BRANCH   1  38
ATOM     38  C   UNK A  2        3.312  -1.667   5.132  0.00  0.00    +0.069 C 
BRANCH  38  39
ATOM     39  C   UNK A  2        3.755  -0.302   4.674  0.00  0.00    -0.020 A 
ATOM     40  C   UNK A  2        3.897   0.107   3.403  0.00  0.00    +0.090 A 
ATOM     41  N   UNK A  2        4.316   1.409   3.376  0.00  0.00    -0.349 N 
ATOM     42  C   UNK A  2        4.575   2.185   2.160  0.00  0.00    +0.149 C 
ATOM     43  C   UNK A  2        4.457   1.883   4.661  0.00  0.00    +0.049 A 
ATOM     44  C   UNK A  2        4.846   3.107   5.193  0.00  0.00    +0.026 A 
ATOM     45  C   UNK A  2        4.873   3.282   6.560  0.00  0.00    +0.002 A 
ATOM     46  C   UNK A  2        4.530   2.243   7.413  0.00  0.00    +0.001 A 
ATOM     47  C   UNK A  2        4.149   1.030   6.912  0.00  0.00    +0.010 A 
ATOM     48  C   UNK A  2        4.105   0.834   5.530  0.00  0.00    +0.003 A 
ENDBRANCH  38  39
ENDBRANCH   1  38
TORSDOF 13
