REMARK  Name = ZINC03996041
REMARK                            x       y       z     vdW  Elec       q    Type
REMARK                         _______ _______ _______ _____ _____    ______ ____
ROOT
ATOM      1  N   LIG    1        1.366  -2.142   1.710  0.00  0.00    -0.256 N 
ATOM      2  C   LIG    1        2.588  -2.141   2.280  0.00  0.00    +0.257 A 
ATOM      3  C   LIG    1        2.708  -2.394   3.667  0.00  0.00    +0.088 A 
ATOM      4  C   LIG    1        1.593  -2.631   4.391  0.00  0.00    +0.096 A 
ATOM      5  N   LIG    1        0.371  -2.623   3.774  0.00  0.00    -0.301 N 
ATOM      6  O   LIG    1        3.580  -1.924   1.607  0.00  0.00    -0.268 OA
ATOM      7  C   LIG    1        0.270  -2.376   2.455  0.00  0.00    +0.332 A 
ATOM      8  O   LIG    1       -0.825  -2.369   1.929  0.00  0.00    -0.246 OA
ENDROOT
BRANCH   1   9
ATOM      9  C   LIG    1        1.230  -1.880   0.275  0.00  0.00    +0.166 C 
BRANCH   9  14
ATOM     10  C   LIG    1        1.198   1.846   0.886  0.00  0.00    +0.000 A 
ATOM     11  C   LIG    1        0.986   2.343  -0.388  0.00  0.00    +0.001 A 
ATOM     12  C   LIG    1        0.852   1.480  -1.456  0.00  0.00    +0.015 A 
ATOM     13  C   LIG    1        0.930   0.101  -1.248  0.00  0.00    +0.064 A 
ATOM     14  C   LIG    1        1.145  -0.394   0.041  0.00  0.00    -0.014 A 
ATOM     15  C   LIG    1        1.276   0.481   1.099  0.00  0.00    +0.006 A 
BRANCH  13  16
ATOM     16  C   LIG    1        0.787  -0.829  -2.385  0.00  0.00    +0.337 C 
ATOM     17  O   LIG    1        0.487  -0.402  -3.490  0.00  0.00    -0.245 OA
BRANCH  16  18
ATOM     18  O   LIG    1        0.970  -2.027  -2.221  0.00  0.00    -0.477 OA
ATOM     19  H   LIG    1        1.200  -2.355  -1.374  0.00  0.00    +0.295 HD
ENDBRANCH  16  18
ENDBRANCH  13  16
ENDBRANCH   9  14
ENDBRANCH   1   9
BRANCH   5  20
ATOM     20  C   LIG    1       -0.839  -2.881   4.558  0.00  0.00    +0.121 C 
BRANCH  20  21
ATOM     21  CA  LIG    1       -1.387  -1.559   5.100  0.00  0.00    +0.056 C 
BRANCH  21  22
ATOM     22  N   LIG    1       -0.335  -0.867   5.857  0.00  0.00    +0.388 N 
ATOM     23  H1  LIG    1       -0.697   0.005   6.214  0.00  0.00    -0.089 HD
ATOM     24  H2  LIG    1        0.449  -0.682   5.250  0.00  0.00    -0.089 HD
ATOM     25  H3  LIG    1       -0.036  -1.448   6.626  0.00  0.00    -0.089 HD
ENDBRANCH  21  22
BRANCH  21  26
ATOM     26  C   LIG    1       -2.559  -1.835   6.007  0.00  0.00    +0.292 C 
ATOM     27  O   LIG    1       -2.378  -2.014   7.199  0.00  0.00    -0.253 OA
BRANCH  26  28
ATOM     28  OXT LIG    1       -3.688  -1.879   5.548  0.00  0.00    -0.482 OA
ATOM     29  HXT LIG    1       -3.826  -1.742   4.631  0.00  0.00    +0.295 HD
ENDBRANCH  26  28
ENDBRANCH  21  26
ENDBRANCH  20  21
ENDBRANCH   5  20
TORSDOF 9
