REMARK  Name = ZINC03876173
REMARK                            x       y       z     vdW  Elec       q    Type
REMARK                         _______ _______ _______ _____ _____    ______ ____
ROOT
ATOM      1  C   LIG    1        0.747  -2.001  -1.350  0.00  0.00    +0.087 A 
ATOM      2  C   LIG    1        1.247  -2.632  -2.508  0.00  0.00    +0.200 A 
ATOM      3  C   LIG    1        1.246  -4.109  -2.531  0.00  0.00    +0.064 A 
ATOM      4  C   LIG    1        1.721  -4.817  -3.633  0.00  0.00    +0.015 A 
ATOM      5  C   LIG    1        1.703  -6.195  -3.614  0.00  0.00    +0.001 A 
ATOM      6  C   LIG    1        1.215  -6.873  -2.507  0.00  0.00    +0.004 A 
ATOM      7  C   LIG    1        0.742  -6.183  -1.412  0.00  0.00    +0.047 A 
ATOM      8  C   LIG    1        0.752  -4.793  -1.411  0.00  0.00    +0.143 A 
ATOM      9  O   LIG    1        0.295  -4.097  -0.348  0.00  0.00    -0.425 OA
ATOM     10  O   LIG    1        1.665  -1.983  -3.454  0.00  0.00    -0.287 OA
ATOM     11  C   LIG    1        0.297  -2.759  -0.316  0.00  0.00    +0.292 A 
ENDROOT
BRANCH  11  12
ATOM     12  O   LIG    1       -0.172  -2.137   0.787  0.00  0.00    -0.480 OA
ATOM     13  H   LIG    1       -0.180  -1.201   0.829  0.00  0.00    +0.295 HD
ENDBRANCH  11  12
BRANCH   1  14
ATOM     14  C   LIG    1        0.718  -0.497  -1.257  0.00  0.00    +0.059 C 
BRANCH  14  15
ATOM     15  C   LIG    1        2.099   0.012  -0.931  0.00  0.00    -0.040 A 
ATOM     16  C   LIG    1        2.739  -0.412   0.217  0.00  0.00    +0.004 A 
ATOM     17  C   LIG    1        4.005   0.055   0.516  0.00  0.00    +0.000 A 
ATOM     18  C   LIG    1        4.631   0.947  -0.335  0.00  0.00    +0.000 A 
ATOM     19  C   LIG    1        3.991   1.371  -1.484  0.00  0.00    +0.000 A 
ATOM     20  C   LIG    1        2.726   0.900  -1.785  0.00  0.00    +0.004 A 
ENDBRANCH  14  15
BRANCH  14  22
ATOM     21  C   LIG    1       -0.443   1.445  -0.197  0.00  0.00    +0.005 C 
ATOM     22  C   LIG    1       -0.255  -0.073  -0.155  0.00  0.00    +0.010 C 
ENDBRANCH  14  22
ENDBRANCH   1  14
TORSDOF 4
