REMARK  Name = ZINC03876173
REMARK                            x       y       z     vdW  Elec       q    Type
REMARK                         _______ _______ _______ _____ _____    ______ ____
ROOT
ATOM      1  C   LIG    1       -1.490  -2.039   0.040  0.00  0.00    +0.087 A 
ATOM      2  C   LIG    1       -2.728  -2.700   0.188  0.00  0.00    +0.200 A 
ATOM      3  C   LIG    1       -2.710  -4.177   0.205  0.00  0.00    +0.064 A 
ATOM      4  C   LIG    1       -3.884  -4.915   0.347  0.00  0.00    +0.015 A 
ATOM      5  C   LIG    1       -3.824  -6.292   0.358  0.00  0.00    +0.001 A 
ATOM      6  C   LIG    1       -2.604  -6.940   0.230  0.00  0.00    +0.004 A 
ATOM      7  C   LIG    1       -1.437  -6.221   0.089  0.00  0.00    +0.047 A 
ATOM      8  C   LIG    1       -1.476  -4.832   0.075  0.00  0.00    +0.143 A 
ATOM      9  O   LIG    1       -0.345  -4.108  -0.062  0.00  0.00    -0.425 OA
ATOM     10  O   LIG    1       -3.771  -2.077   0.296  0.00  0.00    -0.287 OA
ATOM     11  C   LIG    1       -0.351  -2.769  -0.085  0.00  0.00    +0.292 A 
ENDROOT
BRANCH  11  12
ATOM     12  O   LIG    1        0.822  -2.118  -0.232  0.00  0.00    -0.480 OA
ATOM     13  H   LIG    1        1.588  -2.703  -0.314  0.00  0.00    +0.295 HD
ENDBRANCH  11  12
BRANCH   1  14
ATOM     14  C   LIG    1       -1.433  -0.534   0.013  0.00  0.00    +0.059 C 
BRANCH  14  15
ATOM     15  C   LIG    1       -1.854  -0.039  -1.347  0.00  0.00    -0.040 A 
ATOM     16  C   LIG    1       -1.169  -0.451  -2.475  0.00  0.00    +0.004 A 
ATOM     17  C   LIG    1       -1.555   0.003  -3.722  0.00  0.00    +0.000 A 
ATOM     18  C   LIG    1       -2.626   0.868  -3.842  0.00  0.00    +0.000 A 
ATOM     19  C   LIG    1       -3.312   1.279  -2.714  0.00  0.00    +0.000 A 
ATOM     20  C   LIG    1       -2.929   0.822  -1.467  0.00  0.00    +0.004 A 
ENDBRANCH  14  15
BRANCH  14  22
ATOM     21  C   LIG    1        0.015   1.447   0.482  0.00  0.00    +0.005 C 
ATOM     22  C   LIG    1       -0.004  -0.072   0.304  0.00  0.00    +0.010 C 
ENDBRANCH  14  22
ENDBRANCH   1  14
TORSDOF 4
