REMARK  Name = ZINC04051000
REMARK                            x       y       z     vdW  Elec       q    Type
REMARK                         _______ _______ _______ _____ _____    ______ ____
ROOT
ATOM      1  C   LIG    1        0.826   1.580  -0.252  0.00  0.00    +0.024 C 
ATOM      2  C   LIG    1        1.053   0.092  -0.324  0.00  0.00    +0.056 C 
ATOM      3  C   LIG    1        0.477  -0.630  -1.361  0.00  0.00    +0.028 C 
ATOM      4  C   LIG    1        0.671  -1.995  -1.448  0.00  0.00    +0.083 C 
ATOM      5  N   LIG    1        0.025  -2.544  -2.542  0.00  0.00    -0.326 N 
ATOM      6  C   LIG    1       -0.679  -1.498  -3.289  0.00  0.00    +0.106 C 
ATOM      7  C   LIG    1        1.470  -2.606  -0.446  0.00  0.00    +0.029 C 
ATOM      8  C   LIG    1        1.717  -3.987  -0.460  0.00  0.00    +0.007 C 
ATOM      9  C   LIG    1        2.488  -4.544   0.516  0.00  0.00    +0.003 C 
ATOM     10  C   LIG    1        3.035  -3.761   1.528  0.00  0.00    +0.033 C 
ATOM     11  C   LIG    1        2.815  -2.414   1.573  0.00  0.00    +0.135 C 
ATOM     12  C   LIG    1        2.021  -1.804   0.578  0.00  0.00    +0.087 C 
ATOM     13  C   LIG    1       -0.394  -0.197  -2.519  0.00  0.00    +0.026 C 
ATOM     14  N   LIG    1        1.793  -0.486   0.593  0.00  0.00    -0.308 NA
ATOM     15  H   LIG    1        2.181   0.054   1.300  0.00  0.00    +0.123 HD
ENDROOT
BRANCH   5  16
ATOM     16  C   LIG    1        0.043  -3.898  -2.884  0.00  0.00    +0.030 A 
ATOM     17  C   LIG    1       -0.931  -4.755  -2.386  0.00  0.00    +0.023 A 
ATOM     18  C   LIG    1       -0.912  -6.093  -2.727  0.00  0.00    +0.002 A 
ATOM     19  C   LIG    1        0.076  -6.580  -3.563  0.00  0.00    +0.000 A 
ATOM     20  C   LIG    1        1.047  -5.731  -4.060  0.00  0.00    +0.002 A 
ATOM     21  C   LIG    1        1.030  -4.390  -3.728  0.00  0.00    +0.023 A 
ENDBRANCH   5  16
BRANCH  11  22
ATOM     22  O   LIG    1        3.357  -1.665   2.568  0.00  0.00    -0.378 OA
ATOM     23  C   LIG    1        4.149  -2.353   3.539  0.00  0.00    +0.194 C 
ENDBRANCH  11  22
TORSDOF 2
