REMARK  Name = ZINC03927328
REMARK                            x       y       z     vdW  Elec       q    Type
REMARK                         _______ _______ _______ _____ _____    ______ ____
ROOT
ATOM      1  C   LIG    1        0.752  -3.213  -0.089  0.00  0.00    +0.032 C 
ATOM      2  C   LIG    1        1.252  -4.494  -0.255  0.00  0.00    +0.100 C 
ENDROOT
BRANCH   1   8
ATOM      3  C   LIG    1        0.390   1.251   1.164  0.00  0.00    +0.001 A 
ATOM      4  C   LIG    1        1.492   1.990   0.757  0.00  0.00    +0.002 A 
ATOM      5  C   LIG    1        2.524   1.390   0.069  0.00  0.00    +0.026 A 
ATOM      6  C   LIG    1        2.466   0.031  -0.224  0.00  0.00    +0.047 A 
ATOM      7  C   LIG    1        1.351  -0.714   0.189  0.00  0.00    +0.007 A 
ATOM      8  C   LIG    1        1.596  -2.096  -0.271  0.00  0.00    +0.001 A 
ATOM      9  C   LIG    1        2.820  -2.075  -0.914  0.00  0.00    +0.091 A 
ATOM     10  N   LIG    1        3.324  -0.827  -0.883  0.00  0.00    -0.360 N 
ATOM     11  H   LIG    1        4.174  -0.566  -1.271  0.00  0.00    +0.165 HD
ATOM     12  C   LIG    1        0.315  -0.096   0.883  0.00  0.00    +0.010 A 
ENDBRANCH   1   8
BRANCH   2  13
ATOM     13  C   LIG    1        0.342  -5.644  -0.246  0.00  0.00    +0.203 C 
ATOM     14  O   LIG    1       -0.863  -5.467  -0.228  0.00  0.00    -0.286 OA
BRANCH  13  15
ATOM     15  C   LIG    1        0.886  -7.017  -0.260  0.00  0.00    +0.027 A 
ATOM     16  C   LIG    1        2.121  -7.286   0.335  0.00  0.00    +0.015 A 
ATOM     17  C   LIG    1        2.628  -8.568   0.321  0.00  0.00    +0.050 A 
ATOM     18  C   LIG    1        1.913  -9.594  -0.282  0.00  0.00    +0.158 A 
ATOM     19  C   LIG    1        0.679  -9.332  -0.877  0.00  0.00    +0.159 A 
ATOM     20  C   LIG    1        0.164  -8.050  -0.863  0.00  0.00    +0.061 A 
BRANCH  18  21
ATOM     21  O   LIG    1        2.417 -10.855  -0.294  0.00  0.00    -0.503 OA
ATOM     22  H   LIG    1        2.157 -11.389   0.469  0.00  0.00    +0.292 HD
ENDBRANCH  18  21
BRANCH  19  23
ATOM     23  O   LIG    1       -0.018 -10.339  -1.468  0.00  0.00    -0.503 OA
ATOM     24  H   LIG    1       -0.625 -10.799  -0.872  0.00  0.00    +0.292 HD
ENDBRANCH  19  23
ENDBRANCH  13  15
ENDBRANCH   2  13
BRANCH   2  25
ATOM     25  C   LIG    1        2.659  -4.696  -0.434  0.00  0.00    +0.103 C 
ATOM     26  N   LIG    1        3.774  -4.856  -0.576  0.00  0.00    -0.191 NA
ENDBRANCH   2  25
TORSDOF 6
