REMARK  Name = ZINC03953934
REMARK                            x       y       z     vdW  Elec       q    Type
REMARK                         _______ _______ _______ _____ _____    ______ ____
ROOT
ATOM      1  C   LIG    1        4.171  -0.963   1.399  0.00  0.00    +0.046 C 
ENDROOT
BRANCH   1   2
ATOM      2  N   LIG    1        5.453  -1.680   1.382  0.00  0.00    +0.388 N 
ATOM      3  H   LIG    1        5.340  -2.561   0.903  0.00  0.00    -0.089 HD
ATOM      4  H   LIG    1        5.757  -1.849   2.329  0.00  0.00    -0.089 HD
ATOM      5  H   LIG    1        6.144  -1.123   0.902  0.00  0.00    -0.089 HD
ENDBRANCH   1   2
BRANCH   1   6
ATOM      6  P   LIG    1        2.923  -1.970   2.266  0.00  0.00    +0.314 P 
ATOM      7  O   LIG    1        2.658  -3.264   1.465  0.00  0.00    -0.261 OA
BRANCH   6   8
ATOM      8  O   LIG    1        1.611  -1.165   2.395  0.00  0.00    -0.325 OA
ATOM      9  H   LIG    1        1.284  -0.936   1.511  0.00  0.00    +0.220 HD
ENDBRANCH   6   8
BRANCH   6  10
ATOM     10  O   LIG    1        3.466  -2.350   3.734  0.00  0.00    -0.325 OA
ATOM     11  H   LIG    1        2.852  -2.886   4.253  0.00  0.00    +0.220 HD
ENDBRANCH   6  10
ENDBRANCH   1   6
BRANCH   1  12
ATOM     12  C   LIG    1        3.711  -0.707  -0.038  0.00  0.00    +0.031 C 
BRANCH  12  16
ATOM     13  C   LIG    1       -0.017   1.378   0.010  0.00  0.00    +0.000 A 
ATOM     14  C   LIG    1        1.171   2.086   0.002  0.00  0.00    +0.000 A 
ATOM     15  C   LIG    1        2.377   1.411  -0.013  0.00  0.00    +0.003 A 
ATOM     16  C   LIG    1        2.396   0.029  -0.020  0.00  0.00    -0.048 A 
ATOM     17  C   LIG    1        1.208  -0.679  -0.012  0.00  0.00    +0.003 A 
ATOM     18  C   LIG    1        0.002  -0.004   0.002  0.00  0.00    +0.000 A 
ENDBRANCH  12  16
ENDBRANCH   1  12
TORSDOF 6
