REMARK  Name = ZINC03935700
REMARK                            x       y       z     vdW  Elec       q    Type
REMARK                         _______ _______ _______ _____ _____    ______ ____
ROOT
ATOM      1  C   LIG    1       -0.013   1.090   0.008  0.00  0.00    +0.205 C 
ATOM      2  C   LIG    1        1.433   1.581  -0.003  0.00  0.00    +0.059 C 
ATOM      3  C   LIG    1        1.883   1.761  -1.437  0.00  0.00    +0.004 C 
ATOM      4  C   LIG    1        1.740   0.462  -2.227  0.00  0.00    +0.014 C 
ATOM      5  C   LIG    1        0.989   2.885  -2.014  0.00  0.00    +0.032 C 
ATOM      6  C   LIG    1       -0.418   2.390  -2.090  0.00  0.00    +0.010 C 
ATOM      7  C   LIG    1       -1.224   2.852  -3.253  0.00  0.00    +0.225 C 
ATOM      8  O   LIG    1       -0.726   3.434  -4.203  0.00  0.00    -0.284 OA
ATOM      9  C   LIG    1       -2.664   2.573  -3.199  0.00  0.00    +0.179 A 
ATOM     10  O   LIG    1       -3.728   2.903  -3.933  0.00  0.00    -0.459 OA
ATOM     11  C   LIG    1       -4.853   2.392  -3.377  0.00  0.00    +0.211 A 
ATOM     12  C   LIG    1       -4.507   1.684  -2.275  0.00  0.00    +0.101 A 
ATOM     13  C   LIG    1       -5.180   0.925  -1.204  0.00  0.00    +0.343 C 
ATOM     14  O   LIG    1       -4.454   0.673  -0.086  0.00  0.00    -0.454 OA
ATOM     15  C   LIG    1       -3.084   1.115   0.090  0.00  0.00    +0.217 C 
ATOM     16  C   LIG    1       -2.277   1.004  -1.198  0.00  0.00    +0.061 C 
ATOM     17  C   LIG    1       -2.220  -0.469  -1.624  0.00  0.00    +0.025 C 
ATOM     18  O   LIG    1       -6.332   0.542  -1.313  0.00  0.00    -0.245 OA
ATOM     19  C   LIG    1       -3.090   1.760  -2.212  0.00  0.00    +0.029 A 
ATOM     20  C   LIG    1        1.696   3.221  -3.326  0.00  0.00    +0.011 C 
ATOM     21  C   LIG    1        3.200   3.151  -2.946  0.00  0.00    +0.032 C 
ATOM     22  C   LIG    1        3.287   2.330  -1.637  0.00  0.00    +0.121 C 
ATOM     23  C   LIG    1       -0.875   1.561  -1.139  0.00  0.00    -0.008 C 
ENDROOT
BRANCH  22  24
ATOM     24  O   LIG    1        4.234   1.269  -1.771  0.00  0.00    -0.391 OA
ATOM     25  H   LIG    1        5.144   1.568  -1.901  0.00  0.00    +0.210 HD
ENDBRANCH  22  24
BRANCH   1  26
ATOM     26  O   LIG    1       -0.598   1.508   1.271  0.00  0.00    -0.457 OA
BRANCH  26  28
ATOM     27  C   LIG    1       -0.993   1.066   3.667  0.00  0.00    +0.136 C 
ATOM     28  C   LIG    1       -0.415   0.698   2.325  0.00  0.00    +0.305 C 
ATOM     29  O   LIG    1        0.212  -0.327   2.198  0.00  0.00    -0.251 OA
ENDBRANCH  26  28
ENDBRANCH   1  26
BRANCH  15  30
ATOM     30  C   LIG    1       -3.148   2.586   0.511  0.00  0.00    +0.205 C 
BRANCH  30  31
ATOM     31  O   LIG    1       -3.801   2.691   1.777  0.00  0.00    -0.379 OA
ATOM     32  C   LIG    1       -3.913   4.030   2.263  0.00  0.00    +0.194 C 
ENDBRANCH  30  31
ENDBRANCH  15  30
TORSDOF 5
