REMARK  Name = ZINC04097345
REMARK                            x       y       z     vdW  Elec       q    Type
REMARK                         _______ _______ _______ _____ _____    ______ ____
ROOT
ATOM      1  C   LIG    1       -2.388  -0.170  -9.740  0.00  0.00    +0.027 C 
ATOM      2  C   LIG    1       -1.310   0.534 -10.589  0.00  0.00    +0.121 C 
ATOM      3  C   LIG    1       -1.647   0.126 -12.045  0.00  0.00    +0.063 C 
ATOM      4  C   LIG    1       -3.196   0.140 -12.054  0.00  0.00    +0.120 C 
ATOM      5  C   LIG    1       -3.587  -0.420 -10.671  0.00  0.00    +0.024 C 
ENDROOT
BRANCH   2   6
ATOM      6  O   LIG    1       -0.007   0.070 -10.229  0.00  0.00    -0.391 OA
ATOM      7  H   LIG    1        0.709   0.479 -10.732  0.00  0.00    +0.210 HD
ENDBRANCH   2   6
BRANCH   4   8
ATOM      8  O   LIG    1       -3.698  -0.701 -13.095  0.00  0.00    -0.391 OA
ATOM      9  H   LIG    1       -3.481  -0.396 -13.986  0.00  0.00    +0.210 HD
ENDBRANCH   4   8
BRANCH   1  10
ATOM     10  C   LIG    1       -1.851  -1.500  -9.208  0.00  0.00    +0.033 C 
BRANCH  10  12
ATOM     11  C   LIG    1       -3.289  -3.369  -8.574  0.00  0.00    -0.031 C 
ATOM     12  C   LIG    1       -2.890  -2.146  -8.327  0.00  0.00    -0.031 C 
BRANCH  11  13
ATOM     13  C   LIG    1       -4.328  -4.014  -7.694  0.00  0.00    +0.027 C 
BRANCH  13  14
ATOM     14  C   LIG    1       -5.496  -4.500  -8.555  0.00  0.00    +0.015 C 
BRANCH  14  15
ATOM     15  C   LIG    1       -6.550  -5.155  -7.661  0.00  0.00    +0.121 C 
BRANCH  15  16
ATOM     16  C   LIG    1       -7.700  -5.634  -8.509  0.00  0.00    +0.307 C 
ATOM     17  O   LIG    1       -7.679  -5.468  -9.706  0.00  0.00    -0.251 OA
BRANCH  16  18
ATOM     18  O   LIG    1       -8.749  -6.245  -7.935  0.00  0.00    -0.462 OA
BRANCH  18  20
ATOM     19  C   LIG    1      -10.850  -5.556  -8.957  0.00  0.00    +0.052 C 
ATOM     20  C   LIG    1       -9.820  -6.679  -8.813  0.00  0.00    +0.170 C 
ATOM     21  C   LIG    1      -10.496  -7.917  -8.220  0.00  0.00    +0.052 C 
ENDBRANCH  18  20
ENDBRANCH  16  18
ENDBRANCH  15  16
ENDBRANCH  14  15
ENDBRANCH  13  14
ENDBRANCH  11  13
ENDBRANCH  10  12
ENDBRANCH   1  10
BRANCH   5  22
ATOM     22  C   LIG    1       -4.824   0.308 -10.141  0.00  0.00    +0.009 C 
BRANCH  22  23
ATOM     23  C   LIG    1       -6.036  -0.049 -11.004  0.00  0.00    +0.032 C 
BRANCH  23  24
ATOM     24  C   LIG    1       -7.272   0.680 -10.474  0.00  0.00    +0.115 C 
BRANCH  24  25
ATOM     25  O   LIG    1       -7.098   2.090 -10.632  0.00  0.00    -0.392 OA
ATOM     26  H   LIG    1       -6.972   2.370 -11.549  0.00  0.00    +0.210 HD
ENDBRANCH  24  25
BRANCH  24  27
ATOM     27  C   LIG    1       -8.506   0.228 -11.258  0.00  0.00    +0.036 C 
BRANCH  27  28
ATOM     28  C   LIG    1       -9.758   0.861 -10.648  0.00  0.00    +0.037 C 
BRANCH  28  29
ATOM     29  C   LIG    1      -10.973   0.415 -11.420  0.00  0.00    -0.047 A 
ATOM     30  C   LIG    1      -11.414   1.155 -12.502  0.00  0.00    +0.003 A 
ATOM     31  C   LIG    1      -12.526   0.744 -13.212  0.00  0.00    +0.000 A 
ATOM     32  C   LIG    1      -13.203  -0.402 -12.836  0.00  0.00    +0.000 A 
ATOM     33  C   LIG    1      -12.764  -1.138 -11.751  0.00  0.00    +0.000 A 
ATOM     34  C   LIG    1      -11.650  -0.729 -11.043  0.00  0.00    +0.003 A 
ENDBRANCH  28  29
ENDBRANCH  27  28
ENDBRANCH  24  27
ENDBRANCH  23  24
ENDBRANCH  22  23
ENDBRANCH   5  22
TORSDOF 17
