REMARK  Name = ZINC04040838
REMARK                            x       y       z     vdW  Elec       q    Type
REMARK                         _______ _______ _______ _____ _____    ______ ____
ROOT
ATOM      1  C   LIG    1        1.038   1.528  -3.037  0.00  0.00    +0.001 A 
ATOM      2  C   LIG    1        2.359   1.845  -3.327  0.00  0.00    +0.002 A 
ATOM      3  C   LIG    1        3.397   1.111  -2.796  0.00  0.00    +0.026 A 
ATOM      4  C   LIG    1        3.117   0.035  -1.954  0.00  0.00    +0.057 A 
ATOM      5  C   LIG    1        1.769  -0.287  -1.666  0.00  0.00    +0.083 A 
ATOM      6  C   LIG    1        1.535  -1.443  -0.784  0.00  0.00    +0.348 A 
ATOM      7  O   LIG    1        2.553  -2.344  -0.725  0.00  0.00    -0.392 OA
ATOM      8  C   LIG    1        3.807  -1.856  -0.797  0.00  0.00    +0.273 A 
ATOM      9  O   LIG    1        0.505  -1.582  -0.152  0.00  0.00    -0.244 OA
ATOM     10  N   LIG    1        4.092  -0.723  -1.393  0.00  0.00    -0.312 N 
ATOM     11  H   LIG    1        5.014  -0.423  -1.434  0.00  0.00    +0.170 HD
ATOM     12  C   LIG    1        0.736   0.467  -2.210  0.00  0.00    +0.017 A 
ENDROOT
BRANCH   8  13
ATOM     13  N   LIG    1        4.826  -2.572  -0.223  0.00  0.00    -0.269 N 
ATOM     14  H   LIG    1        5.518  -2.114   0.280  0.00  0.00    +0.157 HD
BRANCH  13  15
ATOM     15  C   LIG    1        4.869  -3.963  -0.362  0.00  0.00    +0.053 A 
ATOM     16  C   LIG    1        3.965  -4.607  -1.198  0.00  0.00    +0.025 A 
ATOM     17  C   LIG    1        4.010  -5.980  -1.335  0.00  0.00    +0.002 A 
ATOM     18  C   LIG    1        4.952  -6.716  -0.640  0.00  0.00    +0.002 A 
ATOM     19  C   LIG    1        5.854  -6.079   0.194  0.00  0.00    +0.022 A 
ATOM     20  C   LIG    1        5.819  -4.704   0.330  0.00  0.00    +0.062 A 
ATOM     21 CL   LIG    1        6.955  -3.905   1.371  0.00  0.00    -0.082 Cl
ENDBRANCH  13  15
ENDBRANCH   8  13
TORSDOF 2
