REMARK  Name = ZINC03982790
REMARK                            x       y       z     vdW  Elec       q    Type
REMARK                         _______ _______ _______ _____ _____    ______ ____
ROOT
ATOM      1  C   LIG    1        0.199   1.662  -0.509  0.00  0.00    +0.045 A 
ATOM      2  C   LIG    1        1.417   2.297  -0.394  0.00  0.00    +0.007 A 
ATOM      3  C   LIG    1        2.591   1.561  -0.279  0.00  0.00    -0.045 A 
ATOM      4  C   LIG    1        2.530   0.185  -0.272  0.00  0.00    -0.034 A 
ATOM      5  C   LIG    1        3.766  -0.661  -0.103  0.00  0.00    -0.004 C 
ATOM      6  C   LIG    1        3.632  -1.963  -0.883  0.00  0.00    +0.012 C 
ATOM      7  C   LIG    1        3.498  -1.655  -2.376  0.00  0.00    +0.001 C 
ATOM      8  C   LIG    1        4.733  -0.887  -2.851  0.00  0.00    +0.000 C 
ATOM      9  C   LIG    1        4.851   0.425  -2.072  0.00  0.00    +0.003 C 
ATOM     10  C   LIG    1        3.939  -0.952   1.395  0.00  0.00    -0.007 C 
ATOM     11  C   LIG    1        3.946   0.406   2.111  0.00  0.00    -0.078 C 
ATOM     12  N   LIG    1        5.097   1.184   1.645  0.00  0.00    +0.382 N 
ATOM     13  H   LIG    1        5.943   0.680   1.864  0.00  0.00    -0.081 HD
ATOM     14  C   LIG    1        5.050   1.427   0.210  0.00  0.00    -0.060 C 
ATOM     15  C   LIG    1        4.993   0.119  -0.580  0.00  0.00    -0.014 C 
ATOM     16  C   LIG    1        1.309  -0.458  -0.400  0.00  0.00    +0.049 A 
ATOM     17  C   LIG    1        3.886   2.321  -0.179  0.00  0.00    +0.020 C 
ATOM     18  C   LIG    1        0.140   0.276  -0.517  0.00  0.00    +0.117 A 
ENDROOT
BRANCH  18  19
ATOM     19  O   LIG    1       -1.056  -0.357  -0.639  0.00  0.00    -0.507 OA
ATOM     20  H   LIG    1       -1.313  -0.539  -1.553  0.00  0.00    +0.292 HD
ENDBRANCH  18  19
BRANCH  12  21
ATOM     21  C   LIG    1        5.117   2.474   2.347  0.00  0.00    -0.075 C 
BRANCH  21  22
ATOM     22  C   LIG    1        5.335   2.237   3.842  0.00  0.00    -0.028 C 
ATOM     23  C   LIG    1        4.033   1.999   4.625  0.00  0.00    +0.002 C 
ATOM     24  C   LIG    1        4.640   2.863   5.744  0.00  0.00    +0.000 C 
ATOM     25  C   LIG    1        5.494   3.534   4.654  0.00  0.00    +0.002 C 
ENDBRANCH  21  22
ENDBRANCH  12  21
TORSDOF 3
