REMARK  Name = ZINC03961758
REMARK                            x       y       z     vdW  Elec       q    Type
REMARK                         _______ _______ _______ _____ _____    ______ ____
ROOT
ATOM      1  C   LIG    1       -8.797  -0.648  -3.136  0.00  0.00    +0.016 C 
ATOM      2  C   LIG    1       -8.192  -1.881  -2.459  0.00  0.00    -0.011 C 
ATOM      3  C   LIG    1       -7.804  -1.529  -1.022  0.00  0.00    -0.078 C 
ATOM      4  N   LIG    1       -6.808  -0.436  -1.048  0.00  0.00    +0.382 N 
ATOM      5  H   LIG    1       -6.010  -0.726  -1.625  0.00  0.00    -0.081 HD
ATOM      6  C   LIG    1       -7.407   0.782  -1.634  0.00  0.00    -0.078 C 
ATOM      7  C   LIG    1       -7.784   0.499  -3.090  0.00  0.00    -0.011 C 
ENDROOT
BRANCH   1  14
ATOM      8  C   LIG    1      -11.477  -0.238  -4.128  0.00  0.00    +0.044 C 
ATOM      9  C   LIG    1      -10.410  -0.775  -5.046  0.00  0.00    -0.047 A 
ATOM     10  C   LIG    1      -10.716  -1.070  -6.362  0.00  0.00    +0.005 A 
ATOM     11  C   LIG    1       -9.740  -1.563  -7.206  0.00  0.00    +0.023 A 
ATOM     12  C   LIG    1       -8.450  -1.762  -6.731  0.00  0.00    +0.034 A 
ATOM     13  C   LIG    1       -8.145  -1.460  -5.411  0.00  0.00    +0.027 A 
ATOM     14  C   LIG    1       -9.127  -0.972  -4.571  0.00  0.00    -0.040 A 
BRANCH  12  15
ATOM     15  N   LIG    1       -7.459  -2.261  -7.584  0.00  0.00    -0.285 N 
ATOM     16  H   LIG    1       -6.772  -2.852  -7.236  0.00  0.00    +0.155 HD
ATOM     17  C   LIG    1       -7.458  -1.921  -8.888  0.00  0.00    +0.220 C 
ATOM     18  O   LIG    1       -8.254  -1.106  -9.302  0.00  0.00    -0.275 OA
BRANCH  17  19
ATOM     19  C   LIG    1       -6.468  -2.555  -9.831  0.00  0.00    +0.069 C 
ATOM     20  C   LIG    1       -6.679  -1.999 -11.241  0.00  0.00    +0.017 C 
ATOM     21  C   LIG    1       -6.674  -4.071  -9.844  0.00  0.00    +0.017 C 
ENDBRANCH  17  19
ENDBRANCH  12  15
ENDBRANCH   1  14
BRANCH   4  22
ATOM     22  C   LIG    1       -6.332  -0.154   0.322  0.00  0.00    -0.043 C 
BRANCH  22  23
ATOM     23  C   LIG    1       -5.170   0.802   0.245  0.00  0.00    -0.064 A 
ATOM     24  C   LIG    1       -5.392   2.165   0.302  0.00  0.00    +0.005 A 
ATOM     25  C   LIG    1       -4.329   3.044   0.231  0.00  0.00    +0.046 A 
ATOM     26  C   LIG    1       -3.036   2.557   0.103  0.00  0.00    +0.128 A 
ATOM     27  C   LIG    1       -2.815   1.188   0.041  0.00  0.00    +0.046 A 
ATOM     28  C   LIG    1       -3.882   0.314   0.117  0.00  0.00    +0.005 A 
BRANCH  26  29
ATOM     29  O   LIG    1       -1.987   3.418   0.034  0.00  0.00    -0.456 OA
BRANCH  29  30
ATOM     30  C   LIG    1       -1.583   4.025   1.181  0.00  0.00    +0.131 A 
ATOM     31  C   LIG    1       -2.293   3.830   2.357  0.00  0.00    +0.049 A 
ATOM     32  C   LIG    1       -1.884   4.451   3.522  0.00  0.00    +0.045 A 
ATOM     33  C   LIG    1       -0.760   5.259   3.519  0.00  0.00    +0.159 A 
ATOM     34  F   LIG    1       -0.359   5.861   4.660  0.00  0.00    -0.202 F 
ATOM     35  C   LIG    1       -0.046   5.450   2.347  0.00  0.00    +0.162 A 
ATOM     36  F   LIG    1        1.051   6.239   2.345  0.00  0.00    -0.202 F 
ATOM     37  C   LIG    1       -0.456   4.834   1.178  0.00  0.00    +0.087 A 
ENDBRANCH  29  30
ENDBRANCH  26  29
ENDBRANCH  22  23
ENDBRANCH   4  22
TORSDOF 7
