REMARK  Name = ZINC03873275
REMARK                            x       y       z     vdW  Elec       q    Type
REMARK                         _______ _______ _______ _____ _____    ______ ____
ROOT
ATOM      1  C   LIG    1        0.039  -3.208  -1.640  0.00  0.00    +0.169 C 
ATOM      2  O   LIG    1        0.057  -4.336  -1.193  0.00  0.00    -0.292 OA
ENDROOT
BRANCH   1   3
ATOM      3  C   LIG    1        0.029  -2.988  -3.131  0.00  0.00    +0.066 C 
ATOM      4  C   LIG    1        0.653  -4.199  -3.830  0.00  0.00    +0.018 C 
ATOM      5  C   LIG    1        0.873  -3.876  -5.313  0.00  0.00    +0.056 C 
ATOM      6  C   LIG    1       -0.407  -3.311  -5.871  0.00  0.00    +0.036 A 
ATOM      7  C   LIG    1       -1.425  -2.838  -5.120  0.00  0.00    +0.037 A 
ATOM      8  N   LIG    1       -2.389  -2.422  -5.946  0.00  0.00    -0.350 N 
ATOM      9  H   LIG    1       -3.236  -2.037  -5.672  0.00  0.00    +0.166 HD
ATOM     10  C   LIG    1       -2.009  -2.618  -7.181  0.00  0.00    +0.171 A 
ATOM     11  N   LIG    1       -0.774  -3.172  -7.174  0.00  0.00    -0.350 N 
ATOM     12  H   LIG    1       -0.250  -3.422  -7.951  0.00  0.00    +0.166 HD
ATOM     13  C   LIG    1       -1.416  -2.808  -3.611  0.00  0.00    +0.066 C 
ENDBRANCH   1   3
BRANCH   1  17
ATOM     14  C   LIG    1       -0.018   1.461   0.010  0.00  0.00    +0.149 C 
ATOM     15  N   LIG    1        0.002  -0.004   0.002  0.00  0.00    -0.349 N 
ATOM     16  C   LIG    1        0.008  -0.763  -1.110  0.00  0.00    +0.098 A 
ATOM     17  C   LIG    1        0.028  -2.097  -0.760  0.00  0.00    +0.043 A 
ATOM     18  C   LIG    1        0.035  -2.135   0.715  0.00  0.00    +0.010 A 
ATOM     19  C   LIG    1        0.054  -3.160   1.656  0.00  0.00    +0.011 A 
ATOM     20  C   LIG    1        0.069  -2.853   3.000  0.00  0.00    +0.001 A 
ATOM     21  C   LIG    1        0.053  -1.530   3.415  0.00  0.00    +0.002 A 
ATOM     22  C   LIG    1        0.031  -0.505   2.494  0.00  0.00    +0.026 A 
ATOM     23  C   LIG    1        0.024  -0.795   1.133  0.00  0.00    +0.050 A 
ENDBRANCH   1  17
TORSDOF 2
