REMARK  Name = ZINC03945161
REMARK                            x       y       z     vdW  Elec       q    Type
REMARK                         _______ _______ _______ _____ _____    ______ ____
ROOT
ATOM      1  C   LIG    1        2.401  -0.012  -0.021  0.00  0.00    +0.015 A 
ATOM      2  C   LIG    1        1.206  -0.696  -0.013  0.00  0.00    +0.022 A 
ATOM      3  C   LIG    1        0.002  -0.004   0.002  0.00  0.00    +0.061 A 
ATOM      4 CL   LIG    1       -1.495  -0.883   0.011  0.00  0.00    -0.082 Cl
ATOM      5  C   LIG    1       -0.017   1.376   0.010  0.00  0.00    +0.083 A 
ATOM      6 CL   LIG    1       -1.531   2.224   0.021  0.00  0.00    -0.080 Cl
ATOM      7  C   LIG    1        1.181   2.087   0.002  0.00  0.00    +0.070 A 
ATOM      8  N   LIG    1        1.176   3.466   0.009  0.00  0.00    -0.359 N 
ATOM      9  H   LIG    1        0.296   3.941   0.020  0.00  0.00    +0.165 HD
ATOM     10  C   LIG    1        2.298   4.196   0.001  0.00  0.00    +0.102 A 
ATOM     11  C   LIG    1        3.551   3.617  -0.014  0.00  0.00    +0.122 A 
ATOM     12  C   LIG    1        3.657   2.149  -0.023  0.00  0.00    +0.203 A 
ATOM     13  O   LIG    1        4.739   1.590  -0.036  0.00  0.00    -0.286 OA
ATOM     14  C   LIG    1        2.397   1.383  -0.014  0.00  0.00    +0.047 A 
ENDROOT
BRANCH  11  15
ATOM     15  C   LIG    1        4.760   4.453  -0.023  0.00  0.00    +0.342 C 
ATOM     16  O   LIG    1        5.859   3.933  -0.037  0.00  0.00    -0.245 OA
BRANCH  15  17
ATOM     17  O   LIG    1        4.651   5.796  -0.015  0.00  0.00    -0.477 OA
ATOM     18  H   LIG    1        3.804   6.197  -0.004  0.00  0.00    +0.295 HD
ENDBRANCH  15  17
ENDBRANCH  11  15
TORSDOF 2
