REMARK  Name = ZINC04096261
REMARK                            x       y       z     vdW  Elec       q    Type
REMARK                         _______ _______ _______ _____ _____    ______ ____
ROOT
ATOM      1  C   LIG    1        2.097   3.671   1.671  0.00  0.00    +0.200 C 
ENDROOT
BRANCH   1   2
ATOM      2  C   LIG    1        3.004   4.754   2.195  0.00  0.00    +0.241 C 
ATOM      3  N   LIG    1        4.333   4.544   2.265  0.00  0.00    -0.288 N 
ATOM      4  C   LIG    1        5.021   3.278   1.953  0.00  0.00    +0.109 C 
ATOM      5  C   LIG    1        6.466   3.694   1.579  0.00  0.00    +0.021 C 
ATOM      6  C   LIG    1        6.720   4.862   2.569  0.00  0.00    +0.033 C 
ATOM      7  C   LIG    1        5.338   5.543   2.659  0.00  0.00    +0.161 C 
ATOM      8  O   LIG    1        2.537   5.814   2.555  0.00  0.00    -0.273 OA
BRANCH   7   9
ATOM      9  C   LIG    1        5.283   6.722   1.723  0.00  0.00    +0.201 C 
ATOM     10  N   LIG    1        5.692   7.880   2.120  0.00  0.00    -0.270 NA
ATOM     11  H   LIG    1        5.657   8.639   1.517  0.00  0.00    +0.190 HD
BRANCH   9  12
ATOM     12  O   LIG    1        4.806   6.568   0.470  0.00  0.00    -0.494 OA
ATOM     13  H   LIG    1        4.810   7.380  -0.055  0.00  0.00    +0.293 HD
ENDBRANCH   9  12
ENDBRANCH   7   9
ENDBRANCH   1   2
BRANCH   1  14
ATOM     14  N   LIG    1        0.759   3.832   2.246  0.00  0.00    -0.240 NA
ATOM     15  C   LIG    1        0.296   2.946   3.062  0.00  0.00    +0.209 C 
BRANCH  15  16
ATOM     16  C   LIG    1        1.179   1.818   3.529  0.00  0.00    +0.194 C 
ATOM     17  C   LIG    1        1.153   0.657   2.507  0.00  0.00    +0.046 C 
ATOM     18  C   LIG    1        1.207  -0.568   3.452  0.00  0.00    +0.097 C 
ATOM     19  C   LIG    1        0.661  -0.040   4.760  0.00  0.00    +0.183 C 
ATOM     20  N   LIG    1        0.658   1.246   4.775  0.00  0.00    -0.242 NA
BRANCH  19  21
ATOM     21  O   LIG    1        0.236  -0.816   5.779  0.00  0.00    -0.496 OA
ATOM     22  H   LIG    1       -0.084  -0.320   6.545  0.00  0.00    +0.293 HD
ENDBRANCH  19  21
ENDBRANCH  15  16
BRANCH  15  23
ATOM     23  O   LIG    1       -0.978   3.030   3.496  0.00  0.00    -0.494 OA
ATOM     24  H   LIG    1       -1.234   2.322   4.104  0.00  0.00    +0.293 HD
ENDBRANCH  15  23
ENDBRANCH   1  14
BRANCH   1  25
ATOM     25  C   LIG    1        2.012   3.771   0.146  0.00  0.00    +0.091 C 
BRANCH  25  27
ATOM     26  C   LIG    1       -0.182   2.637  -0.490  0.00  0.00    +0.105 A 
ATOM     27  C   LIG    1        1.160   2.646  -0.385  0.00  0.00    +0.036 A 
ATOM     28  N   LIG    1        1.603   1.438  -0.853  0.00  0.00    -0.350 N 
ATOM     29  C   LIG    1        0.514   0.732  -1.228  0.00  0.00    +0.171 A 
ATOM     30  H   LIG    1        2.526   1.145  -0.905  0.00  0.00    +0.166 HD
ATOM     31  N   LIG    1       -0.549   1.455  -1.008  0.00  0.00    -0.352 N 
ATOM     32  H   LIG    1       -1.462   1.181  -1.190  0.00  0.00    +0.166 HD
ENDBRANCH  25  27
ENDBRANCH   1  25
TORSDOF 9
