REMARK  Name = ZINC03936873
REMARK                            x       y       z     vdW  Elec       q    Type
REMARK                         _______ _______ _______ _____ _____    ______ ____
ROOT
ATOM      1  C   LIG    1        3.644   2.213  -0.021  0.00  0.00    -0.017 A 
ATOM      2  C   LIG    1        4.875   1.558  -0.042  0.00  0.00    +0.012 A 
ATOM      3  C   LIG    1        6.043   2.289  -0.050  0.00  0.00    +0.046 A 
ATOM      4  C   LIG    1        5.996   3.677  -0.037  0.00  0.00    +0.121 A 
ATOM      5  C   LIG    1        4.772   4.332  -0.016  0.00  0.00    +0.001 A 
ATOM      6  C   LIG    1        3.600   3.607  -0.014  0.00  0.00    +0.016 A 
ENDROOT
BRANCH   1   9
ATOM      7  C   LIG    1       -0.017   1.403   0.010  0.00  0.00    +0.009 A 
ATOM      8  C   LIG    1        1.150   2.098   0.002  0.00  0.00    +0.009 A 
ATOM      9  C   LIG    1        2.385   1.430  -0.013  0.00  0.00    -0.017 A 
ATOM     10  C   LIG    1        2.437   0.048  -0.021  0.00  0.00    +0.017 A 
ATOM     11  C   LIG    1        1.245  -0.689  -0.013  0.00  0.00    -0.017 A 
ATOM     12  C   LIG    1        1.266  -2.098  -0.022  0.00  0.00    +0.009 A 
ATOM     13  C   LIG    1        0.102  -2.794  -0.015  0.00  0.00    +0.015 A 
ATOM     14  C   LIG    1       -1.138  -2.127   0.001  0.00  0.00    +0.059 A 
ATOM     15  C   LIG    1       -1.191  -0.740   0.009  0.00  0.00    +0.023 A 
ATOM     16  C   LIG    1        0.002  -0.004   0.002  0.00  0.00    -0.017 A 
BRANCH  14  17
ATOM     17  C   LIG    1       -2.389  -2.906   0.008  0.00  0.00    +0.337 C 
ATOM     18  O   LIG    1       -3.468  -2.331   0.022  0.00  0.00    -0.245 OA
BRANCH  17  19
ATOM     19  O   LIG    1       -2.347  -4.129   0.001  0.00  0.00    -0.477 OA
ATOM     20  H   LIG    1       -1.521  -4.569  -0.009  0.00  0.00    +0.295 HD
ENDBRANCH  17  19
ENDBRANCH  14  17
ENDBRANCH   1   9
BRANCH   5  21
ATOM     21  C   LIG    1        4.726   5.839  -0.001  0.00  0.00    -0.000 C 
ATOM     22  C   LIG    1        3.268   6.303   0.021  0.00  0.00    +0.015 C 
ATOM     23  C   LIG    1        3.221   7.833   0.036  0.00  0.00    -0.010 C 
ATOM     24  C   LIG    1        3.941   8.353   1.282  0.00  0.00    +0.007 C 
ATOM     25  C   LIG    1        5.398   7.888   1.260  0.00  0.00    -0.010 C 
ATOM     26  C   LIG    1        6.088   8.432   0.007  0.00  0.00    +0.007 C 
ATOM     27  C   LIG    1        5.368   7.912  -1.239  0.00  0.00    -0.010 C 
ATOM     28  C   LIG    1        3.911   8.377  -1.217  0.00  0.00    +0.007 C 
ATOM     29  C   LIG    1        5.416   6.383  -1.254  0.00  0.00    +0.015 C 
ATOM     30  C   LIG    1        5.446   6.359   1.244  0.00  0.00    +0.015 C 
ENDBRANCH   5  21
BRANCH   4  31
ATOM     31  O   LIG    1        7.149   4.394  -0.044  0.00  0.00    -0.506 OA
ATOM     32  H   LIG    1        7.473   4.610  -0.929  0.00  0.00    +0.292 HD
ENDBRANCH   4  31
TORSDOF 5
