REMARK  Name = ZINC03929509
REMARK                            x       y       z     vdW  Elec       q    Type
REMARK                         _______ _______ _______ _____ _____    ______ ____
ROOT
ATOM      1  C   LIG    1        1.280   2.024   0.001  0.00  0.00    +0.161 C 
ATOM      2  C   LIG    1        1.752   2.209   1.413  0.00  0.00    +0.016 C 
ATOM      3  C   LIG    1        2.358   3.295   1.846  0.00  0.00    +0.033 C 
ATOM      4  C   LIG    1        2.646   4.490   0.984  0.00  0.00    +0.028 C 
ATOM      5  C   LIG    1        2.538   4.111  -0.495  0.00  0.00    -0.047 C 
ATOM      6  C   LIG    1        1.210   3.375  -0.713  0.00  0.00    +0.091 C 
ENDROOT
BRANCH   6   7
ATOM      7  N   LIG    1        0.990   3.164  -2.146  0.00  0.00    -0.311 N 
ATOM      8  H   LIG    1        1.744   3.144  -2.755  0.00  0.00    +0.149 HD
ATOM      9  C   LIG    1       -0.262   2.998  -2.618  0.00  0.00    +0.210 C 
ATOM     10  C   LIG    1       -0.488   2.780  -4.092  0.00  0.00    +0.109 C 
ATOM     11  O   LIG    1       -1.206   3.022  -1.857  0.00  0.00    -0.276 OA
ENDBRANCH   6   7
BRANCH   5  12
ATOM     12  N   LIG    1        2.550   5.339  -1.310  0.00  0.00    +0.381 N 
ATOM     13  H   LIG    1        1.786   5.953  -1.006  0.00  0.00    -0.090 HD
ATOM     14  H   LIG    1        2.420   5.107  -2.293  0.00  0.00    -0.090 HD
ATOM     15  H   LIG    1        3.437   5.827  -1.192  0.00  0.00    -0.090 HD
ENDBRANCH   5  12
BRANCH   3  16
ATOM     16  C   LIG    1        2.777   3.341   3.253  0.00  0.00    +0.332 C 
ATOM     17  O   LIG    1        2.561   2.392   3.982  0.00  0.00    -0.245 OA
BRANCH  16  18
ATOM     18  O   LIG    1        3.400   4.434   3.737  0.00  0.00    -0.477 OA
ATOM     19  H   LIG    1        3.566   5.165   3.175  0.00  0.00    +0.295 HD
ENDBRANCH  16  18
ENDBRANCH   3  16
BRANCH   1  20
ATOM     20  O   LIG    1       -0.017   1.425   0.010  0.00  0.00    -0.368 OA
BRANCH  20  21
ATOM     21  C   LIG    1        0.002  -0.004   0.002  0.00  0.00    +0.119 C 
BRANCH  21  23
ATOM     22  C   LIG    1       -1.163  -0.137   2.208  0.00  0.00    +0.006 C 
ATOM     23  C   LIG    1       -1.233  -0.535   0.732  0.00  0.00    +0.028 C 
ENDBRANCH  21  23
BRANCH  21  24
ATOM     24  C   LIG    1       -0.005  -0.506  -1.443  0.00  0.00    +0.028 C 
ATOM     25  C   LIG    1        1.290  -0.080  -2.137  0.00  0.00    +0.006 C 
ENDBRANCH  21  24
ENDBRANCH  20  21
ENDBRANCH   1  20
TORSDOF 8
