REMARK  Name = ZINC03995703
REMARK                            x       y       z     vdW  Elec       q    Type
REMARK                         _______ _______ _______ _____ _____    ______ ____
ROOT
ATOM      1  C   LIG    1       -0.019   0.989   0.057  0.00  0.00    +0.089 C 
ENDROOT
BRANCH   1   2
ATOM      2  C   LIG    1        1.466   0.776  -0.080  0.00  0.00    -0.029 A 
ATOM      3  C   LIG    1        2.340   1.814   0.185  0.00  0.00    +0.005 A 
ATOM      4  C   LIG    1        3.703   1.617   0.064  0.00  0.00    +0.000 A 
ATOM      5  C   LIG    1        4.191   0.386  -0.332  0.00  0.00    +0.000 A 
ATOM      6  C   LIG    1        3.317  -0.650  -0.602  0.00  0.00    +0.000 A 
ATOM      7  C   LIG    1        1.954  -0.455  -0.476  0.00  0.00    +0.005 A 
ENDBRANCH   1   2
BRANCH   1   9
ATOM      8  C   LIG    1       -0.770   1.922   2.295  0.00  0.00    +0.132 C 
ATOM      9  N   LIG    1       -0.270   2.136   0.934  0.00  0.00    -0.299 N 
ATOM     10  C   LIG    1       -0.040   3.387   0.490  0.00  0.00    +0.220 C 
ATOM     11  O   LIG    1        0.496   3.560  -0.585  0.00  0.00    -0.275 OA
BRANCH  10  12
ATOM     12  C   LIG    1       -0.447   4.571   1.328  0.00  0.00    +0.131 C 
BRANCH  12  13
ATOM     13  C   LIG    1       -0.081   5.845   0.610  0.00  0.00    -0.037 A 
ATOM     14  C   LIG    1        1.157   6.424   0.818  0.00  0.00    +0.005 A 
ATOM     15  C   LIG    1        1.496   7.588   0.156  0.00  0.00    +0.022 A 
ATOM     16  C   LIG    1        0.593   8.182  -0.707  0.00  0.00    +0.059 A 
ATOM     17 CL   LIG    1        1.016   9.649  -1.534  0.00  0.00    -0.082 Cl
ATOM     18  C   LIG    1       -0.649   7.605  -0.911  0.00  0.00    +0.060 A 
ATOM     19 CL   LIG    1       -1.785   8.349  -1.994  0.00  0.00    -0.082 Cl
ATOM     20  C   LIG    1       -0.985   6.436  -0.251  0.00  0.00    +0.025 A 
ENDBRANCH  12  13
ENDBRANCH  10  12
ENDBRANCH   1   9
BRANCH   1  21
ATOM     21  C   LIG    1       -0.625   1.260  -1.321  0.00  0.00    -0.051 C 
BRANCH  21  22
ATOM     22  N   LIG    1       -2.116   1.267  -1.225  0.00  0.00    +0.381 N 
ATOM     23  H   LIG    1       -2.436   0.348  -0.896  0.00  0.00    -0.082 HD
ATOM     24  C   LIG    1       -2.712   1.561  -2.529  0.00  0.00    -0.079 C 
ATOM     25  C   LIG    1       -3.997   2.360  -2.243  0.00  0.00    -0.020 C 
ATOM     26  C   LIG    1       -4.044   2.512  -0.705  0.00  0.00    -0.020 C 
ATOM     27  C   LIG    1       -2.564   2.313  -0.292  0.00  0.00    -0.079 C 
ENDBRANCH  21  22
ENDBRANCH   1  21
TORSDOF 6
