REMARK  Name = ZINC03875042
REMARK                            x       y       z     vdW  Elec       q    Type
REMARK                         _______ _______ _______ _____ _____    ______ ____
ROOT
ATOM      1  C   LIG    1       -0.019   1.532   0.011  0.00  0.00    -0.016 C 
ATOM      2  C   LIG    1        1.402   2.094  -0.000  0.00  0.00    +0.028 C 
ATOM      3  C   LIG    1        2.234   1.480   1.138  0.00  0.00    +0.104 C 
ATOM      4  C   LIG    1        2.172  -0.032   0.983  0.00  0.00    -0.008 C 
ATOM      5  C   LIG    1        2.944  -0.807   2.056  0.00  0.00    +0.130 C 
ATOM      6  C   LIG    1        2.094  -2.083   2.285  0.00  0.00    +0.125 C 
ATOM      7  C   LIG    1        0.855  -1.907   1.368  0.00  0.00    -0.044 C 
ATOM      8  N   LIG    1        0.755  -0.446   1.168  0.00  0.00    +0.387 N 
ATOM      9  H   LIG    1        0.381  -0.022   2.004  0.00  0.00    -0.081 HD
ATOM     10  C   LIG    1        0.002  -0.004   0.002  0.00  0.00    -0.078 C 
ENDROOT
BRANCH   3  11
ATOM     11  O   LIG    1        1.687   1.863   2.401  0.00  0.00    -0.393 OA
ATOM     12  H   LIG    1        1.669   2.819   2.548  0.00  0.00    +0.210 HD
ENDBRANCH   3  11
BRANCH   5  13
ATOM     13  O   LIG    1        4.249  -1.149   1.584  0.00  0.00    -0.391 OA
ATOM     14  H   LIG    1        4.782  -1.641   2.223  0.00  0.00    +0.210 HD
ENDBRANCH   5  13
BRANCH   6  15
ATOM     15  O   LIG    1        2.833  -3.247   1.909  0.00  0.00    -0.391 OA
ATOM     16  H   LIG    1        2.350  -4.075   2.031  0.00  0.00    +0.210 HD
ENDBRANCH   6  15
TORSDOF 3
