REMARK  Name = ZINC03983943
REMARK                            x       y       z     vdW  Elec       q    Type
REMARK                         _______ _______ _______ _____ _____    ______ ____
ROOT
ATOM      1  C   LIG    1        0.250   1.986  -0.433  0.00  0.00    +0.000 A 
ATOM      2  C   LIG    1        1.527   2.481  -0.241  0.00  0.00    +0.000 A 
ATOM      3  C   LIG    1        2.580   1.600  -0.107  0.00  0.00    +0.007 A 
ATOM      4  C   LIG    1        2.369   0.231  -0.178  0.00  0.00    -0.012 A 
ATOM      5  C   LIG    1        1.109  -0.271  -0.411  0.00  0.00    -0.041 A 
ATOM      6  C   LIG    1        0.753  -1.722  -0.635  0.00  0.00    +0.036 C 
ATOM      7  C   LIG    1        1.658  -2.690   0.121  0.00  0.00    +0.009 C 
ATOM      8  C   LIG    1        2.883  -3.016  -0.758  0.00  0.00    +0.034 C 
ATOM      9  C   LIG    1        3.602  -1.734  -1.029  0.00  0.00    -0.030 C 
ATOM     10  C   LIG    1        4.263  -1.535  -2.169  0.00  0.00    +0.093 C 
ATOM     11  C   LIG    1        3.546  -0.675   0.042  0.00  0.00    +0.171 C 
ATOM     12  C   LIG    1        0.045   0.627  -0.512  0.00  0.00    +0.004 A 
ENDROOT
BRANCH  10  13
ATOM     13  C   LIG    1        4.439  -2.641  -3.117  0.00  0.00    +0.330 C 
ATOM     14  O   LIG    1        4.080  -3.771  -2.813  0.00  0.00    -0.246 OA
BRANCH  13  15
ATOM     15  O   LIG    1        4.945  -2.433  -4.212  0.00  0.00    -0.478 OA
ATOM     16  H   LIG    1        5.220  -1.568  -4.444  0.00  0.00    +0.295 HD
ENDBRANCH  13  15
ENDBRANCH  10  13
BRANCH  11  17
ATOM     17  O   LIG    1        3.427  -1.303   1.321  0.00  0.00    -0.383 OA
ATOM     18  H   LIG    1        4.154  -1.904   1.533  0.00  0.00    +0.211 HD
ENDBRANCH  11  17
TORSDOF 3
