REMARK  Name = ZINC03875484
REMARK                            x       y       z     vdW  Elec       q    Type
REMARK                         _______ _______ _______ _____ _____    ______ ____
ROOT
ATOM      1  C   LIG    1       -0.343   1.557  -0.179  0.00  0.00    +0.019 C 
ATOM      2  C   LIG    1       -0.356   0.027  -0.194  0.00  0.00    +0.026 C 
ATOM      3  C   LIG    1       -1.801  -0.429  -0.289  0.00  0.00    +0.022 C 
ATOM      4  C   LIG    1       -2.504  -0.356   1.066  0.00  0.00    +0.080 C 
ATOM      5  C   LIG    1       -1.722  -1.226   2.030  0.00  0.00    +0.156 C 
ATOM      6  C   LIG    1       -0.270  -1.021   2.068  0.00  0.00    +0.046 C 
ATOM      7  O   LIG    1       -2.269  -2.050   2.734  0.00  0.00    -0.293 OA
ATOM      8  C   LIG    1        0.391  -0.439  -1.450  0.00  0.00    +0.149 C 
ATOM      9  F   LIG    1        0.331  -1.835  -1.523  0.00  0.00    -0.238 F 
ATOM     10  C   LIG    1       -0.295   0.142  -2.683  0.00  0.00    +0.153 C 
ATOM     11  C   LIG    1        0.478  -0.182  -3.971  0.00  0.00    +0.044 C 
ATOM     12  C   LIG    1        1.881   0.367  -3.800  0.00  0.00    +0.002 C 
ATOM     13  C   LIG    1        1.816   1.854  -3.443  0.00  0.00    +0.014 C 
ATOM     14  C   LIG    1        2.560  -0.432  -2.634  0.00  0.00    +0.004 C 
ATOM     15  C   LIG    1        4.031  -0.017  -2.758  0.00  0.00    +0.007 C 
ATOM     16  C   LIG    1        4.266  -0.021  -4.293  0.00  0.00    +0.035 C 
ATOM     17  C   LIG    1        2.840   0.158  -4.968  0.00  0.00    +0.069 C 
ATOM     18  C   LIG    1        2.448  -1.092  -5.758  0.00  0.00    +0.042 C 
ATOM     19  C   LIG    1        1.865  -0.021  -1.350  0.00  0.00    +0.034 C 
ATOM     20  C   LIG    1        2.508  -0.739  -0.160  0.00  0.00    +0.011 C 
ATOM     21  C   LIG    1        1.856  -0.248   1.135  0.00  0.00    +0.032 C 
ATOM     22  C   LIG    1        0.355  -0.453   1.034  0.00  0.00    -0.057 C 
ENDROOT
BRANCH  10  23
ATOM     23  O   LIG    1       -0.385   1.561  -2.540  0.00  0.00    -0.389 OA
ATOM     24  H   LIG    1       -0.811   2.005  -3.286  0.00  0.00    +0.210 HD
ENDBRANCH  10  23
BRANCH  17  25
ATOM     25  O   LIG    1        2.840   1.304  -5.820  0.00  0.00    -0.388 OA
ATOM     26  H   LIG    1        3.433   1.229  -6.581  0.00  0.00    +0.210 HD
ENDBRANCH  17  25
TORSDOF 2
