REMARK  Name = ZINC03938668
REMARK                            x       y       z     vdW  Elec       q    Type
REMARK                         _______ _______ _______ _____ _____    ______ ____
ROOT
ATOM      1  C   LIG    1       -0.781   7.114   0.753  0.00  0.00    +0.039 C 
ATOM      2  C   LIG    1       -0.044   8.209   0.349  0.00  0.00    +0.048 C 
ATOM      3  C   LIG    1        0.132   9.491   1.067  0.00  0.00    +0.010 A 
ATOM      4  C   LIG    1       -0.345   9.977   2.280  0.00  0.00    +0.037 A 
ATOM      5  C   LIG    1        0.002  11.248   2.692  0.00  0.00    +0.089 A 
ATOM      6  C   LIG    1        0.822  12.035   1.900  0.00  0.00    +0.029 A 
ATOM      7  C   LIG    1        1.299  11.562   0.694  0.00  0.00    +0.026 A 
ATOM      8  C   LIG    1        0.961  10.284   0.263  0.00  0.00    +0.042 A 
ATOM      9  N   LIG    1        1.297   9.576  -0.884  0.00  0.00    -0.281 N 
ATOM     10  H   LIG    1        1.943  10.037  -1.646  0.00  0.00    +0.155 HD
ATOM     11  C   LIG    1        0.742   8.352  -0.884  0.00  0.00    +0.249 C 
ATOM     12  O   LIG    1        0.866   7.510  -1.756  0.00  0.00    -0.270 OA
ENDROOT
BRANCH   1  15
ATOM     13  C   LIG    1       -0.780   4.124   1.608  0.00  0.00    +0.047 C 
ATOM     14  C   LIG    1       -0.973   4.690   0.224  0.00  0.00    -0.013 A 
ATOM     15  C   LIG    1       -0.968   6.025  -0.127  0.00  0.00    +0.044 A 
ATOM     16  N   LIG    1       -1.178   6.109  -1.488  0.00  0.00    -0.358 N 
ATOM     17  C   LIG    1       -1.306   4.871  -1.993  0.00  0.00    +0.026 A 
ATOM     18  C   LIG    1       -1.540   4.534  -3.443  0.00  0.00    +0.064 C 
ATOM     19  H   LIG    1       -1.215   7.093  -1.979  0.00  0.00    +0.166 HD
ATOM     20  C   LIG    1       -1.192   3.957  -0.962  0.00  0.00    +0.061 A 
BRANCH  20  21
ATOM     21  C   LIG    1       -1.276   2.490  -1.080  0.00  0.00    +0.249 C 
ATOM     22  N   LIG    1       -0.181   1.776  -1.410  0.00  0.00    -0.296 N 
ATOM     23  C   LIG    1        1.129   2.337  -1.786  0.00  0.00    +0.108 C 
ATOM     24  C   LIG    1        2.147   1.214  -1.469  0.00  0.00    +0.021 C 
ATOM     25  C   LIG    1        1.346  -0.054  -1.866  0.00  0.00    +0.022 C 
ATOM     26  C   LIG    1       -0.098   0.309  -1.462  0.00  0.00    +0.060 C 
ATOM     27  O   LIG    1       -2.333   1.923  -0.879  0.00  0.00    -0.270 OA
BRANCH  26  28
ATOM     28  C   LIG    1       -1.081  -0.232  -2.503  0.00  0.00    -0.056 C 
BRANCH  28  29
ATOM     29  N   LIG    1       -1.069  -1.700  -2.471  0.00  0.00    +0.381 N 
ATOM     30  H   LIG    1       -0.050  -1.997  -2.762  0.00  0.00    -0.082 HD
ATOM     31  C   LIG    1       -1.428  -2.207  -1.122  0.00  0.00    -0.079 C 
ATOM     32  C   LIG    1       -1.874  -3.665  -1.399  0.00  0.00    -0.020 C 
ATOM     33  C   LIG    1       -2.618  -3.549  -2.749  0.00  0.00    -0.020 C 
ATOM     34  C   LIG    1       -2.080  -2.258  -3.395  0.00  0.00    -0.079 C 
ENDBRANCH  28  29
ENDBRANCH  26  28
ENDBRANCH  20  21
ENDBRANCH   1  15
BRANCH   5  35
ATOM     35  S   LIG    1       -0.598  11.870   4.227  0.00  0.00    +0.001 S 
ATOM     36  O   LIG    1       -1.807  11.160   4.459  0.00  0.00    -0.169 OA
ATOM     37  O   LIG    1       -0.606  13.282   4.069  0.00  0.00    -0.169 OA
BRANCH  35  38
ATOM     38  C   LIG    1        0.654  11.386   5.447  0.00  0.00    +0.209 C 
BRANCH  38  39
ATOM     39  C   LIG    1        0.240  11.871   6.812  0.00  0.00    +0.011 A 
ATOM     40  C   LIG    1        0.637  13.121   7.252  0.00  0.00    +0.047 A 
ATOM     41 CL   LIG    1        1.613  14.131   6.232  0.00  0.00    -0.083 Cl
ATOM     42  C   LIG    1        0.253  13.568   8.504  0.00  0.00    +0.020 A 
ATOM     43  C   LIG    1       -0.520  12.762   9.319  0.00  0.00    +0.003 A 
ATOM     44  C   LIG    1       -0.913  11.511   8.882  0.00  0.00    +0.020 A 
ATOM     45  C   LIG    1       -0.533  11.065   7.628  0.00  0.00    +0.047 A 
ATOM     46 CL   LIG    1       -1.026   9.493   7.080  0.00  0.00    -0.083 Cl
ENDBRANCH  38  39
ENDBRANCH  35  38
ENDBRANCH   5  35
TORSDOF 7
