REMARK  Name = ZINC03925861
REMARK                            x       y       z     vdW  Elec       q    Type
REMARK                         _______ _______ _______ _____ _____    ______ ____
ROOT
ATOM      1  C   LIG    1       10.724   6.425   3.648  0.00  0.00    +0.076 C 
ATOM      2  C   LIG    1        9.386   5.683   3.691  0.00  0.00    +0.023 C 
ATOM      3  C   LIG    1        8.582   6.022   2.435  0.00  0.00    +0.006 C 
ATOM      4  C   LIG    1        9.358   5.587   1.189  0.00  0.00    -0.000 C 
ATOM      5  C   LIG    1       10.708   6.313   1.148  0.00  0.00    -0.005 C 
ATOM      6  C   LIG    1       11.482   5.820  -0.073  0.00  0.00    +0.019 C 
ATOM      7  C   LIG    1       10.748   6.161  -1.371  0.00  0.00    +0.105 C 
ATOM      8  C   LIG    1        9.291   5.656  -1.328  0.00  0.00    +0.050 C 
ATOM      9  C   LIG    1        9.474   4.147  -1.551  0.00  0.00    +0.178 C 
ATOM     10  C   LIG    1        8.362   3.606  -2.451  0.00  0.00    +0.052 C 
ATOM     11  O   LIG    1       10.772   4.008  -2.208  0.00  0.00    -0.461 OA
ATOM     12  C   LIG    1       11.318   5.220  -2.442  0.00  0.00    +0.311 C 
ATOM     13  O   LIG    1       12.098   5.508  -3.318  0.00  0.00    -0.251 OA
ATOM     14  C   LIG    1        8.564   5.992  -0.054  0.00  0.00    +0.022 C 
ATOM     15  C   LIG    1       11.506   5.981   2.411  0.00  0.00    +0.026 C 
ENDROOT
BRANCH   1  17
ATOM     16  C   LIG    1       11.295   6.817   5.984  0.00  0.00    +0.400 C 
ATOM     17  N   LIG    1       11.496   6.112   4.853  0.00  0.00    -0.278 N 
ATOM     18  H   LIG    1       12.152   5.398   4.837  0.00  0.00    +0.152 HD
ATOM     19  O   LIG    1       10.473   7.712   6.004  0.00  0.00    -0.226 OA
BRANCH  16  20
ATOM     20  O   LIG    1       12.004   6.530   7.092  0.00  0.00    -0.451 OA
BRANCH  20  22
ATOM     21  C   LIG    1       12.630   6.860   9.422  0.00  0.00    +0.048 C 
ATOM     22  C   LIG    1       11.735   7.330   8.273  0.00  0.00    +0.230 C 
ENDBRANCH  20  22
ENDBRANCH  16  20
ENDBRANCH   1  17
BRANCH  14  23
ATOM     23  C   LIG    1        7.239   5.274  -0.044  0.00  0.00    -0.021 C 
ATOM     24  C   LIG    1        6.108   5.968  -0.029  0.00  0.00    +0.024 C 
BRANCH  24  25
ATOM     25  C   LIG    1        4.810   5.264  -0.019  0.00  0.00    +0.064 A 
ATOM     26  C   LIG    1        3.625   6.002  -0.004  0.00  0.00    +0.028 A 
ATOM     27  C   LIG    1        2.416   5.335   0.000  0.00  0.00    +0.012 A 
ATOM     28  C   LIG    1        2.428   3.936  -0.001  0.00  0.00    +0.000 A 
ATOM     29  C   LIG    1        3.651   3.267  -0.016  0.00  0.00    +0.120 A 
ATOM     30  N   LIG    1        4.783   3.936  -0.025  0.00  0.00    -0.255 NA
BRANCH  28  31
ATOM     31  C   LIG    1        1.155   3.174   0.008  0.00  0.00    -0.014 A 
ATOM     32  C   LIG    1        1.174   1.780   0.000  0.00  0.00    +0.009 A 
ATOM     33  C   LIG    1       -0.013   1.076   0.008  0.00  0.00    +0.003 A 
ATOM     34  C   LIG    1       -1.221   1.749   0.017  0.00  0.00    +0.038 A 
ATOM     35  C   LIG    1       -1.247   3.134   0.030  0.00  0.00    +0.124 A 
ATOM     36  F   LIG    1       -2.430   3.787   0.044  0.00  0.00    -0.205 F 
ATOM     37  C   LIG    1       -0.064   3.850   0.022  0.00  0.00    +0.047 A 
ENDBRANCH  28  31
ENDBRANCH  24  25
ENDBRANCH  14  23
TORSDOF 6
