REMARK  Name = ZINC03927825
REMARK                            x       y       z     vdW  Elec       q    Type
REMARK                         _______ _______ _______ _____ _____    ______ ____
ROOT
ATOM      1  CA  ILE A  1       -4.137   3.793  -3.934  0.00  0.00    +0.162 C 
ENDROOT
BRANCH   1   2
ATOM      2  C   ILE A  1       -4.747   5.105  -3.510  0.00  0.00    +0.237 C 
ATOM      3  N   PRO A  2       -6.082   5.279  -3.575  0.00  0.00    -0.286 N 
ATOM      4  CD  PRO A  2       -7.070   4.236  -3.904  0.00  0.00    +0.109 C 
ATOM      5  CG  PRO A  2       -8.297   5.010  -4.447  0.00  0.00    +0.021 C 
ATOM      6  CB  PRO A  2       -8.297   6.269  -3.541  0.00  0.00    +0.035 C 
ATOM      7  CA  PRO A  2       -6.794   6.540  -3.322  0.00  0.00    +0.184 C 
ATOM      8  O   ILE A  1       -4.036   6.003  -3.111  0.00  0.00    -0.274 OA
BRANCH   7   9
ATOM      9  C   PRO A  2       -6.553   6.990  -1.904  0.00  0.00    +0.325 C 
ATOM     10  O   PRO A  2       -6.061   6.230  -1.105  0.00  0.00    -0.249 OA
BRANCH   9  11
ATOM     11  OXT PRO A  2       -6.884   8.236  -1.530  0.00  0.00    -0.479 OA
ATOM     12  HXT PRO A  2       -7.265   8.826  -2.150  0.00  0.00    +0.295 HD
ENDBRANCH   9  11
ENDBRANCH   7   9
ENDBRANCH   1   2
BRANCH   1  14
ATOM     13  C   UNK A  0       -1.999   3.315  -5.001  0.00  0.00    +0.246 C 
ATOM     14  N   ILE A  1       -2.681   3.936  -4.019  0.00  0.00    -0.302 N 
ATOM     15  H   ILE A  1       -2.208   4.478  -3.368  0.00  0.00    +0.150 HD
ATOM     16  O   UNK A  0       -2.576   2.563  -5.758  0.00  0.00    -0.273 OA
BRANCH  13  18
ATOM     17  C   UNK A  0       -0.063   4.963  -5.542  0.00  0.00    +0.242 C 
ATOM     18  C   UNK A  0       -0.520   3.554  -5.159  0.00  0.00    +0.242 C 
ATOM     19  O   UNK A  0       -0.033   3.874  -6.466  0.00  0.00    -0.349 OA
BRANCH  17  22
ATOM     20  N   UNK A  0        1.388   5.657  -3.663  0.00  0.00    -0.313 N 
ATOM     21  H   UNK A  0        0.641   5.492  -3.066  0.00  0.00    +0.149 HD
ATOM     22  C   UNK A  0        1.251   5.450  -4.987  0.00  0.00    +0.245 C 
ATOM     23  O   UNK A  0        2.185   5.656  -5.733  0.00  0.00    -0.273 OA
BRANCH  20  24
ATOM     24  C   UNK A  0        2.665   6.130  -3.123  0.00  0.00    +0.104 C 
BRANCH  24  26
ATOM     25  C   UNK A  0        3.887   6.776  -1.041  0.00  0.00    +0.005 C 
ATOM     26  C   UNK A  0        2.553   6.282  -1.605  0.00  0.00    +0.015 C 
ENDBRANCH  24  26
ENDBRANCH  20  24
ENDBRANCH  17  22
ENDBRANCH  13  18
ENDBRANCH   1  14
BRANCH   1  27
ATOM     27  CB  ILE A  1       -4.484   2.714  -2.906  0.00  0.00    +0.015 C 
ATOM     28  CG2 ILE A  1       -4.059   1.345  -3.442  0.00  0.00    +0.010 C 
BRANCH  27  29
ATOM     29  CG1 ILE A  1       -3.747   3.000  -1.597  0.00  0.00    +0.002 C 
ATOM     30  CD1 ILE A  1       -4.318   4.268  -0.957  0.00  0.00    +0.004 C 
ENDBRANCH  27  29
ENDBRANCH   1  27
TORSDOF 10
