REMARK  Name = ZINC03953849
REMARK                            x       y       z     vdW  Elec       q    Type
REMARK                         _______ _______ _______ _____ _____    ______ ____
ROOT
ATOM      1  C   LIG    1       -1.200  -0.637   0.010  0.00  0.00    +0.123 A 
ATOM      2  C   LIG    1       -2.360   0.104   0.019  0.00  0.00    +0.055 A 
ATOM      3  C   LIG    1       -3.603  -0.548   0.027  0.00  0.00    +0.006 A 
ATOM      4  C   LIG    1       -4.809   0.180   0.036  0.00  0.00    +0.011 A 
ATOM      5  C   LIG    1       -5.983  -0.517   0.043  0.00  0.00    +0.020 A 
ATOM      6  C   LIG    1       -5.964  -1.910   0.041  0.00  0.00    +0.111 A 
ATOM      7  N   LIG    1       -4.839  -2.584   0.033  0.00  0.00    -0.253 NA
ATOM      8  C   LIG    1       -3.657  -1.963   0.026  0.00  0.00    +0.092 A 
ATOM      9  C   LIG    1       -2.451  -2.699   0.016  0.00  0.00    +0.057 A 
ATOM     10  C   LIG    1       -1.246  -2.033   0.003  0.00  0.00    +0.070 A 
ENDROOT
BRANCH   1  12
ATOM     11  C   LIG    1       -0.017   1.425   0.010  0.00  0.00    +0.277 C 
ATOM     12  O   LIG    1        0.002  -0.004   0.002  0.00  0.00    -0.495 OA
ENDBRANCH   1  12
BRANCH   9  13
ATOM     13  N   LIG    1       -2.481  -4.092   0.015  0.00  0.00    -0.342 N 
ATOM     14  H   LIG    1       -3.331  -4.559   0.020  0.00  0.00    +0.146 HD
BRANCH  13  15
ATOM     15  C   LIG    1       -1.228  -4.852   0.005  0.00  0.00    +0.100 C 
BRANCH  15  16
ATOM     16  C   LIG    1       -1.540  -6.350   0.006  0.00  0.00    +0.003 C 
BRANCH  16  17
ATOM     17  C   LIG    1       -0.231  -7.143  -0.004  0.00  0.00    -0.070 C 
ATOM     18  C   LIG    1       -0.542  -8.636  -0.131  0.00  0.00    -0.016 C 
ATOM     19  C   LIG    1        0.770  -9.426  -0.141  0.00  0.00    -0.003 C 
ATOM     20  C   LIG    1        1.558  -9.103   1.132  0.00  0.00    -0.019 C 
ATOM     21  C   LIG    1        1.791  -7.593   1.212  0.00  0.00    -0.082 C 
ATOM     22  N   LIG    1        0.499  -6.897   1.245  0.00  0.00    +0.381 N 
ATOM     23  H   LIG    1       -0.045  -7.235   2.024  0.00  0.00    -0.086 HD
ATOM     24  H   LIG    1        0.655  -5.905   1.352  0.00  0.00    -0.086 HD
ENDBRANCH  16  17
ENDBRANCH  15  16
ENDBRANCH  13  15
ENDBRANCH   9  13
TORSDOF 5
