REMARK  Name = ZINC03962388
REMARK                            x       y       z     vdW  Elec       q    Type
REMARK                         _______ _______ _______ _____ _____    ______ ____
ROOT
ATOM      1  C   LIG    1       -0.069   3.851   0.022  0.00  0.00    +0.129 A 
ATOM      2  C   LIG    1       -1.252   3.131   0.030  0.00  0.00    +0.046 A 
ATOM      3  C   LIG    1       -1.222   1.749   0.017  0.00  0.00    +0.004 A 
ATOM      4  C   LIG    1       -0.013   1.076   0.008  0.00  0.00    +0.001 A 
ATOM      5  C   LIG    1        1.174   1.779   0.000  0.00  0.00    +0.012 A 
ATOM      6  C   LIG    1        1.156   3.174   0.008  0.00  0.00    +0.030 A 
ENDROOT
BRANCH   6   7
ATOM      7  C   LIG    1        2.424   3.934   0.000  0.00  0.00    +0.025 A 
ATOM      8  C   LIG    1        3.511   3.780   0.804  0.00  0.00    +0.031 A 
ATOM      9  C   LIG    1        4.598   4.631   0.595  0.00  0.00    +0.066 A 
ATOM     10  C   LIG    1        4.491   5.577  -0.422  0.00  0.00    +0.086 A 
ATOM     11  S   LIG    1        2.912   5.274  -1.069  0.00  0.00    -0.073 S 
BRANCH  10  12
ATOM     12  N   LIG    1        5.421   6.523  -0.821  0.00  0.00    -0.263 N 
ATOM     13  H   LIG    1        6.277   6.582  -0.370  0.00  0.00    +0.157 HD
ATOM     14  C   LIG    1        5.135   7.362  -1.837  0.00  0.00    +0.302 C 
ATOM     15  N   LIG    1        6.039   8.282  -2.225  0.00  0.00    -0.313 N 
ATOM     16  H   LIG    1        5.834   8.886  -2.957  0.00  0.00    +0.146 HD
ATOM     17  H   LIG    1        6.896   8.342  -1.774  0.00  0.00    +0.146 HD
ATOM     18  O   LIG    1        4.061   7.287  -2.403  0.00  0.00    -0.253 OA
ENDBRANCH  10  12
BRANCH   9  19
ATOM     19  C   LIG    1        5.808   4.533   1.417  0.00  0.00    +0.244 C 
ATOM     20  N   LIG    1        5.886   3.608   2.394  0.00  0.00    -0.325 N 
ATOM     21  H   LIG    1        6.686   3.543   2.938  0.00  0.00    +0.145 HD
ATOM     22  H   LIG    1        5.141   3.008   2.554  0.00  0.00    +0.145 HD
ATOM     23  O   LIG    1        6.743   5.286   1.216  0.00  0.00    -0.270 OA
ENDBRANCH   9  19
ENDBRANCH   6   7
BRANCH   1  24
ATOM     24  O   LIG    1       -0.098   5.210   0.030  0.00  0.00    -0.493 OA
BRANCH  24  25
ATOM     25  C   LIG    1       -1.385   5.831   0.045  0.00  0.00    +0.210 C 
BRANCH  25  26
ATOM     26  C   LIG    1       -1.216   7.352   0.052  0.00  0.00    -0.037 C 
BRANCH  26  28
ATOM     27  C   LIG    1       -1.484   7.533  -2.348  0.00  0.00    -0.096 C 
ATOM     28  N   LIG    1       -0.568   7.766  -1.211  0.00  0.00    +0.383 N 
ATOM     29  H   LIG    1        0.282   7.207  -1.348  0.00  0.00    -0.082 HD
BRANCH  28  30
ATOM     30  C   LIG    1       -0.198   9.195  -1.144  0.00  0.00    -0.043 C 
BRANCH  30  31
ATOM     31  C   LIG    1        0.650   9.534  -2.342  0.00  0.00    -0.064 A 
ATOM     32  C   LIG    1        2.024   9.393  -2.279  0.00  0.00    +0.002 A 
ATOM     33  C   LIG    1        2.802   9.699  -3.379  0.00  0.00    +0.000 A 
ATOM     34  C   LIG    1        2.208  10.155  -4.541  0.00  0.00    +0.000 A 
ATOM     35  C   LIG    1        0.834  10.302  -4.603  0.00  0.00    +0.000 A 
ATOM     36  C   LIG    1        0.056   9.990  -3.504  0.00  0.00    +0.002 A 
ENDBRANCH  30  31
ENDBRANCH  28  30
ENDBRANCH  26  28
ENDBRANCH  25  26
ENDBRANCH  24  25
ENDBRANCH   1  24
TORSDOF 9
