REMARK  Name = ZINC03924157
REMARK                            x       y       z     vdW  Elec       q    Type
REMARK                         _______ _______ _______ _____ _____    ______ ____
ROOT
ATOM      1  C   LIG    1       -0.901   1.736  -3.395  0.00  0.00    +0.165 C 
ATOM      2  C   LIG    1       -2.015   1.064  -3.927  0.00  0.00    +0.041 A 
ATOM      3  C   LIG    1       -2.795  -0.033  -3.491  0.00  0.00    +0.113 A 
ATOM      4  N   LIG    1       -3.728  -0.250  -4.372  0.00  0.00    -0.283 N 
ATOM      5  N   LIG    1       -3.607   0.664  -5.425  0.00  0.00    -0.159 NA
ATOM      6  H   LIG    1       -4.427  -0.963  -4.306  0.00  0.00    +0.188 HD
ATOM      7  C   LIG    1       -2.554   1.493  -5.154  0.00  0.00    +0.146 A 
ATOM      8  N   LIG    1       -2.053   2.550  -5.873  0.00  0.00    -0.327 N 
ATOM      9  H   LIG    1       -2.463   2.843  -6.767  0.00  0.00    +0.148 HD
ATOM     10  C   LIG    1       -0.984   3.180  -5.334  0.00  0.00    +0.117 C 
ATOM     11  C   LIG    1       -0.387   2.826  -4.116  0.00  0.00    +0.111 C 
ENDROOT
BRANCH  11  12
ATOM     12  C   LIG    1        0.774   3.576  -3.607  0.00  0.00    +0.176 C 
ATOM     13  O   LIG    1        1.324   3.224  -2.581  0.00  0.00    -0.291 OA
BRANCH  12  14
ATOM     14  C   LIG    1        1.270   4.755  -4.343  0.00  0.00    +0.088 A 
ATOM     15  C   LIG    1        2.336   4.627  -5.241  0.00  0.00    +0.137 A 
ATOM     16  F   LIG    1        2.915   3.423  -5.438  0.00  0.00    -0.205 F 
ATOM     17  C   LIG    1        2.791   5.736  -5.930  0.00  0.00    +0.042 A 
ATOM     18  C   LIG    1        2.203   6.971  -5.726  0.00  0.00    -0.045 A 
ATOM     19  C   LIG    1        2.709   8.175  -6.477  0.00  0.00    +0.044 C 
ATOM     20  C   LIG    1        1.152   7.108  -4.836  0.00  0.00    +0.042 A 
ATOM     21  C   LIG    1        0.681   6.009  -4.143  0.00  0.00    +0.137 A 
ATOM     22  F   LIG    1       -0.345   6.145  -3.274  0.00  0.00    -0.205 F 
ENDBRANCH  12  14
ENDBRANCH  11  12
BRANCH   1  23
ATOM     23  O   LIG    1       -0.344   1.347  -2.224  0.00  0.00    -0.371 OA
BRANCH  23  24
ATOM     24  C   LIG    1       -0.850   1.953  -1.033  0.00  0.00    +0.160 C 
BRANCH  24  25
ATOM     25  C   LIG    1       -0.104   1.393   0.180  0.00  0.00    +0.028 C 
BRANCH  25  27
ATOM     26  C   LIG    1        0.101   1.481   2.668  0.00  0.00    +0.004 C 
ATOM     27  C   LIG    1       -0.645   2.041   1.456  0.00  0.00    -0.001 C 
ENDBRANCH  25  27
ENDBRANCH  24  25
ENDBRANCH  23  24
ENDBRANCH   1  23
TORSDOF 6
