REMARK  Name = ZINC03995801
REMARK                            x       y       z     vdW  Elec       q    Type
REMARK                         _______ _______ _______ _____ _____    ______ ____
ROOT
ATOM      1  C   LIG    1        1.532  -2.285  -2.665  0.00  0.00    +0.078 C 
ATOM      2  C   LIG    1        3.044  -2.331  -2.414  0.00  0.00    +0.027 C 
ATOM      3  C   LIG    1        3.745  -2.593  -3.745  0.00  0.00    +0.037 C 
ATOM      4  C   LIG    1        3.141  -3.788  -4.436  0.00  0.00    -0.041 A 
ATOM      5  C   LIG    1        3.880  -4.393  -5.446  0.00  0.00    +0.004 A 
ATOM      6  C   LIG    1        3.382  -5.487  -6.123  0.00  0.00    +0.004 A 
ATOM      7  C   LIG    1        2.137  -5.989  -5.796  0.00  0.00    +0.046 A 
ATOM      8  C   LIG    1        1.399  -5.392  -4.788  0.00  0.00    +0.124 A 
ATOM      9  C   LIG    1        1.904  -4.288  -4.103  0.00  0.00    -0.001 A 
ATOM     10  C   LIG    1        1.056  -3.695  -3.008  0.00  0.00    +0.061 C 
ENDROOT
BRANCH   1  12
ATOM     11  C   LIG    1        0.707  -0.490  -1.238  0.00  0.00    +0.213 C 
ATOM     12  N   LIG    1        0.847  -1.812  -1.460  0.00  0.00    -0.312 N 
ATOM     13  H   LIG    1        0.493  -2.451  -0.821  0.00  0.00    +0.149 HD
ATOM     14  O   LIG    1        1.150   0.308  -2.036  0.00  0.00    -0.276 OA
BRANCH  11  16
ATOM     15  C   LIG    1       -0.019   1.526   0.010  0.00  0.00    +0.013 C 
ATOM     16  C   LIG    1        0.002  -0.004   0.002  0.00  0.00    +0.092 C 
ENDBRANCH  11  16
ENDBRANCH   1  12
BRANCH   8  17
ATOM     17  O   LIG    1        0.174  -5.885  -4.466  0.00  0.00    -0.495 OA
ATOM     18  C   LIG    1       -0.285  -7.017  -5.207  0.00  0.00    +0.277 C 
ENDBRANCH   8  17
TORSDOF 3
