REMARK  Name = ZINC03874012
REMARK                            x       y       z     vdW  Elec       q    Type
REMARK                         _______ _______ _______ _____ _____    ______ ____
ROOT
ATOM      1  C   LIG    1       -0.017   1.378   0.010  0.00  0.00    +0.004 A 
ATOM      2  C   LIG    1        1.169   2.087   0.002  0.00  0.00    +0.023 A 
ATOM      3  C   LIG    1        2.381   1.409  -0.013  0.00  0.00    +0.026 A 
ATOM      4  C   LIG    1        2.396   0.020  -0.021  0.00  0.00    +0.051 A 
ATOM      5  C   LIG    1        1.207  -0.682  -0.013  0.00  0.00    +0.107 A 
ATOM      6  C   LIG    1        0.002  -0.004   0.002  0.00  0.00    +0.028 A 
ENDROOT
BRANCH   3   7
ATOM      7  N   LIG    1        3.582   2.122  -0.021  0.00  0.00    -0.358 N 
ATOM      8  H   LIG    1        4.428   1.647  -0.032  0.00  0.00    +0.142 HD
ATOM      9  H   LIG    1        3.570   3.092  -0.016  0.00  0.00    +0.142 HD
ENDBRANCH   3   7
BRANCH   5  10
ATOM     10  S   LIG    1        1.225  -2.444  -0.023  0.00  0.00    +0.056 S 
ATOM     11  O   LIG    1        2.469  -2.834  -0.589  0.00  0.00    -0.153 OA
ATOM     12  O   LIG    1       -0.021  -2.860  -0.565  0.00  0.00    -0.153 OA
BRANCH  10  13
ATOM     13  N   LIG    1        1.246  -2.943   1.556  0.00  0.00    -0.204 NA
ATOM     14  H   LIG    1        1.258  -3.890   1.765  0.00  0.00    +0.144 HD
ATOM     15  H   LIG    1        1.246  -2.288   2.271  0.00  0.00    +0.144 HD
ENDBRANCH  10  13
ENDBRANCH   5  10
TORSDOF 3
