REMARK  Name = ZINC03946466
REMARK                            x       y       z     vdW  Elec       q    Type
REMARK                         _______ _______ _______ _____ _____    ______ ____
ROOT
ATOM      1  N   LIG    1        3.215   4.269  -0.241  0.00  0.00    -0.265 N 
ATOM      2  H   LIG    1        3.611   5.097  -0.555  0.00  0.00    +0.259 HD
ENDROOT
BRANCH   1   3
ATOM      3  C   LIG    1        3.158   3.102  -1.126  0.00  0.00    +0.112 C 
ATOM      4  C   LIG    1        4.077   3.213  -2.354  0.00  0.00    +0.049 C 
ATOM      5  C   LIG    1        5.176   2.571  -1.490  0.00  0.00    +0.008 C 
ATOM      6  C   LIG    1        4.046   1.935  -0.664  0.00  0.00    +0.049 C 
BRANCH   3   9
ATOM      7  C   LIG    1       -0.600   3.165  -1.489  0.00  0.00    +0.002 A 
ATOM      8  C   LIG    1        0.695   3.541  -1.180  0.00  0.00    +0.007 A 
ATOM      9  C   LIG    1        1.748   2.692  -1.463  0.00  0.00    -0.007 A 
ATOM     10  C   LIG    1        1.508   1.466  -2.055  0.00  0.00    +0.027 A 
ATOM     11  C   LIG    1        0.213   1.089  -2.364  0.00  0.00    +0.041 A 
ATOM     12 CL   LIG    1       -0.089  -0.450  -3.108  0.00  0.00    -0.084 Cl
ATOM     13  C   LIG    1       -0.841   1.939  -2.080  0.00  0.00    +0.020 A 
ENDBRANCH   3   9
ENDBRANCH   1   3
BRANCH   1  14
ATOM     14  C   LIG    1        2.711   4.190   1.026  0.00  0.00    +0.403 C 
ATOM     15  N   LIG    1        2.135   3.075   1.440  0.00  0.00    +0.011 NA
BRANCH  14  16
ATOM     16  N   LIG    1        2.802   5.265   1.867  0.00  0.00    -0.241 N 
ATOM     17  H   LIG    1        2.175   5.355   2.620  0.00  0.00    +0.265 HD
BRANCH  16  18
ATOM     18  C   LIG    1        3.786   6.237   1.655  0.00  0.00    +0.118 A 
ATOM     19  C   LIG    1        3.577   7.553   2.060  0.00  0.00    +0.045 A 
ATOM     20  C   LIG    1        4.581   8.479   1.829  0.00  0.00    +0.023 A 
ATOM     21  C   LIG    1        5.748   8.070   1.209  0.00  0.00    +0.111 A 
ATOM     22  N   LIG    1        5.914   6.816   0.838  0.00  0.00    -0.260 NA
ATOM     23  C   LIG    1        4.987   5.902   1.044  0.00  0.00    +0.152 A 
ENDBRANCH  16  18
ENDBRANCH  14  16
BRANCH  15  24
ATOM     24  C   LIG    1        1.709   2.967   2.722  0.00  0.00    +0.295 C 
ATOM     25  N   LIG    1        1.352   2.877   3.797  0.00  0.00    -0.151 NA
ENDBRANCH  15  24
ENDBRANCH   1  14
TORSDOF 6
