REMARK  Name = ZINC03874895
REMARK                            x       y       z     vdW  Elec       q    Type
REMARK                         _______ _______ _______ _____ _____    ______ ____
ROOT
ATOM      1  C   LIG    1       -2.813  -2.419  -0.019  0.00  0.00    -0.064 C 
ATOM      2  C   LIG    1       -3.473  -1.925  -1.312  0.00  0.00    -0.010 C 
ATOM      3  C   LIG    1       -4.978  -2.158  -1.205  0.00  0.00    +0.037 C 
ATOM      4  C   LIG    1       -5.266  -3.581  -0.803  0.00  0.00    -0.006 A 
ATOM      5  C   LIG    1       -6.551  -4.069  -1.024  0.00  0.00    +0.127 A 
ATOM      6  F   LIG    1       -7.483  -3.268  -1.586  0.00  0.00    -0.205 F 
ATOM      7  C   LIG    1       -6.882  -5.363  -0.673  0.00  0.00    +0.042 A 
ATOM      8  C   LIG    1       -5.930  -6.183  -0.097  0.00  0.00    +0.048 A 
ATOM      9  C   LIG    1       -4.651  -5.702   0.122  0.00  0.00    +0.120 A 
ATOM     10  C   LIG    1       -4.316  -4.397  -0.235  0.00  0.00    -0.002 A 
ATOM     11  C   LIG    1       -2.902  -3.943   0.017  0.00  0.00    +0.024 C 
ENDROOT
BRANCH   1  12
ATOM     12  N   LIG    1       -1.404  -2.004   0.007  0.00  0.00    +0.382 N 
ATOM     13  H   LIG    1       -0.943  -2.429   0.797  0.00  0.00    -0.081 HD
BRANCH  12  14
ATOM     14  C   LIG    1       -0.744  -2.434  -1.234  0.00  0.00    -0.079 C 
BRANCH  14  16
ATOM     15  C   LIG    1        1.441  -2.587  -2.434  0.00  0.00    +0.002 C 
ATOM     16  C   LIG    1        0.754  -2.140  -1.142  0.00  0.00    -0.022 C 
ENDBRANCH  14  16
ENDBRANCH  12  14
BRANCH  12  17
ATOM     17  C   LIG    1       -1.325  -0.542   0.122  0.00  0.00    -0.079 C 
BRANCH  17  18
ATOM     18  C   LIG    1       -1.895  -0.106   1.473  0.00  0.00    -0.022 C 
ATOM     19  C   LIG    1       -1.691   1.400   1.650  0.00  0.00    +0.002 C 
ENDBRANCH  17  18
ENDBRANCH  12  17
ENDBRANCH   1  12
BRANCH   9  20
ATOM     20  O   LIG    1       -3.715  -6.508   0.689  0.00  0.00    -0.506 OA
ATOM     21  H   LIG    1       -3.201  -7.024   0.052  0.00  0.00    +0.292 HD
ENDBRANCH   9  20
TORSDOF 6
