REMARK  Name = ZINC03874498
REMARK                            x       y       z     vdW  Elec       q    Type
REMARK                         _______ _______ _______ _____ _____    ______ ____
ROOT
ATOM      1  C   LIG    1       -2.543  -1.956   1.749  0.00  0.00    +0.046 A 
ATOM      2  C   LIG    1       -3.762  -1.843   1.096  0.00  0.00    +0.026 A 
ATOM      3  C   LIG    1       -4.867  -2.519   1.577  0.00  0.00    +0.035 A 
ATOM      4  C   LIG    1       -4.759  -3.306   2.708  0.00  0.00    +0.133 A 
ATOM      5  C   LIG    1       -3.546  -3.420   3.361  0.00  0.00    +0.087 A 
ATOM      6  C   LIG    1       -2.436  -2.751   2.882  0.00  0.00    +0.038 A 
ENDROOT
BRANCH   1  11
ATOM      7  C   LIG    1        1.867  -1.209   0.519  0.00  0.00    +0.041 C 
ATOM      8  C   LIG    1        0.672  -0.389   1.008  0.00  0.00    +0.107 C 
ATOM      9  C   LIG    1        1.147   0.860   1.753  0.00  0.00    +0.041 C 
ATOM     10  C   LIG    1       -0.228  -1.231   1.891  0.00  0.00    +0.250 C 
ATOM     11  N   LIG    1       -1.419  -1.272   1.263  0.00  0.00    -0.192 N 
ATOM     12  C   LIG    1       -1.398  -0.580   0.118  0.00  0.00    +0.314 C 
ATOM     13  O   LIG    1       -2.355  -0.471  -0.623  0.00  0.00    -0.252 OA
ATOM     14  O   LIG    1        0.064  -1.757   2.943  0.00  0.00    -0.272 OA
ATOM     15  N   LIG    1       -0.199  -0.018  -0.121  0.00  0.00    -0.285 N 
ATOM     16  H   LIG    1        0.044   0.525  -0.887  0.00  0.00    +0.151 HD
ENDBRANCH   1  11
BRANCH   5  17
ATOM     17  C   LIG    1       -3.432  -4.279   4.595  0.00  0.00    +0.420 C 
ATOM     18  F   LIG    1       -3.770  -5.599   4.276  0.00  0.00    -0.166 F 
ATOM     19  F   LIG    1       -4.303  -3.799   5.579  0.00  0.00    -0.166 F 
ATOM     20  F   LIG    1       -2.118  -4.236   5.073  0.00  0.00    -0.166 F 
ENDBRANCH   5  17
BRANCH   4  21
ATOM     21  N   LIG    1       -5.944  -4.029   3.221  0.00  0.00    +0.007 N 
ATOM     22  O   LIG    1       -7.006  -3.930   2.651  0.00  0.00    -0.130 OA
BRANCH  21  23
ATOM     23  O   LIG    1       -5.851  -4.718   4.210  0.00  0.00    -0.396 OA
ATOM     24  H   LIG    1       -5.029  -4.794   4.652  0.00  0.00    +0.329 HD
ENDBRANCH  21  23
ENDBRANCH   4  21
TORSDOF 4
