REMARK  Name = ZINC03995486
REMARK                            x       y       z     vdW  Elec       q    Type
REMARK                         _______ _______ _______ _____ _____    ______ ____
ROOT
ATOM      1  N   LIG    1       -5.165   4.793   8.517  0.00  0.00    -0.259 N 
ATOM      2  C   LIG    1       -4.235   5.146   7.606  0.00  0.00    +0.282 A 
ATOM      3  C   LIG    1       -3.888   4.234   6.587  0.00  0.00    +0.149 A 
ATOM      4  C   LIG    1       -4.515   2.993   6.545  0.00  0.00    +0.166 A 
ATOM      5  N   LIG    1       -4.022   2.328   5.500  0.00  0.00    -0.210 NA
ATOM      6  C   LIG    1       -3.120   3.066   4.885  0.00  0.00    +0.141 A 
ATOM      7  N   LIG    1       -5.463   2.691   7.510  0.00  0.00    -0.291 N 
ATOM      8  H   LIG    1       -5.911   1.831   7.497  0.00  0.00    +0.172 HD
ATOM      9  N   LIG    1       -3.005   4.262   5.525  0.00  0.00    -0.332 N 
ATOM     10  H   LIG    1       -2.398   5.016   5.274  0.00  0.00    +0.168 HD
ATOM     11  O   LIG    1       -3.700   6.239   7.664  0.00  0.00    -0.265 OA
ATOM     12  C   LIG    1       -5.764   3.591   8.466  0.00  0.00    +0.331 A 
ATOM     13  O   LIG    1       -6.598   3.308   9.304  0.00  0.00    -0.246 OA
ENDROOT
BRANCH   6  14
ATOM     14  C   LIG    1       -2.357   2.660   3.686  0.00  0.00    +0.017 A 
ATOM     15  C   LIG    1       -2.562   1.402   3.117  0.00  0.00    +0.013 A 
ATOM     16  C   LIG    1       -1.846   1.030   1.998  0.00  0.00    +0.030 A 
ATOM     17  C   LIG    1       -0.927   1.900   1.439  0.00  0.00    +0.117 A 
ATOM     18  C   LIG    1       -0.715   3.146   2.002  0.00  0.00    +0.030 A 
ATOM     19  C   LIG    1       -1.427   3.533   3.118  0.00  0.00    +0.013 A 
BRANCH  17  20
ATOM     20  S   LIG    1       -0.017   1.417   0.010  0.00  0.00    +0.110 S 
ATOM     21  O   LIG    1        1.172   2.195   0.003  0.00  0.00    -0.142 OA
ATOM     22  O   LIG    1        0.002  -0.004   0.002  0.00  0.00    -0.142 OA
BRANCH  20  23
ATOM     23  O   LIG    1       -0.826   1.847  -1.205  0.00  0.00    -0.250 OA
ATOM     24  H   LIG    1       -1.652   1.339  -1.241  0.00  0.00    +0.245 HD
ENDBRANCH  20  23
ENDBRANCH  17  20
ENDBRANCH   6  14
BRANCH   1  25
ATOM     25  C   LIG    1       -5.528   5.734   9.579  0.00  0.00    +0.130 C 
BRANCH  25  27
ATOM     26  C   LIG    1       -5.000   6.495  11.900  0.00  0.00    +0.005 C 
ATOM     27  C   LIG    1       -4.621   5.511  10.791  0.00  0.00    +0.018 C 
ENDBRANCH  25  27
ENDBRANCH   1  25
TORSDOF 5
