REMARK  Name = ZINC04097383
REMARK                            x       y       z     vdW  Elec       q    Type
REMARK                         _______ _______ _______ _____ _____    ______ ____
ROOT
ATOM      1  C   LIG    1        0.535   3.866   3.108  0.00  0.00    +0.164 C 
ATOM      2  C   LIG    1        0.286   2.451   2.582  0.00  0.00    +0.047 C 
ATOM      3  C   LIG    1       -1.181   2.311   2.172  0.00  0.00    -0.001 C 
ATOM      4  C   LIG    1       -1.431   0.895   1.649  0.00  0.00    +0.004 C 
ATOM      5  C   LIG    1       -2.899   0.753   1.240  0.00  0.00    +0.004 C 
ATOM      6  C   LIG    1       -3.221   1.765   0.139  0.00  0.00    -0.004 C 
ATOM      7  C   LIG    1       -2.973   3.185   0.670  0.00  0.00    -0.001 C 
ATOM      8  C   LIG    1       -3.333   4.242  -0.369  0.00  0.00    +0.005 C 
ATOM      9  C   LIG    1       -4.781   4.073  -0.861  0.00  0.00    +0.011 C 
ATOM     10  C   LIG    1       -4.907   2.669  -1.419  0.00  0.00    +0.007 C 
ATOM     11  C   LIG    1       -3.842   2.443  -2.494  0.00  0.00    +0.015 C 
ATOM     12  C   LIG    1       -6.277   2.272  -1.959  0.00  0.00    +0.170 C 
ATOM     13  C   LIG    1       -6.414   0.759  -1.656  0.00  0.00    -0.023 C 
ATOM     14  C   LIG    1       -5.139   0.354  -0.866  0.00  0.00    -0.007 C 
ATOM     15  C   LIG    1       -4.686   1.679  -0.244  0.00  0.00    +0.000 C 
ATOM     16  C   LIG    1       -1.505   3.326   1.074  0.00  0.00    -0.027 C 
ATOM     17  C   LIG    1       -0.614   3.065  -0.141  0.00  0.00    +0.011 C 
ATOM     18  C   LIG    1       -1.253   4.741   1.599  0.00  0.00    -0.004 C 
ATOM     19  C   LIG    1        0.214   4.881   2.009  0.00  0.00    -0.024 C 
ENDROOT
BRANCH  13  20
ATOM     20  N   LIG    1       -6.493  -0.003  -2.909  0.00  0.00    +0.382 N 
ATOM     21  C   LIG    1       -6.564  -1.438  -2.605  0.00  0.00    -0.091 C 
ATOM     22  C   LIG    1       -5.298   0.264  -3.719  0.00  0.00    -0.075 C 
ATOM     23  C   LIG    1       -5.336  -0.588  -4.989  0.00  0.00    -0.018 C 
ATOM     24  C   LIG    1       -6.590  -0.237  -5.795  0.00  0.00    -0.004 C 
ATOM     25  C   LIG    1       -7.826  -0.448  -4.917  0.00  0.00    -0.018 C 
ATOM     26  C   LIG    1       -7.695   0.399  -3.649  0.00  0.00    -0.075 C 
ENDBRANCH  13  20
BRANCH  19  27
ATOM     27  N   LIG    1        1.074   4.630   0.844  0.00  0.00    +0.382 N 
ATOM     28  C   LIG    1        2.398   5.222   1.079  0.00  0.00    -0.091 C 
ATOM     29  C   LIG    1        0.472   5.241  -0.347  0.00  0.00    -0.075 C 
ATOM     30  C   LIG    1        1.403   5.053  -1.547  0.00  0.00    -0.018 C 
ATOM     31  C   LIG    1        1.616   3.557  -1.791  0.00  0.00    -0.004 C 
ATOM     32  C   LIG    1        2.175   2.916  -0.517  0.00  0.00    -0.018 C 
ATOM     33  C   LIG    1        1.215   3.183   0.644  0.00  0.00    -0.075 C 
ENDBRANCH  19  27
BRANCH   1  34
ATOM     34  O   LIG    1       -0.315   4.112   4.258  0.00  0.00    -0.463 OA
BRANCH  34  36
ATOM     35  C   LIG    1       -0.642   4.024   6.704  0.00  0.00    +0.136 C 
ATOM     36  C   LIG    1        0.183   3.796   5.464  0.00  0.00    +0.304 C 
ATOM     37  O   LIG    1        1.294   3.329   5.554  0.00  0.00    -0.251 OA
ENDBRANCH  34  36
ENDBRANCH   1  34
BRANCH  12  38
ATOM     38  O   LIG    1       -6.341   2.506  -3.390  0.00  0.00    -0.463 OA
BRANCH  38  39
ATOM     39  C   LIG    1       -7.406   3.182  -3.850  0.00  0.00    +0.304 C 
ATOM     40  C   LIG    1       -7.598   3.366  -5.333  0.00  0.00    +0.136 C 
ATOM     41  O   LIG    1       -8.210   3.642  -3.075  0.00  0.00    -0.251 OA
ENDBRANCH  38  39
ENDBRANCH  12  38
TORSDOF 6
