REMARK  Name = ZINC03960063
REMARK                            x       y       z     vdW  Elec       q    Type
REMARK                         _______ _______ _______ _____ _____    ______ ____
ROOT
ATOM      1  C   LIG    1        0.200  -0.043  -5.004  0.00  0.00    +0.237 C 
ATOM      2  N   LIG    1       -1.040   0.242  -4.556  0.00  0.00    -0.288 N 
ATOM      3  C   LIG    1       -2.296  -0.225  -5.159  0.00  0.00    +0.109 C 
ATOM      4  C   LIG    1       -3.451   0.326  -4.297  0.00  0.00    +0.021 C 
ATOM      5  C   LIG    1       -2.765   0.602  -2.933  0.00  0.00    +0.033 C 
ATOM      6  C   LIG    1       -1.359   1.073  -3.381  0.00  0.00    +0.162 C 
ATOM      7  O   LIG    1        1.170   0.331  -4.380  0.00  0.00    -0.274 OA
ENDROOT
BRANCH   6   8
ATOM      8  C   LIG    1       -0.353   0.840  -2.284  0.00  0.00    +0.234 C 
ATOM      9  N   LIG    1       -0.165   1.775  -1.332  0.00  0.00    -0.307 N 
ATOM     10  H   LIG    1       -0.677   2.598  -1.353  0.00  0.00    +0.149 HD
ATOM     11  O   LIG    1        0.288  -0.190  -2.258  0.00  0.00    -0.274 OA
BRANCH   9  12
ATOM     12  C   LIG    1        0.814   1.548  -0.266  0.00  0.00    +0.103 C 
ATOM     13  C   LIG    1        0.416   2.363   0.963  0.00  0.00    +0.027 C 
ATOM     14  C   LIG    1        1.558   2.288   1.984  0.00  0.00    +0.007 C 
ATOM     15  C   LIG    1        2.743   3.084   1.441  0.00  0.00    +0.035 C 
ATOM     16  C   LIG    1        3.068   2.655   0.034  0.00  0.00    -0.042 A 
ATOM     17  C   LIG    1        4.317   2.993  -0.472  0.00  0.00    +0.004 A 
ATOM     18  C   LIG    1        4.673   2.635  -1.756  0.00  0.00    +0.000 A 
ATOM     19  C   LIG    1        3.780   1.935  -2.546  0.00  0.00    +0.000 A 
ATOM     20  C   LIG    1        2.541   1.596  -2.044  0.00  0.00    +0.006 A 
ATOM     21  C   LIG    1        2.181   1.954  -0.751  0.00  0.00    -0.024 A 
ENDBRANCH   9  12
ENDBRANCH   6   8
BRANCH   1  22
ATOM     22  C   LIG    1        0.379  -0.825  -6.279  0.00  0.00    +0.164 C 
BRANCH  22  24
ATOM     23  C   LIG    1        1.593  -0.451  -8.359  0.00  0.00    +0.199 C 
ATOM     24  N   LIG    1        1.524  -0.292  -7.022  0.00  0.00    -0.305 N 
ATOM     25  H   LIG    1        2.232   0.176  -6.552  0.00  0.00    +0.149 HD
ATOM     26  O   LIG    1        0.707  -1.035  -8.946  0.00  0.00    -0.278 OA
BRANCH  23  28
ATOM     27  C   LIG    1        2.844   1.613  -8.927  0.00  0.00    -0.004 C 
ATOM     28  C   LIG    1        2.770   0.098  -9.123  0.00  0.00    +0.012 C 
BRANCH  28  29
ATOM     29  N   LIG    1        2.600  -0.205 -10.557  0.00  0.00    +0.385 N 
ATOM     30  H   LIG    1        2.141  -1.118 -10.658  0.00  0.00    -0.085 HD
ATOM     31  H   LIG    1        2.017   0.521 -10.990  0.00  0.00    -0.085 HD
ATOM     32  C   LIG    1        3.912  -0.242 -11.231  0.00  0.00    -0.099 C 
ENDBRANCH  28  29
ENDBRANCH  23  28
ENDBRANCH  22  24
BRANCH  22  33
ATOM     33  C   LIG    1        0.630  -2.297  -5.944  0.00  0.00    -0.011 C 
ATOM     34  C   LIG    1        1.942  -2.427  -5.169  0.00  0.00    +0.013 C 
ATOM     35  C   LIG    1        0.719  -3.107  -7.239  0.00  0.00    +0.013 C 
ATOM     36  C   LIG    1       -0.522  -2.828  -5.089  0.00  0.00    +0.013 C 
ENDBRANCH  22  33
ENDBRANCH   1  22
TORSDOF 7
