REMARK  Name = ZINC03894499
REMARK                            x       y       z     vdW  Elec       q    Type
REMARK                         _______ _______ _______ _____ _____    ______ ____
ROOT
ATOM      1  C   LIG    1        0.099   1.244  -0.012  0.00  0.00    +0.044 C 
ATOM      2  C   LIG    1        0.146  -0.260   0.070  0.00  0.00    -0.038 A 
ATOM      3  C   LIG    1        0.197  -1.020  -1.059  0.00  0.00    +0.047 A 
ATOM      4  C   LIG    1        0.241  -2.418  -0.958  0.00  0.00    +0.122 A 
ATOM      5  N   LIG    1        0.233  -3.025   0.210  0.00  0.00    -0.232 NA
ATOM      6  C   LIG    1        0.183  -2.331   1.354  0.00  0.00    +0.073 A 
ATOM      7  C   LIG    1        0.175  -2.989   2.596  0.00  0.00    +0.030 A 
ATOM      8  C   LIG    1        0.140  -2.266   3.748  0.00  0.00    +0.025 A 
ATOM      9  C   LIG    1        0.095  -0.868   3.719  0.00  0.00    +0.034 A 
ATOM     10  C   LIG    1        0.097  -0.192   2.519  0.00  0.00    +0.033 A 
ATOM     11  C   LIG    1        0.143  -0.915   1.318  0.00  0.00    +0.005 A 
ENDROOT
BRANCH   4  12
ATOM     12  N   LIG    1        0.293  -3.179  -2.117  0.00  0.00    -0.315 N 
ATOM     13  C   LIG    1        0.330  -4.646  -2.048  0.00  0.00    +0.107 C 
ATOM     14  C   LIG    1        1.533  -5.148  -2.852  0.00  0.00    +0.022 C 
ATOM     15  C   LIG    1        1.460  -4.588  -4.274  0.00  0.00    -0.011 C 
ATOM     16  C   LIG    1        2.642  -5.114  -5.090  0.00  0.00    +0.007 C 
ATOM     17  C   LIG    1        1.515  -3.059  -4.226  0.00  0.00    +0.022 C 
ATOM     18  C   LIG    1        0.306  -2.534  -3.437  0.00  0.00    +0.107 C 
ENDBRANCH   4  12
BRANCH   9  19
ATOM     19  N   LIG    1        0.049  -0.151   4.920  0.00  0.00    -0.285 N 
ATOM     20  H   LIG    1       -0.458   0.674   4.974  0.00  0.00    +0.155 HD
ATOM     21  C   LIG    1        0.710  -0.607   6.003  0.00  0.00    +0.220 C 
ATOM     22  O   LIG    1        1.423  -1.584   5.912  0.00  0.00    -0.275 OA
BRANCH  21  23
ATOM     23  C   LIG    1        0.564   0.098   7.327  0.00  0.00    +0.075 C 
ATOM     24  C   LIG    1        1.036   1.547   7.189  0.00  0.00    +0.013 C 
ATOM     25  C   LIG    1        2.504   1.566   6.760  0.00  0.00    +0.004 C 
ATOM     26  C   LIG    1        3.352   0.852   7.815  0.00  0.00    -0.014 C 
ATOM     27  C   LIG    1        4.821   0.871   7.387  0.00  0.00    +0.007 C 
ATOM     28  C   LIG    1        2.880  -0.597   7.954  0.00  0.00    +0.004 C 
ATOM     29  C   LIG    1        1.411  -0.616   8.382  0.00  0.00    +0.013 C 
ENDBRANCH  21  23
ENDBRANCH   9  19
TORSDOF 3
