MODEL 1
REMARK VINA RESULT:      -5.7      0.000      0.000
REMARK  Name = ZINC00000640
REMARK                            x       y       z     vdW  Elec       q    Type
REMARK                         _______ _______ _______ _____ _____    ______ ____
ROOT
ATOM      1  C   LIG    1       24.154  30.781  58.296  0.00  0.00    +0.045 C 
ATOM      2  C   LIG    1       23.566  30.903  56.913  0.00  0.00    -0.032 A 
ATOM      3  C   LIG    1       24.371  31.080  55.818  0.00  0.00    -0.021 A 
ATOM      4  C   LIG    1       23.805  31.195  54.555  0.00  0.00    +0.117 A 
ATOM      5  N   LIG    1       22.505  31.125  54.370  0.00  0.00    -0.235 NA
ATOM      6  C   LIG    1       21.670  30.954  55.394  0.00  0.00    +0.167 A 
ATOM      7  N   LIG    1       20.342  30.887  55.217  0.00  0.00    -0.195 NA
ATOM      8  C   LIG    1       19.537  30.715  56.249  0.00  0.00    +0.216 A 
ATOM      9  N   LIG    1       19.979  30.600  57.498  0.00  0.00    -0.199 NA
ATOM     10  C   LIG    1       21.272  30.653  57.778  0.00  0.00    +0.131 A 
ATOM     11  C   LIG    1       22.184  30.836  56.709  0.00  0.00    +0.062 A 
ENDROOT
BRANCH   8  12
ATOM     12  N   LIG    1       18.176  30.651  56.020  0.00  0.00    -0.327 N 
ATOM     13  H   LIG    1       17.558  30.652  56.768  0.00  0.00    +0.145 HD
ATOM     14  H   LIG    1       17.838  30.607  55.112  0.00  0.00    +0.145 HD
ENDBRANCH   8  12
BRANCH  10  15
ATOM     15  N   LIG    1       21.719  30.532  59.075  0.00  0.00    -0.342 N 
ATOM     16  H   LIG    1       21.638  29.685  59.540  0.00  0.00    +0.144 HD
ATOM     17  H   LIG    1       22.118  31.295  59.524  0.00  0.00    +0.144 HD
ENDBRANCH  10  15
BRANCH   3  18
ATOM     18  C   LIG    1       25.867  31.159  55.986  0.00  0.00    +0.075 C 
BRANCH  18  19
ATOM     19  C   LIG    1       26.331  32.565  55.704  0.00  0.00    +0.002 A 
ATOM     20  C   LIG    1       25.700  33.634  56.310  0.00  0.00    +0.053 A 
ATOM     21  C   LIG    1       26.127  34.929  56.051  0.00  0.00    +0.121 A 
ATOM     22  C   LIG    1       27.182  35.149  55.179  0.00  0.00    +0.049 A 
ATOM     23  C   LIG    1       27.817  34.080  54.578  0.00  0.00    +0.049 A 
ATOM     24  C   LIG    1       27.390  32.785  54.837  0.00  0.00    +0.124 A 
BRANCH  21  25
ATOM     25  O   LIG    1       25.505  35.981  56.647  0.00  0.00    -0.495 OA
ATOM     26  C   LIG    1       25.706  37.269  56.061  0.00  0.00    +0.277 C 
ENDBRANCH  21  25
BRANCH  24  27
ATOM     27  O   LIG    1       28.012  31.733  54.242  0.00  0.00    -0.495 OA
ATOM     28  C   LIG    1       29.054  31.092  54.980  0.00  0.00    +0.277 C 
ENDBRANCH  24  27
ENDBRANCH  18  19
ENDBRANCH   3  18
TORSDOF 6
ENDMDL
MODEL 2
REMARK VINA RESULT:      -5.7      3.948      7.534
REMARK  Name = ZINC00000640
REMARK                            x       y       z     vdW  Elec       q    Type
REMARK                         _______ _______ _______ _____ _____    ______ ____
ROOT
ATOM      1  C   LIG    1       22.284  29.014  58.170  0.00  0.00    +0.045 C 
ATOM      2  C   LIG    1       22.416  29.341  56.704  0.00  0.00    -0.032 A 
ATOM      3  C   LIG    1       21.596  28.757  55.775  0.00  0.00    -0.021 A 
ATOM      4  C   LIG    1       21.741  29.072  54.430  0.00  0.00    +0.117 A 
ATOM      5  N   LIG    1       22.644  29.933  54.013  0.00  0.00    -0.235 NA
ATOM      6  C   LIG    1       23.471  30.533  54.868  0.00  0.00    +0.167 A 
ATOM      7  N   LIG    1       24.399  31.409  54.454  0.00  0.00    -0.195 NA
ATOM      8  C   LIG    1       25.206  31.990  55.322  0.00  0.00    +0.216 A 
ATOM      9  N   LIG    1       25.151  31.753  56.629  0.00  0.00    -0.199 NA
ATOM     10  C   LIG    1       24.271  30.905  57.139  0.00  0.00    +0.131 A 
ATOM     11  C   LIG    1       23.379  30.251  56.254  0.00  0.00    +0.062 A 
ENDROOT
BRANCH   8  12
ATOM     12  N   LIG    1       26.147  32.886  54.851  0.00  0.00    -0.327 N 
ATOM     13  H   LIG    1       26.940  33.078  55.377  0.00  0.00    +0.145 HD
ATOM     14  H   LIG    1       26.016  33.322  53.995  0.00  0.00    +0.145 HD
ENDBRANCH   8  12
BRANCH  10  15
ATOM     15  N   LIG    1       24.223  30.666  58.495  0.00  0.00    -0.342 N 
ATOM     16  H   LIG    1       23.460  30.967  59.014  0.00  0.00    +0.144 HD
ATOM     17  H   LIG    1       24.951  30.195  58.931  0.00  0.00    +0.144 HD
ENDBRANCH  10  15
BRANCH   3  18
ATOM     18  C   LIG    1       20.543  27.771  56.210  0.00  0.00    +0.075 C 
BRANCH  18  19
ATOM     19  C   LIG    1       19.176  28.375  56.014  0.00  0.00    +0.002 A 
ATOM     20  C   LIG    1       18.881  29.607  56.566  0.00  0.00    +0.053 A 
ATOM     21  C   LIG    1       17.623  30.163  56.385  0.00  0.00    +0.121 A 
ATOM     22  C   LIG    1       16.660  29.480  55.657  0.00  0.00    +0.049 A 
ATOM     23  C   LIG    1       16.958  28.251  55.101  0.00  0.00    +0.049 A 
ATOM     24  C   LIG    1       18.216  27.695  55.281  0.00  0.00    +0.124 A 
BRANCH  21  25
ATOM     25  O   LIG    1       17.332  31.375  56.928  0.00  0.00    -0.495 OA
ATOM     26  C   LIG    1       16.113  31.995  56.514  0.00  0.00    +0.277 C 
ENDBRANCH  21  25
BRANCH  24  27
ATOM     27  O   LIG    1       18.507  26.483  54.738  0.00  0.00    -0.495 OA
ATOM     28  C   LIG    1       17.906  25.338  55.346  0.00  0.00    +0.277 C 
ENDBRANCH  24  27
ENDBRANCH  18  19
ENDBRANCH   3  18
TORSDOF 6
ENDMDL
MODEL 3
REMARK VINA RESULT:      -5.3      3.596      7.214
REMARK  Name = ZINC00000640
REMARK                            x       y       z     vdW  Elec       q    Type
REMARK                         _______ _______ _______ _____ _____    ______ ____
ROOT
ATOM      1  C   LIG    1       22.017  29.870  58.225  0.00  0.00    +0.045 C 
ATOM      2  C   LIG    1       22.144  30.209  56.762  0.00  0.00    -0.032 A 
ATOM      3  C   LIG    1       21.115  29.968  55.891  0.00  0.00    -0.021 A 
ATOM      4  C   LIG    1       21.258  30.286  54.546  0.00  0.00    +0.117 A 
ATOM      5  N   LIG    1       22.361  30.828  54.076  0.00  0.00    -0.235 NA
ATOM      6  C   LIG    1       23.397  31.086  54.873  0.00  0.00    +0.167 A 
ATOM      7  N   LIG    1       24.527  31.634  54.404  0.00  0.00    -0.195 NA
ATOM      8  C   LIG    1       25.539  31.881  55.216  0.00  0.00    +0.216 A 
ATOM      9  N   LIG    1       25.504  31.610  56.517  0.00  0.00    -0.199 NA
ATOM     10  C   LIG    1       24.433  31.068  57.078  0.00  0.00    +0.131 A 
ATOM     11  C   LIG    1       23.317  30.781  56.255  0.00  0.00    +0.062 A 
ENDROOT
BRANCH   8  12
ATOM     12  N   LIG    1       26.684  32.447  54.689  0.00  0.00    -0.327 N 
ATOM     13  H   LIG    1       26.729  33.406  54.546  0.00  0.00    +0.145 HD
ATOM     14  H   LIG    1       27.443  31.888  54.463  0.00  0.00    +0.145 HD
ENDBRANCH   8  12
BRANCH  10  15
ATOM     15  N   LIG    1       24.406  30.790  58.427  0.00  0.00    -0.342 N 
ATOM     16  H   LIG    1       24.518  31.506  59.072  0.00  0.00    +0.144 HD
ATOM     17  H   LIG    1       24.274  29.878  58.732  0.00  0.00    +0.144 HD
ENDBRANCH  10  15
BRANCH   3  18
ATOM     18  C   LIG    1       19.832  29.354  56.389  0.00  0.00    +0.075 C 
BRANCH  18  19
ATOM     19  C   LIG    1       18.728  30.378  56.327  0.00  0.00    +0.002 A 
ATOM     20  C   LIG    1       19.026  31.723  56.434  0.00  0.00    +0.053 A 
ATOM     21  C   LIG    1       18.010  32.665  56.377  0.00  0.00    +0.121 A 
ATOM     22  C   LIG    1       16.694  32.257  56.220  0.00  0.00    +0.049 A 
ATOM     23  C   LIG    1       16.396  30.913  56.107  0.00  0.00    +0.049 A 
ATOM     24  C   LIG    1       17.412  29.970  56.163  0.00  0.00    +0.124 A 
BRANCH  21  25
ATOM     25  O   LIG    1       18.304  33.988  56.484  0.00  0.00    -0.495 OA
ATOM     26  C   LIG    1       17.217  34.906  56.350  0.00  0.00    +0.277 C 
ENDBRANCH  21  25
BRANCH  24  27
ATOM     27  O   LIG    1       17.119  28.647  56.057  0.00  0.00    -0.495 OA
ATOM     28  C   LIG    1       16.212  28.265  55.021  0.00  0.00    +0.277 C 
ENDBRANCH  24  27
ENDBRANCH  18  19
ENDBRANCH   3  18
TORSDOF 6
ENDMDL
MODEL 4
REMARK VINA RESULT:      -5.3      3.870      5.735
REMARK  Name = ZINC00000640
REMARK                            x       y       z     vdW  Elec       q    Type
REMARK                         _______ _______ _______ _____ _____    ______ ____
ROOT
ATOM      1  C   LIG    1       19.998  35.867  57.093  0.00  0.00    +0.045 C 
ATOM      2  C   LIG    1       19.290  34.586  56.732  0.00  0.00    -0.032 A 
ATOM      3  C   LIG    1       19.978  33.524  56.205  0.00  0.00    -0.021 A 
ATOM      4  C   LIG    1       19.302  32.356  55.876  0.00  0.00    +0.117 A 
ATOM      5  N   LIG    1       18.007  32.229  56.068  0.00  0.00    -0.235 NA
ATOM      6  C   LIG    1       17.283  33.225  56.577  0.00  0.00    +0.167 A 
ATOM      7  N   LIG    1       15.961  33.107  56.771  0.00  0.00    -0.195 NA
ATOM      8  C   LIG    1       15.267  34.109  57.278  0.00  0.00    +0.216 A 
ATOM      9  N   LIG    1       15.819  35.269  57.620  0.00  0.00    -0.199 NA
ATOM     10  C   LIG    1       17.116  35.486  57.467  0.00  0.00    +0.131 A 
ATOM     11  C   LIG    1       17.911  34.445  56.927  0.00  0.00    +0.062 A 
ENDROOT
BRANCH   8  12
ATOM     12  N   LIG    1       13.907  33.943  57.462  0.00  0.00    -0.327 N 
ATOM     13  H   LIG    1       13.365  33.562  56.753  0.00  0.00    +0.145 HD
ATOM     14  H   LIG    1       13.495  34.205  58.300  0.00  0.00    +0.145 HD
ENDBRANCH   8  12
BRANCH  10  15
ATOM     15  N   LIG    1       17.679  36.692  57.825  0.00  0.00    -0.342 N 
ATOM     16  H   LIG    1       17.189  37.517  57.682  0.00  0.00    +0.144 HD
ATOM     17  H   LIG    1       18.565  36.716  58.220  0.00  0.00    +0.144 HD
ENDBRANCH  10  15
BRANCH   3  18
ATOM     18  C   LIG    1       21.464  33.627  55.975  0.00  0.00    +0.075 C 
BRANCH  18  19
ATOM     19  C   LIG    1       22.167  32.536  56.741  0.00  0.00    +0.002 A 
ATOM     20  C   LIG    1       22.107  32.512  58.122  0.00  0.00    +0.053 A 
ATOM     21  C   LIG    1       22.753  31.508  58.827  0.00  0.00    +0.121 A 
ATOM     22  C   LIG    1       23.466  30.531  58.147  0.00  0.00    +0.049 A 
ATOM     23  C   LIG    1       23.521  30.551  56.766  0.00  0.00    +0.049 A 
ATOM     24  C   LIG    1       22.873  31.556  56.061  0.00  0.00    +0.124 A 
BRANCH  21  25
ATOM     25  O   LIG    1       22.695  31.485  60.185  0.00  0.00    -0.495 OA
ATOM     26  C   LIG    1       22.071  32.599  60.825  0.00  0.00    +0.277 C 
ENDBRANCH  21  25
BRANCH  24  27
ATOM     27  O   LIG    1       22.932  31.578  54.703  0.00  0.00    -0.495 OA
ATOM     28  C   LIG    1       22.950  30.316  54.033  0.00  0.00    +0.277 C 
ENDBRANCH  24  27
ENDBRANCH  18  19
ENDBRANCH   3  18
TORSDOF 6
ENDMDL
MODEL 5
REMARK VINA RESULT:      -5.2      3.203      5.149
REMARK  Name = ZINC00000640
REMARK                            x       y       z     vdW  Elec       q    Type
REMARK                         _______ _______ _______ _____ _____    ______ ____
ROOT
ATOM      1  C   LIG    1       22.031  32.846  59.367  0.00  0.00    +0.045 C 
ATOM      2  C   LIG    1       21.694  33.238  57.952  0.00  0.00    -0.032 A 
ATOM      3  C   LIG    1       21.486  34.550  57.614  0.00  0.00    -0.021 A 
ATOM      4  C   LIG    1       21.171  34.885  56.303  0.00  0.00    +0.117 A 
ATOM      5  N   LIG    1       21.077  33.974  55.359  0.00  0.00    -0.235 NA
ATOM      6  C   LIG    1       21.268  32.682  55.624  0.00  0.00    +0.167 A 
ATOM      7  N   LIG    1       21.170  31.745  54.670  0.00  0.00    -0.195 NA
ATOM      8  C   LIG    1       21.365  30.472  54.960  0.00  0.00    +0.216 A 
ATOM      9  N   LIG    1       21.665  30.048  56.184  0.00  0.00    -0.199 NA
ATOM     10  C   LIG    1       21.785  30.894  57.195  0.00  0.00    +0.131 A 
ATOM     11  C   LIG    1       21.586  32.274  56.943  0.00  0.00    +0.062 A 
ENDROOT
BRANCH   8  12
ATOM     12  N   LIG    1       21.254  29.540  53.945  0.00  0.00    -0.327 N 
ATOM     13  H   LIG    1       20.942  28.643  54.143  0.00  0.00    +0.145 HD
ATOM     14  H   LIG    1       21.487  29.783  53.036  0.00  0.00    +0.145 HD
ENDBRANCH   8  12
BRANCH  10  15
ATOM     15  N   LIG    1       22.096  30.445  58.460  0.00  0.00    -0.342 N 
ATOM     16  H   LIG    1       23.021  30.280  58.703  0.00  0.00    +0.144 HD
ATOM     17  H   LIG    1       21.390  30.294  59.109  0.00  0.00    +0.144 HD
ENDBRANCH  10  15
BRANCH   3  18
ATOM     18  C   LIG    1       21.590  35.626  58.664  0.00  0.00    +0.075 C 
BRANCH  18  19
ATOM     19  C   LIG    1       22.472  36.738  58.158  0.00  0.00    +0.002 A 
ATOM     20  C   LIG    1       23.774  36.470  57.780  0.00  0.00    +0.053 A 
ATOM     21  C   LIG    1       24.585  37.494  57.314  0.00  0.00    +0.121 A 
ATOM     22  C   LIG    1       24.092  38.788  57.233  0.00  0.00    +0.049 A 
ATOM     23  C   LIG    1       22.788  39.055  57.604  0.00  0.00    +0.049 A 
ATOM     24  C   LIG    1       21.976  38.030  58.070  0.00  0.00    +0.124 A 
BRANCH  21  25
ATOM     25  O   LIG    1       25.866  37.230  56.943  0.00  0.00    -0.495 OA
ATOM     26  C   LIG    1       26.157  37.267  55.545  0.00  0.00    +0.277 C 
ENDBRANCH  21  25
BRANCH  24  27
ATOM     27  O   LIG    1       20.695  38.294  58.440  0.00  0.00    -0.495 OA
ATOM     28  C   LIG    1       19.728  38.411  57.394  0.00  0.00    +0.277 C 
ENDBRANCH  24  27
ENDBRANCH  18  19
ENDBRANCH   3  18
TORSDOF 6
ENDMDL
