REMARK  Name = ZINC13476792
REMARK                            x       y       z     vdW  Elec       q    Type
REMARK                         _______ _______ _______ _____ _____    ______ ____
ROOT
ATOM      1  C   LIG    1       -0.018   1.503   0.010  0.00  0.00    +0.039 C 
ATOM      2  C   LIG    1        0.002  -0.004   0.002  0.00  0.00    -0.061 C 
ATOM      3  C   LIG    1        0.006  -0.669  -1.150  0.00  0.00    +0.093 C 
ATOM      4  C   LIG    1        0.026  -2.144  -1.129  0.00  0.00    +0.261 C 
ATOM      5  N   LIG    1       -0.335  -2.787  -0.056  0.00  0.00    -0.273 N 
ATOM      6  H   LIG    1       -0.312  -3.756  -0.049  0.00  0.00    +0.304 HD
ATOM      7  C   LIG    1       -0.774  -2.068   1.139  0.00  0.00    +0.181 C 
ATOM      8  C   LIG    1        0.025  -0.772   1.299  0.00  0.00    +0.080 C 
ENDROOT
BRANCH   4   9
ATOM      9  N   LIG    1        0.427  -2.843  -2.248  0.00  0.00    -0.250 N 
ATOM     10  H   LIG    1        0.440  -3.813  -2.236  0.00  0.00    +0.288 HD
ATOM     11  H   LIG    1        0.695  -2.365  -3.049  0.00  0.00    +0.288 HD
ENDBRANCH   4   9
BRANCH   7  12
ATOM     12  C   LIG    1       -2.263  -1.736   1.012  0.00  0.00    +0.076 C 
BRANCH  12  13
ATOM     13  C   LIG    1       -3.063  -3.013   0.996  0.00  0.00    -0.030 C 
ATOM     14  C   LIG    1       -4.032  -3.190   1.860  0.00  0.00    +0.004 C 
ENDBRANCH  12  13
ENDBRANCH   7  12
TORSDOF 3
