REMARK  Name = ZINC13282284
REMARK                            x       y       z     vdW  Elec       q    Type
REMARK                         _______ _______ _______ _____ _____    ______ ____
ROOT
ATOM      1  C   LIG    1        1.071   3.526   0.010  0.00  0.00    +0.025 C 
ATOM      2  C   LIG    1        1.108   2.019   0.002  0.00  0.00    +0.063 C 
ATOM      3  N   LIG    1       -0.082   1.357   0.010  0.00  0.00    -0.286 NA
ATOM      4  H   LIG    1       -0.940   1.871   0.021  0.00  0.00    +0.125 HD
ATOM      5  C   LIG    1        0.002  -0.004   0.002  0.00  0.00    +0.193 C 
ATOM      6  N   LIG    1        1.135  -0.689  -0.012  0.00  0.00    -0.273 NA
ATOM      7  H   LIG    1        1.128  -1.282   0.818  0.00  0.00    +0.126 HD
ATOM      8  C   LIG    1        2.307  -0.064  -0.020  0.00  0.00    +0.130 C 
ATOM      9  C   LIG    1        2.326   1.343  -0.013  0.00  0.00    +0.067 C 
ENDROOT
BRANCH   9  10
ATOM     10  C   LIG    1        3.609   2.087  -0.021  0.00  0.00    -0.040 A 
ATOM     11  C   LIG    1        3.966   2.877   1.071  0.00  0.00    +0.005 A 
ATOM     12  C   LIG    1        5.163   3.564   1.060  0.00  0.00    +0.020 A 
ATOM     13  C   LIG    1        6.004   3.476  -0.036  0.00  0.00    +0.041 A 
ATOM     14 CL   LIG    1        7.505   4.348  -0.046  0.00  0.00    -0.084 Cl
ATOM     15  C   LIG    1        5.652   2.696  -1.124  0.00  0.00    +0.020 A 
ATOM     16  C   LIG    1        4.460   2.002  -1.122  0.00  0.00    +0.005 A 
ENDBRANCH   9  10
BRANCH   5  17
ATOM     17  N   LIG    1       -1.198  -0.692   0.010  0.00  0.00    -0.303 NA
ATOM     18  H   LIG    1       -1.202  -1.662   0.005  0.00  0.00    +0.121 HD
ATOM     19  H   LIG    1       -2.037  -0.204   0.020  0.00  0.00    +0.121 HD
ENDBRANCH   5  17
BRANCH   8  20
ATOM     20  N   LIG    1        3.489  -0.783  -0.034  0.00  0.00    -0.315 NA
ATOM     21  H   LIG    1        4.340  -0.318  -0.040  0.00  0.00    +0.120 HD
ATOM     22  H   LIG    1        3.466  -1.753  -0.038  0.00  0.00    +0.120 HD
ENDBRANCH   8  20
TORSDOF 3
