REMARK  Name = ZINC13448368
REMARK                            x       y       z     vdW  Elec       q    Type
REMARK                         _______ _______ _______ _____ _____    ______ ____
ROOT
ATOM      1  C   LIG    1       -0.017   1.380   0.010  0.00  0.00    +0.001 A 
ATOM      2  C   LIG    1        1.171   2.094   0.002  0.00  0.00    +0.002 A 
ATOM      3  C   LIG    1        2.391   1.448  -0.029  0.00  0.00    +0.028 A 
ATOM      4  C   LIG    1        2.439   0.058  -0.049  0.00  0.00    +0.072 A 
ATOM      5  C   LIG    1        1.215  -0.663  -0.012  0.00  0.00    +0.024 A 
ATOM      6  C   LIG    1        1.382  -2.120   0.040  0.00  0.00    +0.086 C 
ATOM      7  N   LIG    1        0.726  -3.119  -0.395  0.00  0.00    -0.175 NA
ATOM      8  N   LIG    1        1.424  -4.321  -0.251  0.00  0.00    -0.160 N 
ATOM      9  C   LIG    1        2.639  -4.114   0.313  0.00  0.00    +0.254 C 
ATOM     10  O   LIG    1        3.539  -4.916   0.443  0.00  0.00    -0.272 OA
ATOM     11  C   LIG    1        2.629  -2.673   0.740  0.00  0.00    +0.169 C 
ATOM     12  C   LIG    1        3.782  -1.862   0.221  0.00  0.00    +0.103 C 
ATOM     13  N   LIG    1        3.619  -0.625  -0.116  0.00  0.00    -0.258 NA
ATOM     14  C   LIG    1        0.002  -0.004   0.002  0.00  0.00    +0.012 A 
ENDROOT
BRANCH   8  15
ATOM     15  C   LIG    1        0.934  -5.573  -0.637  0.00  0.00    +0.060 A 
ATOM     16  C   LIG    1        1.705  -6.712  -0.446  0.00  0.00    +0.027 A 
ATOM     17  C   LIG    1        1.219  -7.947  -0.827  0.00  0.00    +0.022 A 
ATOM     18  C   LIG    1       -0.037  -8.050  -1.401  0.00  0.00    +0.041 A 
ATOM     19 CL   LIG    1       -0.645  -9.604  -1.880  0.00  0.00    -0.084 Cl
ATOM     20  C   LIG    1       -0.808  -6.917  -1.593  0.00  0.00    +0.022 A 
ATOM     21  C   LIG    1       -0.328  -5.681  -1.208  0.00  0.00    +0.027 A 
ENDBRANCH   8  15
TORSDOF 1
