REMARK  Name = ZINC13532268
REMARK                            x       y       z     vdW  Elec       q    Type
REMARK                         _______ _______ _______ _____ _____    ______ ____
ROOT
ATOM      1  C   ARG A  1        4.497   2.983   1.235  0.00  0.00    +0.199 C 
ATOM      2  N   GLY A  2        3.330   3.658   1.230  0.00  0.00    -0.308 N 
ATOM      3  H   GLY A  2        3.317   4.604   1.018  0.00  0.00    +0.149 HD
ATOM      4  O   ARG A  1        4.513   1.800   1.500  0.00  0.00    -0.278 OA
ENDROOT
BRANCH   2   5
ATOM      5  CA  GLY A  2        2.081   2.961   1.546  0.00  0.00    +0.200 C 
BRANCH   5   6
ATOM      6  C   GLY A  2        0.931   3.933   1.473  0.00  0.00    +0.231 C 
ATOM      7  N   ASP A  3       -0.324   3.513   1.727  0.00  0.00    -0.301 N 
ATOM      8  H   ASP A  3       -0.487   2.585   1.958  0.00  0.00    +0.150 HD
ATOM      9  O   GLY A  2        1.135   5.093   1.184  0.00  0.00    -0.274 OA
BRANCH   7  10
ATOM     10  CA  ASP A  3       -1.442   4.456   1.649  0.00  0.00    +0.192 C 
BRANCH  10  11
ATOM     11  C   ASP A  3       -1.579   5.181   2.963  0.00  0.00    +0.326 C 
ATOM     12  O   ASP A  3       -0.821   4.936   3.871  0.00  0.00    -0.249 OA
BRANCH  11  13
ATOM     13  OXT ASP A  3       -2.544   6.101   3.124  0.00  0.00    -0.479 OA
ATOM     14  HXT ASP A  3       -3.132   6.291   2.420  0.00  0.00    +0.295 HD
ENDBRANCH  11  13
ENDBRANCH  10  11
BRANCH  10  15
ATOM     15  CB  ASP A  3       -2.734   3.692   1.351  0.00  0.00    +0.154 C 
BRANCH  15  16
ATOM     16  CG  ASP A  3       -2.643   3.068  -0.018  0.00  0.00    +0.307 C 
ATOM     17  OD1 ASP A  3       -1.648   3.218  -0.686  0.00  0.00    -0.251 OA
BRANCH  16  18
ATOM     18  OD2 ASP A  3       -3.669   2.345  -0.494  0.00  0.00    -0.481 OA
ATOM     19  HD2 ASP A  3       -4.441   2.228   0.024  0.00  0.00    +0.295 HD
ENDBRANCH  16  18
ENDBRANCH  15  16
ENDBRANCH  10  15
ENDBRANCH   7  10
ENDBRANCH   5   6
ENDBRANCH   2   5
BRANCH   1  20
ATOM     20  CA  ARG A  1        5.782   3.700   0.909  0.00  0.00    +0.013 C 
BRANCH  20  21
ATOM     21  N   ARG A  1        6.938   2.942   1.421  0.00  0.00    +0.386 N 
ATOM     22  H1  ARG A  1        7.803   3.429   1.161  0.00  0.00    -0.089 HD
ATOM     23  H2  ARG A  1        6.948   2.007   1.018  0.00  0.00    -0.089 HD
ATOM     24  H3  ARG A  1        6.888   2.873   2.436  0.00  0.00    -0.089 HD
ENDBRANCH  20  21
BRANCH  20  25
ATOM     25  CB  ARG A  1        5.915   3.845  -0.608  0.00  0.00    -0.004 C 
BRANCH  25  26
ATOM     26  CG  ARG A  1        7.155   4.680  -0.933  0.00  0.00    +0.036 C 
BRANCH  26  27
ATOM     27  CD  ARG A  1        7.289   4.825  -2.451  0.00  0.00    +0.195 C 
BRANCH  27  28
ATOM     28  NE  ARG A  1        8.482   5.692  -2.742  0.00  0.00    -0.279 N 
ATOM     29  HE  ARG A  1        8.500   6.666  -2.418  0.00  0.00    +0.258 HD
ATOM     30  CZ  ARG A  1        9.521   5.195  -3.424  0.00  0.00    +0.341 C 
BRANCH  30  31
ATOM     31  NH2 ARG A  1       10.634   5.991  -3.549  0.00  0.00    -0.292 N 
ATOM     32 HH21 ARG A  1       11.407   5.671  -4.039  0.00  0.00    +0.255 HD
ATOM     33 HH22 ARG A  1       10.646   6.874  -3.146  0.00  0.00    +0.255 HD
ENDBRANCH  30  31
BRANCH  30  34
ATOM     34  NH1 ARG A  1        9.503   3.944  -3.995  0.00  0.00    -0.292 N 
ATOM     35 HH11 ARG A  1       10.318   3.566  -4.361  0.00  0.00    +0.255 HD
ATOM     36 HH12 ARG A  1        8.675   3.439  -4.032  0.00  0.00    +0.255 HD
ENDBRANCH  30  34
ENDBRANCH  27  28
ENDBRANCH  26  27
ENDBRANCH  25  26
ENDBRANCH  20  25
ENDBRANCH   1  20
TORSDOF 16
