REMARK  Name = ZINC13126033
REMARK                            x       y       z     vdW  Elec       q    Type
REMARK                         _______ _______ _______ _____ _____    ______ ____
ROOT
ATOM      1  N   LIG    1        0.711  -0.489   1.189  0.00  0.00    -0.311 N 
ATOM      2  C   LIG    1        2.075  -0.689   1.121  0.00  0.00    +0.056 A 
ATOM      3  C   LIG    1        2.772  -0.433  -0.056  0.00  0.00    +0.026 A 
ATOM      4  C   LIG    1        4.134  -0.636  -0.106  0.00  0.00    +0.002 A 
ATOM      5  C   LIG    1        4.822  -1.096   1.007  0.00  0.00    +0.001 A 
ATOM      6  C   LIG    1        4.152  -1.355   2.182  0.00  0.00    +0.014 A 
ATOM      7  C   LIG    1        2.773  -1.154   2.248  0.00  0.00    +0.046 A 
ATOM      8  C   LIG    1        2.022  -1.421   3.489  0.00  0.00    +0.208 A 
ATOM      9  C   LIG    1        0.621  -1.192   3.480  0.00  0.00    +0.174 A 
ATOM     10  O   LIG    1        2.588  -1.825   4.491  0.00  0.00    -0.286 OA
ATOM     11  C   LIG    1        0.010  -0.725   2.323  0.00  0.00    +0.212 A 
ENDROOT
BRANCH   9  12
ATOM     12  C   LIG    1       -0.179  -1.443   4.691  0.00  0.00    +0.358 C 
ATOM     13  N   LIG    1       -1.454  -1.220   4.618  0.00  0.00    +0.096 NA
ATOM     14  S   LIG    1       -2.437  -1.462   5.931  0.00  0.00    +0.183 S 
ATOM     15  C   LIG    1       -1.362  -1.603   7.322  0.00  0.00    +0.179 A 
ATOM     16  C   LIG    1       -1.855  -1.519   8.605  0.00  0.00    +0.035 A 
ATOM     17  C   LIG    1       -0.992  -1.630   9.682  0.00  0.00    +0.002 A 
ATOM     18  C   LIG    1        0.361  -1.823   9.468  0.00  0.00    +0.004 A 
ATOM     19  C   LIG    1        0.858  -1.908   8.182  0.00  0.00    +0.051 A 
ATOM     20  C   LIG    1       -0.004  -1.799   7.097  0.00  0.00    +0.148 A 
ATOM     21  O   LIG    1       -3.053  -2.731   5.753  0.00  0.00    -0.125 OA
ATOM     22  O   LIG    1       -3.185  -0.267   6.109  0.00  0.00    -0.125 OA
ATOM     23  N   LIG    1        0.484  -1.895   5.796  0.00  0.00    -0.196 N 
ATOM     24  H   LIG    1        1.364  -2.316   5.664  0.00  0.00    +0.299 HD
ENDBRANCH   9  12
BRANCH   1  26
ATOM     25  C   LIG    1       -0.019   1.526   0.010  0.00  0.00    +0.027 C 
ATOM     26  C   LIG    1        0.002  -0.004   0.002  0.00  0.00    +0.122 C 
ENDBRANCH   1  26
BRANCH  11  27
ATOM     27  O   LIG    1       -1.320  -0.505   2.328  0.00  0.00    -0.493 OA
ATOM     28  H   LIG    1       -1.746  -0.189   1.556  0.00  0.00    +0.294 HD
ENDBRANCH  11  27
TORSDOF 3
