REMARK  Name = ZINC13308113
REMARK                            x       y       z     vdW  Elec       q    Type
REMARK                         _______ _______ _______ _____ _____    ______ ____
ROOT
ATOM      1  N   LIG    1        2.514   0.295   0.266  0.00  0.00    -0.311 N 
ATOM      2  C   LIG    1        1.464   1.150   0.428  0.00  0.00    +0.202 A 
ATOM      3  N   LIG    1        0.362   0.476   0.585  0.00  0.00    -0.231 NA
ATOM      4  C   LIG    1        0.634  -0.851   0.533  0.00  0.00    +0.147 A 
ATOM      5  C   LIG    1       -0.136  -2.021   0.635  0.00  0.00    +0.147 A 
ATOM      6  N   LIG    1        0.479  -3.195   0.533  0.00  0.00    -0.219 NA
ATOM      7  C   LIG    1        1.783  -3.269   0.340  0.00  0.00    +0.225 A 
ATOM      8  N   LIG    1        2.544  -2.199   0.237  0.00  0.00    -0.216 NA
ATOM      9  C   LIG    1        2.018  -0.982   0.327  0.00  0.00    +0.166 A 
ENDROOT
BRANCH   5  10
ATOM     10  N   LIG    1       -1.504  -1.954   0.838  0.00  0.00    -0.341 N 
ATOM     11  H   LIG    1       -2.024  -2.770   0.906  0.00  0.00    +0.144 HD
ATOM     12  H   LIG    1       -1.690  -1.475   1.695  0.00  0.00    +0.144 HD
ENDBRANCH   5  10
BRANCH   1  13
ATOM     13  C   LIG    1        3.915   0.672   0.062  0.00  0.00    +0.152 C 
BRANCH  13  17
ATOM     14  C   LIG    1        5.110   2.946  -1.100  0.00  0.00    +0.038 C 
ATOM     15  C   LIG    1        4.724   1.772  -1.962  0.00  0.00    -0.078 C 
ATOM     16  C   LIG    1        4.917   1.837  -3.455  0.00  0.00    +0.038 C 
ATOM     17  C   LIG    1        4.220   0.694  -1.414  0.00  0.00    -0.007 C 
ENDBRANCH  13  17
ENDBRANCH   1  13
TORSDOF 3
