REMARK  Name = ZINC13233958
REMARK                            x       y       z     vdW  Elec       q    Type
REMARK                         _______ _______ _______ _____ _____    ______ ____
ROOT
ATOM      1  C   LIG    1        1.241  -0.432  -0.012  0.00  0.00    +0.159 A 
ATOM      2  N   LIG    1        2.098   0.633  -0.015  0.00  0.00    -0.335 N 
ATOM      3  C   LIG    1        1.324   1.775  -0.001  0.00  0.00    +0.086 A 
ATOM      4  C   LIG    1        1.604   3.135   0.004  0.00  0.00    +0.031 A 
ATOM      5  C   LIG    1        0.541   4.022   0.019  0.00  0.00    +0.022 A 
ATOM      6  C   LIG    1       -0.756   3.533   0.029  0.00  0.00    +0.113 A 
ATOM      7  N   LIG    1       -1.002   2.241   0.029  0.00  0.00    -0.234 NA
ATOM      8  C   LIG    1       -0.016   1.344   0.009  0.00  0.00    +0.178 A 
ATOM      9  H   LIG    1        3.097   0.593  -0.024  0.00  0.00    +0.167 HD
ATOM     10  N   LIG    1        0.002  -0.004   0.002  0.00  0.00    -0.207 NA
ENDROOT
BRANCH   1  15
ATOM     11  C   LIG    1        1.077  -4.180  -0.030  0.00  0.00    +0.004 A 
ATOM     12  C   LIG    1        2.435  -4.463  -0.044  0.00  0.00    +0.020 A 
ATOM     13  C   LIG    1        3.346  -3.421  -0.047  0.00  0.00    +0.111 A 
ATOM     14  N   LIG    1        2.940  -2.168  -0.042  0.00  0.00    -0.252 NA
ATOM     15  C   LIG    1        1.650  -1.854  -0.023  0.00  0.00    +0.106 A 
ATOM     16  C   LIG    1        0.678  -2.854  -0.019  0.00  0.00    +0.031 A 
ENDBRANCH   1  15
TORSDOF 1
