REMARK  Name = ZINC13475011
REMARK                            x       y       z     vdW  Elec       q    Type
REMARK                         _______ _______ _______ _____ _____    ______ ____
ROOT
ATOM      1  C   LIG    1        1.012  -1.773  -2.343  0.00  0.00    -0.096 C 
ATOM      2  N   LIG    1        1.458  -1.589  -0.947  0.00  0.00    +0.378 N 
ATOM      3  H   LIG    1        2.402  -1.183  -0.950  0.00  0.00    -0.082 HD
ATOM      4  C   LIG    1        1.499  -2.894  -0.254  0.00  0.00    -0.064 C 
ATOM      5  C   LIG    1        2.076  -2.693   1.149  0.00  0.00    +0.089 C 
ATOM      6  C   LIG    1        1.184  -1.722   1.929  0.00  0.00    +0.029 C 
ATOM      7  C   LIG    1        1.089  -0.400   1.162  0.00  0.00    -0.010 C 
ATOM      8  C   LIG    1        0.542  -0.667  -0.242  0.00  0.00    -0.079 C 
ENDROOT
BRANCH   6   9
ATOM      9  C   LIG    1        1.780  -1.473   3.290  0.00  0.00    -0.044 A 
ATOM     10  C   LIG    1        2.886  -0.654   3.422  0.00  0.00    +0.005 A 
ATOM     11  C   LIG    1        3.432  -0.426   4.671  0.00  0.00    +0.020 A 
ATOM     12  C   LIG    1        2.872  -1.017   5.789  0.00  0.00    +0.041 A 
ATOM     13 CL   LIG    1        3.558  -0.731   7.358  0.00  0.00    -0.084 Cl
ATOM     14  C   LIG    1        1.765  -1.836   5.657  0.00  0.00    +0.020 A 
ATOM     15  C   LIG    1        1.220  -2.064   4.408  0.00  0.00    +0.005 A 
ENDBRANCH   6   9
BRANCH   5  16
ATOM     16  C   LIG    1        3.468  -2.124   1.045  0.00  0.00    +0.309 C 
ATOM     17  O   LIG    1        3.729  -1.319   0.183  0.00  0.00    -0.251 OA
BRANCH  16  18
ATOM     18  O   LIG    1        4.418  -2.512   1.911  0.00  0.00    -0.468 OA
ATOM     19  C   LIG    1        5.735  -1.923   1.751  0.00  0.00    +0.280 C 
ENDBRANCH  16  18
ENDBRANCH   5  16
TORSDOF 3
