REMARK  Name = ZINC13130244
REMARK                            x       y       z     vdW  Elec       q    Type
REMARK                         _______ _______ _______ _____ _____    ______ ____
ROOT
ATOM      1  C   LIG    1       -1.123  -0.943   0.008  0.00  0.00    +0.251 C 
ATOM      2  N   LIG    1       -0.892  -2.270  -0.001  0.00  0.00    -0.311 N 
ATOM      3  H   LIG    1        0.018  -2.605  -0.012  0.00  0.00    +0.149 HD
ATOM      4  O   LIG    1       -2.265  -0.523   0.022  0.00  0.00    -0.270 OA
ENDROOT
BRANCH   1  10
ATOM      5  C   LIG    1       -0.017   1.383   0.010  0.00  0.00    +0.022 A 
ATOM      6  C   LIG    1        1.212   1.997   0.001  0.00  0.00    +0.028 A 
ATOM      7  C   LIG    1        2.332   1.229  -0.014  0.00  0.00    +0.079 A 
ATOM      8 CL   LIG    1        3.986   1.757  -0.027  0.00  0.00    -0.076 Cl
ATOM      9  S   LIG    1        1.751  -0.347  -0.017  0.00  0.00    -0.072 S 
ATOM     10  C   LIG    1        0.002  -0.004   0.002  0.00  0.00    +0.075 A 
ENDBRANCH   1  10
BRANCH   2  11
ATOM     11  C   LIG    1       -2.017  -3.209   0.005  0.00  0.00    +0.106 C 
BRANCH  11  12
ATOM     12  C   LIG    1       -1.484  -4.643  -0.008  0.00  0.00    +0.040 C 
BRANCH  12  13
ATOM     13  C   LIG    1       -2.659  -5.623  -0.002  0.00  0.00    +0.124 C 
BRANCH  13  14
ATOM     14  N   LIG    1       -2.149  -6.997  -0.014  0.00  0.00    -0.338 N 
ATOM     15  C   LIG    1       -1.872  -7.750  -1.123  0.00  0.00    +0.104 A 
ATOM     16  C   LIG    1       -1.427  -8.943  -0.682  0.00  0.00    +0.101 A 
ATOM     17  N   LIG    1       -1.433  -8.918   0.659  0.00  0.00    -0.352 N 
ATOM     18  H   LIG    1       -1.160  -9.649   1.235  0.00  0.00    +0.166 HD
ATOM     19  C   LIG    1       -1.860  -7.754   1.066  0.00  0.00    +0.173 A 
ENDBRANCH  13  14
ENDBRANCH  12  13
ENDBRANCH  11  12
ENDBRANCH   2  11
TORSDOF 5
