REMARK  Name = ZINC13130932
REMARK                            x       y       z     vdW  Elec       q    Type
REMARK                         _______ _______ _______ _____ _____    ______ ____
ROOT
ATOM      1  C   LIG    1       -0.018   1.503   0.010  0.00  0.00    +0.067 C 
ATOM      2  C   LIG    1        0.002  -0.004   0.002  0.00  0.00    +0.056 C 
ATOM      3  N   LIG    1        0.006  -0.671  -1.113  0.00  0.00    -0.286 NA
ATOM      4  C   LIG    1       -0.015  -2.124  -1.187  0.00  0.00    +0.146 C 
ATOM      5  C   LIG    1        0.751  -2.789  -0.042  0.00  0.00    +0.061 C 
ATOM      6  C   LIG    1        0.376  -2.102   1.246  0.00  0.00    -0.012 A 
ATOM      7  C   LIG    1        0.304  -2.568   2.556  0.00  0.00    +0.004 A 
ATOM      8  C   LIG    1        0.555  -3.825   3.129  0.00  0.00    +0.010 A 
ATOM      9  C   LIG    1        0.383  -3.938   4.484  0.00  0.00    +0.001 A 
ATOM     10  C   LIG    1       -0.019  -2.870   5.270  0.00  0.00    +0.002 A 
ATOM     11  C   LIG    1       -0.252  -1.618   4.738  0.00  0.00    +0.026 A 
ATOM     12  C   LIG    1       -0.093  -1.471   3.362  0.00  0.00    +0.047 A 
ATOM     13  N   LIG    1       -0.265  -0.391   2.540  0.00  0.00    -0.353 N 
ATOM     14  H   LIG    1       -0.543   0.495   2.819  0.00  0.00    +0.166 HD
ATOM     15  C   LIG    1        0.024  -0.773   1.256  0.00  0.00    +0.064 A 
ENDROOT
TORSDOF 0
