REMARK  Name = ZINC13125486
REMARK                            x       y       z     vdW  Elec       q    Type
REMARK                         _______ _______ _______ _____ _____    ______ ____
ROOT
ATOM      1  C   LIG    1        0.047   1.444  -0.471  0.00  0.00    +0.017 A 
ATOM      2  C   LIG    1        1.225   2.146  -0.331  0.00  0.00    +0.027 A 
ATOM      3  C   LIG    1        2.430   1.462  -0.209  0.00  0.00    +0.047 A 
ATOM      4  C   LIG    1        2.431   0.058  -0.232  0.00  0.00    +0.008 A 
ATOM      5  C   LIG    1        3.841  -0.349  -0.084  0.00  0.00    +0.002 A 
ATOM      6  C   LIG    1        4.568   0.804   0.015  0.00  0.00    +0.091 A 
ATOM      7  C   LIG    1        1.234  -0.639  -0.374  0.00  0.00    +0.025 A 
ATOM      8  N   LIG    1        3.738   1.875  -0.059  0.00  0.00    -0.360 N 
ATOM      9  H   LIG    1        4.024   2.801  -0.013  0.00  0.00    +0.165 HD
ATOM     10  C   LIG    1        0.049   0.057  -0.493  0.00  0.00    +0.019 A 
ATOM     11 BR   LIG    1       -1.580  -0.884  -0.687  0.00  0.00    -0.050 Br
ENDROOT
BRANCH   5  12
ATOM     12  C   LIG    1        4.359  -1.717  -0.048  0.00  0.00    +0.038 C 
ATOM     13  C   LIG    1        5.606  -1.960   0.438  0.00  0.00    +0.098 C 
ATOM     14  C   LIG    1        6.313  -3.193   0.405  0.00  0.00    +0.266 C 
ATOM     15  N   LIG    1        7.506  -2.981   0.994  0.00  0.00    -0.235 N 
ATOM     16  H   LIG    1        8.197  -3.650   1.113  0.00  0.00    +0.159 HD
ATOM     17  C   LIG    1        7.591  -1.700   1.392  0.00  0.00    +0.311 C 
ATOM     18  O   LIG    1        8.549  -1.207   1.956  0.00  0.00    -0.252 OA
ATOM     19  O   LIG    1        5.915  -4.243  -0.068  0.00  0.00    -0.268 OA
ATOM     20  N   LIG    1        6.461  -1.043   1.068  0.00  0.00    -0.265 N 
ATOM     21  H   LIG    1        6.272  -0.108   1.241  0.00  0.00    +0.157 HD
ENDBRANCH   5  12
TORSDOF 1
