REMARK  Name = ZINC13412042
REMARK                            x       y       z     vdW  Elec       q    Type
REMARK                         _______ _______ _______ _____ _____    ______ ____
ROOT
ATOM      1  C   LIG    1        2.536  -0.081  -0.205  0.00  0.00    +0.044 A 
ATOM      2  C   LIG    1        2.441   1.298  -0.158  0.00  0.00    +0.165 A 
ATOM      3  C   LIG    1        1.206   1.930  -0.321  0.00  0.00    +0.159 A 
ATOM      4  C   LIG    1        0.069   1.178  -0.530  0.00  0.00    +0.064 A 
ATOM      5  C   LIG    1        0.160  -0.215  -0.577  0.00  0.00    +0.069 A 
ATOM      6  C   LIG    1       -1.042  -1.042  -0.799  0.00  0.00    +0.204 A 
ATOM      7  O   LIG    1       -2.143  -0.541  -0.947  0.00  0.00    -0.286 OA
ATOM      8  C   LIG    1       -0.848  -2.501  -0.832  0.00  0.00    +0.106 A 
ATOM      9  C   LIG    1       -1.934  -3.364  -1.036  0.00  0.00    +0.139 A 
ATOM     10  C   LIG    1       -1.724  -4.730  -1.062  0.00  0.00    +0.046 A 
ATOM     11  C   LIG    1       -0.442  -5.240  -0.887  0.00  0.00    +0.128 A 
ATOM     12  C   LIG    1        0.636  -4.392  -0.687  0.00  0.00    +0.093 A 
ATOM     13  C   LIG    1        0.447  -3.017  -0.656  0.00  0.00    +0.146 A 
ATOM     14  O   LIG    1        1.500  -2.198  -0.458  0.00  0.00    -0.454 OA
ATOM     15  C   LIG    1        1.400  -0.853  -0.414  0.00  0.00    +0.146 A 
ENDROOT
BRANCH  10  16
ATOM     16  C   LIG    1       -2.884  -5.667  -1.280  0.00  0.00    +0.015 C 
ATOM     17  C   LIG    1       -2.914  -6.710  -0.161  0.00  0.00    +0.020 C 
ATOM     18  C   LIG    1       -2.725  -6.371  -2.629  0.00  0.00    +0.020 C 
BRANCH  16  19
ATOM     19  C   LIG    1       -4.171  -4.883  -1.270  0.00  0.00    -0.023 C 
ATOM     20  C   LIG    1       -4.948  -4.887  -2.325  0.00  0.00    +0.005 C 
ENDBRANCH  16  19
ENDBRANCH  10  16
BRANCH   2  21
ATOM     21  O   LIG    1        3.557   2.044   0.047  0.00  0.00    -0.503 OA
ATOM     22  H   LIG    1        4.015   2.298  -0.765  0.00  0.00    +0.292 HD
ENDBRANCH   2  21
BRANCH   3  23
ATOM     23  O   LIG    1        1.125   3.288  -0.273  0.00  0.00    -0.503 OA
ATOM     24  H   LIG    1        0.967   3.641   0.613  0.00  0.00    +0.292 HD
ENDBRANCH   3  23
BRANCH   9  25
ATOM     25  O   LIG    1       -3.183  -2.862  -1.205  0.00  0.00    -0.506 OA
ATOM     26  H   LIG    1       -3.412  -2.679  -2.127  0.00  0.00    +0.292 HD
ENDBRANCH   9  25
BRANCH  11  27
ATOM     27  O   LIG    1       -0.244  -6.582  -0.915  0.00  0.00    -0.506 OA
ATOM     28  H   LIG    1        0.025  -6.923  -1.779  0.00  0.00    +0.292 HD
ENDBRANCH  11  27
BRANCH   1  29
ATOM     29  C   LIG    1        3.876  -0.749  -0.027  0.00  0.00    +0.069 C 
BRANCH  29  33
ATOM     30  C   LIG    1        6.453   0.307  -0.467  0.00  0.00    +0.038 C 
ATOM     31  C   LIG    1        5.711  -0.369  -1.591  0.00  0.00    -0.079 C 
ATOM     32  C   LIG    1        6.319  -0.424  -2.969  0.00  0.00    +0.038 C 
ATOM     33  C   LIG    1        4.539  -0.910  -1.371  0.00  0.00    -0.023 C 
ENDBRANCH  29  33
ENDBRANCH   1  29
TORSDOF 8
