REMARK  Name = ZINC13523046
REMARK                            x       y       z     vdW  Elec       q    Type
REMARK                         _______ _______ _______ _____ _____    ______ ____
ROOT
ATOM      1  N   LIG    1       -0.725   2.019  -1.187  0.00  0.00    +0.389 N 
ATOM      2  H   LIG    1       -0.237   1.688  -2.028  0.00  0.00    -0.084 HD
ATOM      3  H   LIG    1       -0.732   3.045  -1.178  0.00  0.00    -0.084 HD
ENDROOT
BRANCH   1   4
ATOM      4  C   LIG    1       -0.019   1.526   0.010  0.00  0.00    -0.065 C 
ATOM      5  C   LIG    1        0.002  -0.004   0.002  0.00  0.00    -0.009 C 
ATOM      6  C   LIG    1        0.742  -0.511   1.242  0.00  0.00    -0.009 C 
ATOM      7  C   LIG    1        2.178   0.019   1.231  0.00  0.00    +0.007 C 
ATOM      8  C   LIG    1        2.157   1.548   1.239  0.00  0.00    -0.009 C 
ATOM      9  C   LIG    1        1.441   2.042   2.498  0.00  0.00    +0.038 C 
ATOM     10  C   LIG    1        0.005   1.512   2.509  0.00  0.00    +0.065 C 
ATOM     11  C   LIG    1        0.026  -0.018   2.500  0.00  0.00    +0.038 C 
ATOM     12  C   LIG    1       -0.735   2.019   1.269  0.00  0.00    +0.022 C 
ATOM     13  C   LIG    1        1.417   2.055  -0.000  0.00  0.00    -0.009 C 
BRANCH  10  14
ATOM     14  O   LIG    1       -0.664   1.973   3.684  0.00  0.00    -0.389 OA
ATOM     15  H   LIG    1       -0.714   2.936   3.756  0.00  0.00    +0.210 HD
ENDBRANCH  10  14
ENDBRANCH   1   4
BRANCH   1  16
ATOM     16  C   LIG    1       -2.114   1.523  -1.203  0.00  0.00    +0.016 C 
BRANCH  16  21
ATOM     17  C   LIG    1       -6.033   0.309  -2.748  0.00  0.00    +0.022 C 
ATOM     18  C   LIG    1       -6.294   1.521  -3.682  0.00  0.00    +0.039 C 
ATOM     19  C   LIG    1       -4.895   2.158  -3.822  0.00  0.00    +0.179 C 
ATOM     20  N   LIG    1       -4.097   1.718  -2.669  0.00  0.00    -0.287 N 
ATOM     21  C   LIG    1       -2.809   2.041  -2.435  0.00  0.00    +0.200 C 
ATOM     22  O   LIG    1       -2.211   2.749  -3.217  0.00  0.00    -0.278 OA
ATOM     23  C   LIG    1       -4.940   0.871  -1.806  0.00  0.00    +0.109 C 
BRANCH  19  24
ATOM     24  C   LIG    1       -5.008   3.625  -3.823  0.00  0.00    +0.085 C 
ATOM     25  N   LIG    1       -5.096   4.758  -3.824  0.00  0.00    -0.195 NA
ENDBRANCH  19  24
ENDBRANCH  16  21
ENDBRANCH   1  16
TORSDOF 5
