REMARK  Name = ZINC13261360
REMARK                            x       y       z     vdW  Elec       q    Type
REMARK                         _______ _______ _______ _____ _____    ______ ____
ROOT
ATOM      1  C   LIG    1        5.948  -3.569   0.310  0.00  0.00    +0.106 A 
ATOM      2  C   LIG    1        5.877  -4.829  -0.258  0.00  0.00    +0.028 A 
ATOM      3  C   LIG    1        6.930  -5.314  -1.012  0.00  0.00    +0.003 A 
ATOM      4  C   LIG    1        8.059  -4.544  -1.204  0.00  0.00    +0.013 A 
ATOM      5  C   LIG    1        8.137  -3.272  -0.634  0.00  0.00    +0.039 A 
ATOM      6  C   LIG    1        7.069  -2.786   0.122  0.00  0.00    +0.041 A 
ENDROOT
BRANCH   5   7
ATOM      7  C   LIG    1        9.342  -2.441  -0.835  0.00  0.00    +0.248 C 
ATOM      8  N   LIG    1       10.370  -2.912  -1.569  0.00  0.00    -0.281 N 
ATOM      9  H   LIG    1       10.346  -3.819  -1.912  0.00  0.00    +0.155 HD
ATOM     10  O   LIG    1        9.408  -1.334  -0.337  0.00  0.00    -0.270 OA
BRANCH   8  11
ATOM     11  C   LIG    1       11.464  -2.096  -1.836  0.00  0.00    +0.048 A 
ATOM     12  C   LIG    1       11.906  -1.186  -0.884  0.00  0.00    +0.024 A 
ATOM     13  C   LIG    1       12.992  -0.379  -1.150  0.00  0.00    +0.002 A 
ATOM     14  C   LIG    1       13.652  -0.467  -2.367  0.00  0.00    +0.001 A 
ATOM     15  C   LIG    1       13.229  -1.362  -3.324  0.00  0.00    +0.017 A 
ATOM     16  C   LIG    1       12.133  -2.192  -3.068  0.00  0.00    +0.080 A 
BRANCH  16  17
ATOM     17  C   LIG    1       11.680  -3.155  -4.083  0.00  0.00    +0.339 C 
ATOM     18  O   LIG    1       12.322  -3.305  -5.114  0.00  0.00    -0.245 OA
BRANCH  17  19
ATOM     19  O   LIG    1       10.660  -3.806  -3.898  0.00  0.00    -0.477 OA
ATOM     20  H   LIG    1       10.168  -3.691  -3.108  0.00  0.00    +0.295 HD
ENDBRANCH  17  19
ENDBRANCH  16  17
ENDBRANCH   8  11
ENDBRANCH   5   7
BRANCH   1  21
ATOM     21  S   LIG    1        4.602  -2.960   1.270  0.00  0.00    +0.061 S 
ATOM     22  O   LIG    1        3.898  -4.098   1.750  0.00  0.00    -0.153 OA
ATOM     23  O   LIG    1        5.136  -1.972   2.139  0.00  0.00    -0.153 OA
BRANCH  21  31
ATOM     24  C   LIG    1       -0.044   1.270   0.025  0.00  0.00    +0.000 A 
ATOM     25  C   LIG    1        1.139   1.986   0.006  0.00  0.00    +0.000 A 
ATOM     26  C   LIG    1        2.344   1.316  -0.014  0.00  0.00    +0.005 A 
ATOM     27  C   LIG    1        2.378  -0.072  -0.012  0.00  0.00    -0.028 A 
ATOM     28  C   LIG    1        1.202  -0.787   0.018  0.00  0.00    -0.042 A 
ATOM     29  C   LIG    1        1.161  -2.292   0.053  0.00  0.00    +0.052 C 
ATOM     30  C   LIG    1        2.479  -2.884  -0.443  0.00  0.00    +0.114 C 
ATOM     31  N   LIG    1        3.578  -2.174   0.233  0.00  0.00    -0.172 NA
ATOM     32  C   LIG    1        3.729  -0.742  -0.049  0.00  0.00    +0.144 C 
ATOM     33  C   LIG    1       -0.011  -0.108   0.030  0.00  0.00    +0.004 A 
ENDBRANCH  21  31
ENDBRANCH   1  21
TORSDOF 6
