REMARK  Name = ZINC13473200
REMARK                            x       y       z     vdW  Elec       q    Type
REMARK                         _______ _______ _______ _____ _____    ______ ____
ROOT
ATOM      1  C   LIG    1       -0.718   1.572   1.248  0.00  0.00    -0.007 A 
ATOM      2  C   LIG    1       -1.793   0.882   1.966  0.00  0.00    +0.008 A 
ATOM      3  C   LIG    1       -2.463  -0.329   1.776  0.00  0.00    +0.058 A 
ATOM      4  C   LIG    1       -3.458  -0.702   2.657  0.00  0.00    +0.151 A 
ATOM      5  C   LIG    1       -3.791   0.121   3.730  0.00  0.00    +0.165 A 
ATOM      6  C   LIG    1       -3.137   1.316   3.926  0.00  0.00    +0.062 A 
ATOM      7  C   LIG    1       -2.132   1.711   3.050  0.00  0.00    +0.052 A 
ATOM      8  N   LIG    1       -1.315   2.821   2.983  0.00  0.00    -0.338 N 
ATOM      9  C   LIG    1       -1.338   3.941   3.928  0.00  0.00    +0.150 C 
ATOM     10  C   LIG    1       -0.476   2.717   1.907  0.00  0.00    +0.085 A 
ATOM     11  I   LIG    1        0.967   4.135   1.366  0.00  0.00    -0.024 I 
ENDROOT
BRANCH   4  12
ATOM     12  O   LIG    1       -4.115  -1.879   2.477  0.00  0.00    -0.493 OA
ATOM     13  C   LIG    1       -3.724  -2.676   1.357  0.00  0.00    +0.277 C 
ENDBRANCH   4  12
BRANCH   5  14
ATOM     14  N   LIG    1       -4.860  -0.292   4.667  0.00  0.00    +0.010 N 
ATOM     15  O   LIG    1       -5.156   0.423   5.607  0.00  0.00    -0.130 OA
BRANCH  14  16
ATOM     16  O   LIG    1       -5.442  -1.349   4.499  0.00  0.00    -0.396 OA
ATOM     17  H   LIG    1       -5.215  -1.899   3.776  0.00  0.00    +0.329 HD
ENDBRANCH  14  16
ENDBRANCH   5  14
BRANCH   1  18
ATOM     18  C   LIG    1       -0.013   1.086   0.008  0.00  0.00    +0.057 C 
BRANCH  18  19
ATOM     19  C   LIG    1       -0.753   1.593  -1.232  0.00  0.00    +0.109 C 
BRANCH  19  22
ATOM     20  C   LIG    1        0.162   0.960  -4.895  0.00  0.00    +0.109 C 
ATOM     21  C   LIG    1       -0.543   1.446  -3.655  0.00  0.00    +0.210 C 
ATOM     22  N   LIG    1       -0.067   1.120  -2.437  0.00  0.00    -0.315 N 
ATOM     23  H   LIG    1        0.730   0.573  -2.358  0.00  0.00    +0.149 HD
ATOM     24  O   LIG    1       -1.540   2.130  -3.753  0.00  0.00    -0.276 OA
ENDBRANCH  19  22
ENDBRANCH  18  19
ENDBRANCH   1  18
TORSDOF 6
