REMARK  Name = ZINC13208878
REMARK                            x       y       z     vdW  Elec       q    Type
REMARK                         _______ _______ _______ _____ _____    ______ ____
ROOT
ATOM      1  N   LIG    1       -1.318  -1.702  -1.129  0.00  0.00    -0.294 NA
ATOM      2  C   LIG    1       -1.377  -0.969  -2.404  0.00  0.00    +0.089 C 
ATOM      3  C   LIG    1       -1.081  -1.949  -3.543  0.00  0.00    +0.043 C 
ATOM      4  C   LIG    1       -1.928  -3.180  -3.385  0.00  0.00    -0.019 C 
ATOM      5  C   LIG    1       -2.534  -3.486  -2.258  0.00  0.00    -0.013 C 
ATOM      6  C   LIG    1       -2.448  -2.634  -1.024  0.00  0.00    +0.121 C 
ENDROOT
BRANCH   5   7
ATOM      7  C   LIG    1       -3.338  -4.724  -2.204  0.00  0.00    +0.052 A 
ATOM      8  C   LIG    1       -4.693  -4.663  -2.024  0.00  0.00    +0.074 A 
ATOM      9  S   LIG    1       -5.111  -6.401  -2.042  0.00  0.00    -0.062 S 
ATOM     10  C   LIG    1       -3.456  -7.030  -2.284  0.00  0.00    +0.134 A 
ATOM     11  N   LIG    1       -2.753  -5.914  -2.335  0.00  0.00    -0.337 N 
ATOM     12  H   LIG    1       -1.793  -5.961  -2.466  0.00  0.00    +0.168 HD
BRANCH  10  13
ATOM     13  N   LIG    1       -3.025  -8.342  -2.394  0.00  0.00    -0.339 N 
ATOM     14  H   LIG    1       -2.084  -8.534  -2.525  0.00  0.00    +0.144 HD
ATOM     15  H   LIG    1       -3.666  -9.069  -2.341  0.00  0.00    +0.144 HD
ENDBRANCH  10  13
ENDBRANCH   5   7
BRANCH   1  16
ATOM     16  C   LIG    1       -1.293  -0.775   0.010  0.00  0.00    +0.111 C 
BRANCH  16  18
ATOM     17  C   LIG    1       -0.016   1.306   0.009  0.00  0.00    +0.005 C 
ATOM     18  C   LIG    1        0.002  -0.004   0.002  0.00  0.00    -0.019 C 
ENDBRANCH  16  18
ENDBRANCH   1  16
TORSDOF 4
