REMARK  Name = ZINC13533762
REMARK                            x       y       z     vdW  Elec       q    Type
REMARK                         _______ _______ _______ _____ _____    ______ ____
ROOT
ATOM      1  O   LIG    1        6.600   0.194  -2.488  0.00  0.00    -0.284 OA
ENDROOT
BRANCH   1   2
ATOM      2  P   LIG    1        7.172  -0.895  -3.526  0.00  0.00    +0.483 P 
ATOM      3  O   LIG    1        8.354  -1.652  -2.878  0.00  0.00    -0.227 OA
BRANCH   2   4
ATOM      4  O   LIG    1        6.055  -1.898  -3.889  0.00  0.00    -0.302 OA
ATOM      5  H   LIG    1        5.749  -2.347  -3.085  0.00  0.00    +0.222 HD
ENDBRANCH   2   4
BRANCH   2   6
ATOM      6  O   LIG    1        7.679  -0.150  -4.860  0.00  0.00    -0.186 OA
BRANCH   6   7
ATOM      7  P   LIG    1        8.602  -0.589  -6.104  0.00  0.00    +0.492 P 
ATOM      8  O   LIG    1        9.786  -1.440  -5.593  0.00  0.00    -0.226 OA
BRANCH   7   9
ATOM      9  O   LIG    1        7.762  -1.421  -7.099  0.00  0.00    -0.302 OA
ATOM     10  H   LIG    1        7.423  -2.213  -6.653  0.00  0.00    +0.222 HD
ENDBRANCH   7   9
BRANCH   7  11
ATOM     11  O   LIG    1        9.165   0.725  -6.845  0.00  0.00    -0.186 OA
BRANCH  11  12
ATOM     12  P   LIG    1       10.338   0.989  -7.915  0.00  0.00    +0.481 P 
ATOM     13  O   LIG    1       11.581   0.105  -7.556  0.00  0.00    -0.227 OA
BRANCH  12  14
ATOM     14  O   LIG    1       10.745   2.501  -7.881  0.00  0.00    -0.302 OA
ATOM     15  H   LIG    1       11.060   2.732  -6.993  0.00  0.00    +0.222 HD
ENDBRANCH  12  14
BRANCH  12  16
ATOM     16  O   LIG    1        9.830   0.617  -9.350  0.00  0.00    -0.302 OA
ATOM     17  H   LIG    1        9.578  -0.320  -9.371  0.00  0.00    +0.222 HD
ENDBRANCH  12  16
ENDBRANCH  11  12
ENDBRANCH   7  11
ENDBRANCH   6   7
ENDBRANCH   2   6
ENDBRANCH   1   2
BRANCH   1  18
ATOM     18  C   LIG    1        6.170  -0.140  -1.167  0.00  0.00    +0.204 C 
BRANCH  18  22
ATOM     19  C   LIG    1        3.603   2.122  -0.021  0.00  0.00    +0.224 C 
ATOM     20  C   LIG    1        4.320   1.941   1.334  0.00  0.00    +0.057 C 
ATOM     21  C   LIG    1        5.333   0.806   1.023  0.00  0.00    +0.038 C 
ATOM     22  C   LIG    1        5.686   1.123  -0.452  0.00  0.00    +0.147 C 
ATOM     23  O   LIG    1        4.461   1.594  -1.040  0.00  0.00    -0.351 OA
BRANCH  19  26
ATOM     24  C   LIG    1        1.117  -0.568  -0.469  0.00  0.00    +0.088 A 
ATOM     25  C   LIG    1        2.288   0.105  -0.476  0.00  0.00    +0.098 A 
ATOM     26  N   LIG    1        2.333   1.392  -0.013  0.00  0.00    -0.274 N 
ATOM     27  C   LIG    1        1.222   1.992   0.451  0.00  0.00    +0.331 A 
ATOM     28  N   LIG    1        0.042   1.345   0.470  0.00  0.00    -0.275 N 
ATOM     29  H   LIG    1       -0.749   1.793   0.807  0.00  0.00    +0.173 HD
ATOM     30  O   LIG    1        1.285   3.136   0.859  0.00  0.00    -0.246 OA
ATOM     31  C   LIG    1       -0.044   0.076   0.021  0.00  0.00    +0.254 A 
ATOM     32  O   LIG    1       -1.111  -0.510   0.038  0.00  0.00    -0.268 OA
ENDBRANCH  19  26
ENDBRANCH  18  22
ENDBRANCH   1  18
TORSDOF 12
