REMARK  Name = ZINC13328047
REMARK                            x       y       z     vdW  Elec       q    Type
REMARK                         _______ _______ _______ _____ _____    ______ ____
ROOT
ATOM      1  C   UNK    1       -1.411   2.900   1.069  0.00  0.00    -0.011 C 
ATOM      2  C   UNK    1       -0.634   1.606   1.322  0.00  0.00    -0.043 C 
ATOM      3  N   UNK    1        0.527   1.872   2.173  0.00  0.00    +0.388 N 
ATOM      4  H   UNK    1        0.277   2.534   2.917  0.00  0.00    -0.085 HD
ATOM      5  H   UNK    1        0.867   0.999   2.592  0.00  0.00    -0.085 HD
ATOM      6  C   UNK    1        1.554   2.451   1.306  0.00  0.00    -0.014 C 
ATOM      7  C   UNK    1        1.426   1.641  -0.003  0.00  0.00    +0.130 C 
ATOM      8  C   UNK    1       -0.013   1.086   0.008  0.00  0.00    +0.127 C 
ENDROOT
BRANCH   7   9
ATOM      9  O   UNK    1        2.372   0.570  -0.018  0.00  0.00    -0.391 OA
ATOM     10  H   UNK    1        2.308  -0.000  -0.796  0.00  0.00    +0.210 HD
ENDBRANCH   7   9
BRANCH   8  11
ATOM     11  O   UNK    1       -0.743   1.578  -1.117  0.00  0.00    -0.391 OA
ATOM     12  H   UNK    1       -0.383   1.300  -1.971  0.00  0.00    +0.210 HD
ENDBRANCH   8  11
BRANCH   6  13
ATOM     13  C   UNK    1        2.953   2.284   1.902  0.00  0.00    +0.143 C 
BRANCH  13  14
ATOM     14  O   UNK    1        3.087   3.130   3.046  0.00  0.00    -0.397 OA
ATOM     15  H   UNK    1        3.951   3.076   3.476  0.00  0.00    +0.209 HD
ENDBRANCH  13  14
ENDBRANCH   6  13
TORSDOF 4
