REMARK  Name = ZINC13154116
REMARK                            x       y       z     vdW  Elec       q    Type
REMARK                         _______ _______ _______ _____ _____    ______ ____
ROOT
ATOM      1  C   LIG    1       -0.191   1.175  -0.128  0.00  0.00    +0.179 C 
ENDROOT
BRANCH   1   2
ATOM      2  C   LIG    1       -0.836   1.616   1.161  0.00  0.00    +0.123 A 
ATOM      3  C   LIG    1       -1.767   0.921   1.849  0.00  0.00    +0.047 A 
ATOM      4  C   LIG    1       -2.099   1.681   2.982  0.00  0.00    +0.049 A 
ATOM      5  C   LIG    1       -1.335   2.828   2.923  0.00  0.00    +0.129 A 
ATOM      6  O   LIG    1       -0.574   2.760   1.810  0.00  0.00    -0.459 OA
BRANCH   5   7
ATOM      7  C   LIG    1       -1.343   3.885   3.864  0.00  0.00    +0.066 C 
ATOM      8  C   LIG    1       -0.616   5.013   3.628  0.00  0.00    +0.083 A 
ATOM      9  C   LIG    1        0.353   5.288   2.563  0.00  0.00    +0.267 A 
ATOM     10  N   LIG    1        0.943   6.496   2.544  0.00  0.00    -0.285 N 
ATOM     11  C   LIG    1        0.617   7.405   3.526  0.00  0.00    +0.172 A 
ATOM     12  N   LIG    1        1.230   8.544   3.445  0.00  0.00    -0.259 NA
ATOM     13  C   LIG    1        2.131   8.550   2.289  0.00  0.00    +0.166 C 
ATOM     14  C   LIG    1        1.947   7.159   1.663  0.00  0.00    +0.150 C 
ATOM     15  O   LIG    1        0.613   4.450   1.719  0.00  0.00    -0.266 OA
ATOM     16  S   LIG    1       -0.581   6.548   4.536  0.00  0.00    -0.046 S 
ENDBRANCH   5   7
ENDBRANCH   1   2
BRANCH   1  18
ATOM     17  C   LIG    1       -0.592   1.385  -2.522  0.00  0.00    +0.300 C 
ATOM     18  N   LIG    1       -0.981   1.661  -1.262  0.00  0.00    -0.300 N 
ATOM     19  H   LIG    1       -1.785   2.181  -1.105  0.00  0.00    +0.150 HD
ATOM     20  O   LIG    1        0.413   0.734  -2.718  0.00  0.00    -0.265 OA
BRANCH  17  23
ATOM     21  N   LIG    1       -1.009   1.604  -4.938  0.00  0.00    -0.278 N 
ATOM     22  H   LIG    1       -0.172   1.140  -5.097  0.00  0.00    +0.155 HD
ATOM     23  C   LIG    1       -1.398   1.880  -3.678  0.00  0.00    +0.303 C 
ATOM     24  O   LIG    1       -2.404   2.531  -3.482  0.00  0.00    -0.265 OA
BRANCH  21  28
ATOM     25  C   LIG    1       -3.398   2.746  -8.152  0.00  0.00    +0.000 A 
ATOM     26  C   LIG    1       -3.321   3.550  -7.030  0.00  0.00    +0.002 A 
ATOM     27  C   LIG    1       -2.530   3.175  -5.962  0.00  0.00    +0.023 A 
ATOM     28  C   LIG    1       -1.811   1.987  -6.016  0.00  0.00    +0.034 A 
ATOM     29  C   LIG    1       -1.886   1.184  -7.148  0.00  0.00    +0.023 A 
ATOM     30  C   LIG    1       -2.684   1.563  -8.210  0.00  0.00    +0.002 A 
ENDBRANCH  21  28
ENDBRANCH  17  23
ENDBRANCH   1  18
TORSDOF 5
