REMARK  Name = ZINC13310237
REMARK                            x       y       z     vdW  Elec       q    Type
REMARK                         _______ _______ _______ _____ _____    ______ ____
ROOT
ATOM      1  C   LIG    1       -0.016   1.353   0.009  0.00  0.00    +0.046 A 
ATOM      2  C   LIG    1        1.315   1.787  -0.001  0.00  0.00    +0.048 A 
ATOM      3  C   LIG    1        2.113   0.635  -0.054  0.00  0.00    +0.113 A 
ATOM      4  C   LIG    1        3.579   0.734  -0.188  0.00  0.00    +0.261 C 
ATOM      5  N   LIG    1        4.216   1.663   0.571  0.00  0.00    -0.310 N 
ATOM      6  H   LIG    1        5.127   1.916   0.354  0.00  0.00    +0.149 HD
ATOM      7  C   LIG    1        3.548   2.283   1.705  0.00  0.00    +0.112 C 
ATOM      8  C   LIG    1        2.683   3.485   1.315  0.00  0.00    +0.098 C 
ATOM      9  O   LIG    1        4.194   0.011  -0.949  0.00  0.00    -0.269 OA
ATOM     10  N   LIG    1        1.294  -0.437  -0.018  0.00  0.00    -0.345 N 
ATOM     11  H   LIG    1        1.578  -1.365  -0.009  0.00  0.00    +0.167 HD
ATOM     12  C   LIG    1        1.882   3.141   0.074  0.00  0.00    +0.167 C 
ATOM     13  O   LIG    1        1.717   3.948  -0.816  0.00  0.00    -0.292 OA
ATOM     14  C   LIG    1        0.002  -0.004   0.002  0.00  0.00    +0.084 A 
ATOM     15 BR   LIG    1       -1.525  -1.119   0.018  0.00  0.00    -0.031 Br
ENDROOT
TORSDOF 0
