REMARK  Name = ZINC13025778
REMARK                            x       y       z     vdW  Elec       q    Type
REMARK                         _______ _______ _______ _____ _____    ______ ____
ROOT
ATOM      1  N   LIG    1        1.379  -2.327  -0.130  0.00  0.00    -0.245 N 
ATOM      2  C   LIG    1        1.363  -3.173  -1.179  0.00  0.00    +0.287 C 
ATOM      3  O   LIG    1        1.163  -4.360  -1.002  0.00  0.00    -0.266 OA
ENDROOT
BRANCH   1   7
ATOM      4  C   LIG    1        1.765   1.780  -0.764  0.00  0.00    +0.124 A 
ATOM      5  C   LIG    1        2.895   0.993  -0.595  0.00  0.00    +0.047 A 
ATOM      6  C   LIG    1        2.767  -0.366  -0.384  0.00  0.00    +0.031 A 
ATOM      7  C   LIG    1        1.508  -0.947  -0.342  0.00  0.00    +0.080 A 
ATOM      8  C   LIG    1        0.373  -0.159  -0.513  0.00  0.00    +0.145 A 
ATOM      9  C   LIG    1        0.504   1.204  -0.723  0.00  0.00    +0.093 A 
BRANCH   4  11
ATOM     10  C   LIG    1        3.222   3.645  -1.002  0.00  0.00    +0.277 C 
ATOM     11  O   LIG    1        1.894   3.118  -0.971  0.00  0.00    -0.495 OA
ENDBRANCH   4  11
BRANCH   8  12
ATOM     12  O   LIG    1       -0.863  -0.726  -0.472  0.00  0.00    -0.493 OA
ATOM     13  C   LIG    1       -1.982   0.144  -0.654  0.00  0.00    +0.277 C 
ENDBRANCH   8  12
ENDBRANCH   1   7
BRANCH   2  14
ATOM     14  C   LIG    1        1.587  -2.662  -2.535  0.00  0.00    +0.190 A 
ATOM     15  C   LIG    1        1.597  -3.405  -3.681  0.00  0.00    +0.054 A 
ATOM     16  C   LIG    1        1.847  -2.514  -4.737  0.00  0.00    +0.042 A 
ATOM     17  C   LIG    1        1.976  -1.282  -4.197  0.00  0.00    +0.196 A 
ATOM     18  O   LIG    1        1.813  -1.375  -2.870  0.00  0.00    -0.458 OA
ENDBRANCH   2  14
BRANCH   1  19
ATOM     19  C   LIG    1        1.261  -2.850   1.234  0.00  0.00    +0.200 C 
BRANCH  19  20
ATOM     20  C   LIG    1       -0.014  -3.644   1.359  0.00  0.00    +0.017 A 
ATOM     21  C   LIG    1        0.014  -5.020   1.240  0.00  0.00    +0.009 A 
ATOM     22  C   LIG    1       -1.155  -5.749   1.361  0.00  0.00    +0.001 A 
ATOM     23  C   LIG    1       -2.355  -5.100   1.589  0.00  0.00    +0.003 A 
ATOM     24  C   LIG    1       -2.386  -3.724   1.702  0.00  0.00    +0.039 A 
ATOM     25  C   LIG    1       -1.215  -2.993   1.588  0.00  0.00    +0.129 A 
ATOM     26  F   LIG    1       -1.244  -1.647   1.698  0.00  0.00    -0.205 F 
ENDBRANCH  19  20
BRANCH  19  27
ATOM     27  C   LIG    1        2.438  -3.742   1.534  0.00  0.00    +0.239 C 
ATOM     28  N   LIG    1        2.543  -4.338   2.738  0.00  0.00    -0.311 N 
ATOM     29  H   LIG    1        1.860  -4.194   3.411  0.00  0.00    +0.149 HD
ATOM     30  O   LIG    1        3.292  -3.922   0.691  0.00  0.00    -0.273 OA
BRANCH  28  31
ATOM     31  C   LIG    1        3.688  -5.204   3.029  0.00  0.00    +0.073 C 
ATOM     32  C   LIG    1        3.384  -6.649   2.583  0.00  0.00    +0.022 C 
ATOM     33  C   LIG    1        4.046  -7.530   3.671  0.00  0.00    +0.002 C 
ATOM     34  C   LIG    1        3.775  -6.731   4.969  0.00  0.00    +0.002 C 
ATOM     35  C   LIG    1        3.937  -5.257   4.547  0.00  0.00    +0.022 C 
ENDBRANCH  28  31
ENDBRANCH  19  27
ENDBRANCH   1  19
TORSDOF 8
