REMARK  Name = ZINC13284239
REMARK                            x       y       z     vdW  Elec       q    Type
REMARK                         _______ _______ _______ _____ _____    ______ ____
ROOT
ATOM      1  C   LIG    1        0.553  -2.131   0.118  0.00  0.00    +0.007 A 
ATOM      2  C   LIG    1       -0.539  -2.973   0.343  0.00  0.00    +0.035 A 
ATOM      3  C   LIG    1       -0.648  -3.657   1.536  0.00  0.00    +0.071 A 
ATOM      4  N   LIG    1        0.311  -3.510   2.498  0.00  0.00    -0.302 N 
ATOM      5  C   LIG    1       -0.049  -4.341   3.653  0.00  0.00    +0.162 C 
ATOM      6  C   LIG    1       -1.346  -5.024   3.301  0.00  0.00    +0.000 A 
ATOM      7  C   LIG    1       -2.140  -5.897   3.975  0.00  0.00    +0.017 A 
ATOM      8  C   LIG    1       -3.313  -6.354   3.341  0.00  0.00    +0.001 A 
ATOM      9  C   LIG    1       -4.180  -7.258   3.975  0.00  0.00    +0.010 A 
ATOM     10  C   LIG    1       -5.304  -7.677   3.331  0.00  0.00    +0.001 A 
ATOM     11  C   LIG    1       -5.606  -7.222   2.049  0.00  0.00    +0.002 A 
ATOM     12  C   LIG    1       -4.788  -6.346   1.404  0.00  0.00    +0.028 A 
ATOM     13  C   LIG    1       -3.617  -5.889   2.036  0.00  0.00    +0.072 A 
ATOM     14  N   LIG    1       -2.798  -5.031   1.425  0.00  0.00    -0.245 NA
ATOM     15  C   LIG    1        1.371  -2.700   2.293  0.00  0.00    +0.258 A 
ATOM     16  O   LIG    1        2.218  -2.580   3.163  0.00  0.00    -0.267 OA
ATOM     17  C   LIG    1       -1.694  -4.595   2.009  0.00  0.00    +0.093 A 
ATOM     18  C   LIG    1        1.507  -1.998   1.084  0.00  0.00    +0.049 A 
ENDROOT
BRANCH   1  19
ATOM     19  C   LIG    1        0.679  -1.381  -1.183  0.00  0.00    +0.187 C 
BRANCH  19  21
ATOM     20  C   LIG    1        2.306  -0.914  -3.021  0.00  0.00    +0.007 C 
ATOM     21  C   LIG    1        2.160  -1.197  -1.525  0.00  0.00    +0.048 C 
ENDBRANCH  19  21
BRANCH  19  22
ATOM     22  O   LIG    1        0.039  -2.121  -2.224  0.00  0.00    -0.373 OA
ATOM     23  H   LIG    1        0.387  -3.015  -2.343  0.00  0.00    +0.211 HD
ENDBRANCH  19  22
BRANCH  19  24
ATOM     24  C   LIG    1        0.024  -0.030  -1.051  0.00  0.00    +0.341 C 
ATOM     25  O   LIG    1        0.397   0.893  -1.735  0.00  0.00    -0.247 OA
BRANCH  24  26
ATOM     26  O   LIG    1       -0.975   0.147  -0.172  0.00  0.00    -0.478 OA
ATOM     27  H   LIG    1       -1.265  -0.569   0.359  0.00  0.00    +0.295 HD
ENDBRANCH  24  26
ENDBRANCH  19  24
ENDBRANCH   1  19
BRANCH  18  28
ATOM     28  C   LIG    1        2.696  -1.099   0.858  0.00  0.00    +0.196 C 
BRANCH  28  29
ATOM     29  O   LIG    1        2.247   0.238   0.635  0.00  0.00    -0.390 OA
ATOM     30  H   LIG    1        2.959   0.891   0.595  0.00  0.00    +0.210 HD
ENDBRANCH  28  29
ENDBRANCH  18  28
TORSDOF 7
