REMARK  Name = ZINC13474371
REMARK                            x       y       z     vdW  Elec       q    Type
REMARK                         _______ _______ _______ _____ _____    ______ ____
ROOT
ATOM      1  N   LIG    1       -1.718  -1.030  -1.368  0.00  0.00    -0.221 N 
ATOM      2  C   LIG    1       -2.585  -0.150  -2.170  0.00  0.00    +0.224 C 
ATOM      3  C   LIG    1       -2.700  -0.895  -3.514  0.00  0.00    +0.230 C 
ATOM      4  N   LIG    1       -1.889  -2.106  -3.320  0.00  0.00    -0.279 N 
ATOM      5  H   LIG    1       -1.754  -2.796  -3.988  0.00  0.00    +0.258 HD
ATOM      6  C   LIG    1       -1.379  -2.113  -2.132  0.00  0.00    +0.329 C 
ENDROOT
BRANCH   6   7
ATOM      7  N   LIG    1       -0.568  -3.124  -1.675  0.00  0.00    -0.254 N 
ATOM      8  H   LIG    1       -0.354  -3.873  -2.252  0.00  0.00    +0.241 HD
ATOM      9  H   LIG    1       -0.210  -3.088  -0.774  0.00  0.00    +0.241 HD
ENDBRANCH   6   7
BRANCH   1  10
ATOM     10  C   LIG    1       -1.287  -0.784   0.010  0.00  0.00    +0.224 C 
BRANCH  10  17
ATOM     11  C   LIG    1       -0.017   1.383   0.010  0.00  0.00    +0.011 A 
ATOM     12  C   LIG    1        1.193   2.059   0.002  0.00  0.00    +0.040 A 
ATOM     13  C   LIG    1        2.371   1.333  -0.013  0.00  0.00    +0.129 A 
ATOM     14 CL   LIG    1        3.893   2.168  -0.024  0.00  0.00    -0.062 Cl
ATOM     15  N   LIG    1        2.350   0.014  -0.021  0.00  0.00    -0.243 NA
ATOM     16  C   LIG    1        1.217  -0.662  -0.014  0.00  0.00    +0.119 A 
ATOM     17  C   LIG    1        0.002  -0.004   0.002  0.00  0.00    +0.002 A 
ENDBRANCH  10  17
ENDBRANCH   1  10
TORSDOF 3
