REMARK  Name = ZINC13476776
REMARK                            x       y       z     vdW  Elec       q    Type
REMARK                         _______ _______ _______ _____ _____    ______ ____
ROOT
ATOM      1  C   LIG    1        0.707  -0.490  -1.238  0.00  0.00    -0.059 C 
ATOM      2  C   LIG    1        1.994  -0.784  -1.158  0.00  0.00    +0.093 C 
ATOM      3  C   LIG    1        2.726  -1.251  -2.356  0.00  0.00    +0.261 C 
ATOM      4  N   LIG    1        1.964  -1.500  -3.495  0.00  0.00    -0.237 N 
ATOM      5  H   LIG    1        2.164  -2.234  -4.097  0.00  0.00    +0.291 HD
ATOM      6  C   LIG    1        0.836  -0.581  -3.730  0.00  0.00    +0.227 C 
ATOM      7  N   LIG    1        4.019  -1.420  -2.346  0.00  0.00    -0.289 N 
ATOM      8  H   LIG    1        4.474  -1.726  -3.146  0.00  0.00    +0.301 HD
ATOM      9  H   LIG    1        4.526  -1.238  -1.539  0.00  0.00    +0.301 HD
ATOM     10  C   LIG    1       -0.084  -0.624  -2.506  0.00  0.00    +0.074 C 
ENDROOT
BRANCH   1  12
ATOM     11  C   LIG    1       -0.019   1.526   0.010  0.00  0.00    +0.008 C 
ATOM     12  C   LIG    1        0.002  -0.004   0.002  0.00  0.00    +0.028 C 
ENDBRANCH   1  12
TORSDOF 1
