REMARK  Name = ZINC13553652
REMARK                            x       y       z     vdW  Elec       q    Type
REMARK                         _______ _______ _______ _____ _____    ______ ____
ROOT
ATOM      1  C   LIG    1       -0.018   1.503   0.010  0.00  0.00    +0.046 C 
ATOM      2  C   LIG    1        0.002  -0.004   0.002  0.00  0.00    -0.027 A 
ATOM      3  C   LIG    1        0.006  -0.686  -1.198  0.00  0.00    +0.025 A 
ATOM      4  C   LIG    1        0.025  -2.071  -1.222  0.00  0.00    +0.042 A 
ATOM      5 CL   LIG    1        0.028  -2.912  -2.741  0.00  0.00    -0.084 Cl
ATOM      6  C   LIG    1        0.040  -2.784  -0.038  0.00  0.00    +0.032 A 
ATOM      7  C   LIG    1        0.037  -2.105   1.175  0.00  0.00    +0.030 A 
ATOM      8  C   LIG    1        0.050  -2.551   2.587  0.00  0.00    +0.153 C 
ATOM      9  N   LIG    1        0.069  -3.784   3.035  0.00  0.00    -0.175 NA
ATOM     10  C   LIG    1        0.051  -1.307   3.381  0.00  0.00    +0.269 C 
ATOM     11  O   LIG    1        0.060  -1.232   4.596  0.00  0.00    -0.268 OA
ATOM     12  N   LIG    1        0.029  -0.271   2.525  0.00  0.00    -0.279 N 
ATOM     13  H   LIG    1        0.018   0.660   2.795  0.00  0.00    +0.155 HD
ATOM     14  C   LIG    1        0.023  -0.704   1.203  0.00  0.00    +0.046 A 
ENDROOT
BRANCH   9  15
ATOM     15  N   LIG    1        0.080  -4.028   4.415  0.00  0.00    -0.218 N 
ATOM     16  H   LIG    1        0.073  -3.286   5.039  0.00  0.00    +0.176 HD
BRANCH  15  17
ATOM     17  C   LIG    1        0.099  -5.295   4.875  0.00  0.00    +0.147 C 
ATOM     18  S   LIG    1        0.112  -5.593   6.560  0.00  0.00    -0.017 S 
BRANCH  17  19
ATOM     19  N   LIG    1        0.109  -6.327   4.008  0.00  0.00    -0.339 N 
ATOM     20  H   LIG    1        0.123  -7.238   4.339  0.00  0.00    +0.144 HD
ATOM     21  H   LIG    1        0.102  -6.158   3.053  0.00  0.00    +0.144 HD
ENDBRANCH  17  19
ENDBRANCH  15  17
ENDBRANCH   9  15
TORSDOF 3
