REMARK  Name = ZINC13382497
REMARK                            x       y       z     vdW  Elec       q    Type
REMARK                         _______ _______ _______ _____ _____    ______ ____
ROOT
ATOM      1  C   LIG    1        6.273  -0.361  -0.050  0.00  0.00    +0.016 A 
ATOM      2  C   LIG    1        5.029   0.272  -0.086  0.00  0.00    +0.072 A 
ATOM      3  C   LIG    1        4.942   1.673  -0.102  0.00  0.00    +0.143 A 
ATOM      4  O   LIG    1        3.745   2.295  -0.138  0.00  0.00    -0.454 OA
ATOM      5  C   LIG    1        2.566   1.640  -0.154  0.00  0.00    +0.146 A 
ATOM      6  C   LIG    1        1.378   2.353  -0.182  0.00  0.00    +0.093 A 
ATOM      7  C   LIG    1        0.154   1.692  -0.198  0.00  0.00    +0.132 A 
ATOM      8  C   LIG    1        0.108   0.304  -0.190  0.00  0.00    +0.039 A 
ATOM      9  C   LIG    1       -1.203  -0.439  -0.218  0.00  0.00    +0.077 C 
ATOM     10  C   LIG    1       -2.338   0.502   0.192  0.00  0.00    +0.162 C 
ATOM     11  C   LIG    1       -2.195   1.804  -0.606  0.00  0.00    +0.131 C 
ATOM     12  C   LIG    1       -3.379   2.726  -0.306  0.00  0.00    +0.058 C 
ATOM     13  C   LIG    1       -2.154   1.490  -2.103  0.00  0.00    +0.058 C 
ATOM     14  C   LIG    1        1.285  -0.427  -0.161  0.00  0.00    +0.138 A 
ATOM     15  O   LIG    1       -0.978   2.441  -0.215  0.00  0.00    -0.483 OA
ATOM     16  C   LIG    1        2.518   0.236  -0.141  0.00  0.00    +0.106 A 
ATOM     17  C   LIG    1        6.111   2.424  -0.080  0.00  0.00    +0.096 A 
ATOM     18  C   LIG    1        7.342   1.793  -0.044  0.00  0.00    +0.162 A 
ATOM     19  C   LIG    1        3.782  -0.518  -0.107  0.00  0.00    +0.204 A 
ATOM     20  O   LIG    1        3.798  -1.736  -0.097  0.00  0.00    -0.286 OA
ATOM     21  C   LIG    1        7.425   0.398  -0.029  0.00  0.00    +0.166 A 
ENDROOT
BRANCH  10  22
ATOM     22  O   LIG    1       -3.598  -0.107  -0.100  0.00  0.00    -0.388 OA
ATOM     23  H   LIG    1       -3.746  -0.945   0.359  0.00  0.00    +0.210 HD
ENDBRANCH  10  22
BRANCH  14  24
ATOM     24  O   LIG    1        1.242  -1.783  -0.151  0.00  0.00    -0.506 OA
ATOM     25  H   LIG    1        1.247  -2.183  -1.031  0.00  0.00    +0.292 HD
ENDBRANCH  14  24
BRANCH  18  26
ATOM     26  O   LIG    1        8.479   2.535  -0.022  0.00  0.00    -0.503 OA
ATOM     27  H   LIG    1        8.830   2.743  -0.898  0.00  0.00    +0.292 HD
ENDBRANCH  18  26
BRANCH  21  28
ATOM     28  O   LIG    1        8.641  -0.211   0.005  0.00  0.00    -0.491 OA
ATOM     29  C   LIG    1        9.251  -0.512  -1.252  0.00  0.00    +0.277 C 
ENDBRANCH  21  28
BRANCH   1  30
ATOM     30  C   LIG    1        6.358  -1.865  -0.034  0.00  0.00    +0.067 C 
BRANCH  30  34
ATOM     31  C   LIG    1        8.266  -3.719  -0.972  0.00  0.00    +0.038 C 
ATOM     32  C   LIG    1        7.196  -3.202  -1.898  0.00  0.00    -0.079 C 
ATOM     33  C   LIG    1        7.185  -3.621  -3.346  0.00  0.00    +0.038 C 
ATOM     34  C   LIG    1        6.274  -2.388  -1.445  0.00  0.00    -0.023 C 
ENDBRANCH  30  34
ENDBRANCH   1  30
TORSDOF 6
