REMARK  Name = ZINC13298313
REMARK                            x       y       z     vdW  Elec       q    Type
REMARK                         _______ _______ _______ _____ _____    ______ ____
ROOT
ATOM      1  C   LIG    1       -0.013   1.076   0.008  0.00  0.00    +0.149 A 
ATOM      2  N   LIG    1       -1.079   1.823   0.017  0.00  0.00    -0.180 NA
ATOM      3  N   LIG    1       -0.711   3.174   0.025  0.00  0.00    -0.260 N 
ATOM      4  H   LIG    1       -1.319   3.929   0.035  0.00  0.00    +0.191 HD
ATOM      5  C   LIG    1        0.651   3.245   0.013  0.00  0.00    +0.162 A 
ATOM      6  N   LIG    1        1.535   4.240   0.009  0.00  0.00    -0.216 NA
ATOM      7  C   LIG    1        2.826   3.989  -0.005  0.00  0.00    +0.227 A 
ATOM      8  N   LIG    1        3.313   2.760  -0.016  0.00  0.00    -0.201 NA
ATOM      9  C   LIG    1        2.511   1.703  -0.013  0.00  0.00    +0.226 A 
ATOM     10  C   LIG    1        1.122   1.917   0.002  0.00  0.00    +0.100 A 
ENDROOT
BRANCH   9  11
ATOM     11  O   LIG    1        3.020   0.449  -0.023  0.00  0.00    -0.492 OA
ATOM     12  H   LIG    1        2.444  -0.290  -0.021  0.00  0.00    +0.294 HD
ENDBRANCH   9  11
TORSDOF 1
