REMARK  Name = ZINC13488066
REMARK                            x       y       z     vdW  Elec       q    Type
REMARK                         _______ _______ _______ _____ _____    ______ ____
ROOT
ATOM      1  C   LIG    1       -0.063   1.327   0.018  0.00  0.00    +0.000 A 
ATOM      2  C   LIG    1        1.117   2.048   0.032  0.00  0.00    +0.000 A 
ATOM      3  C   LIG    1        2.325   1.382   0.015  0.00  0.00    +0.005 A 
ATOM      4  C   LIG    1        2.365  -0.006  -0.013  0.00  0.00    -0.030 A 
ATOM      5  C   LIG    1        1.191  -0.725  -0.018  0.00  0.00    -0.042 A 
ATOM      6  C   LIG    1        1.155  -2.230  -0.017  0.00  0.00    +0.051 C 
ATOM      7  C   LIG    1        2.482  -2.807  -0.506  0.00  0.00    +0.091 C 
ATOM      8  N   LIG    1        3.568  -2.109   0.202  0.00  0.00    -0.283 NA
ATOM      9  C   LIG    1        3.718  -0.671  -0.045  0.00  0.00    +0.121 C 
ATOM     10  C   LIG    1       -0.025  -0.051  -0.009  0.00  0.00    +0.004 A 
ENDROOT
BRANCH   8  11
ATOM     11  C   LIG    1        4.417  -2.785   1.071  0.00  0.00    +0.126 C 
ATOM     12  C   LIG    1        4.168  -4.118   1.376  0.00  0.00    +0.035 C 
ATOM     13  C   LIG    1        5.019  -4.785   2.242  0.00  0.00    +0.006 C 
ATOM     14  C   LIG    1        6.095  -4.095   2.776  0.00  0.00    +0.034 C 
ATOM     15  C   LIG    1        6.287  -2.763   2.430  0.00  0.00    +0.120 C 
ATOM     16  N   LIG    1        5.457  -2.155   1.594  0.00  0.00    -0.286 NA
ATOM     17  H   LIG    1        5.613  -1.226   1.364  0.00  0.00    +0.125 HD
BRANCH  15  18
ATOM     18  N   LIG    1        7.364  -2.062   2.961  0.00  0.00    -0.315 NA
ATOM     19  H   LIG    1        7.503  -1.132   2.722  0.00  0.00    +0.120 HD
ATOM     20  H   LIG    1        7.976  -2.503   3.570  0.00  0.00    +0.120 HD
ENDBRANCH  15  18
ENDBRANCH   8  11
TORSDOF 2
