REMARK  Name = ZINC13532602
REMARK                            x       y       z     vdW  Elec       q    Type
REMARK                         _______ _______ _______ _____ _____    ______ ____
ROOT
ATOM      1  C   LIG    1       -1.268  -0.794   0.210  0.00  0.00    +0.179 A 
ATOM      2  N   LIG    1       -2.461  -0.268   0.248  0.00  0.00    -0.152 NA
ATOM      3  N   LIG    1       -3.389  -1.279  -0.036  0.00  0.00    -0.253 N 
ATOM      4  C   LIG    1       -2.698  -2.419  -0.243  0.00  0.00    +0.193 A 
ATOM      5  S   LIG    1       -3.364  -3.949  -0.625  0.00  0.00    -0.010 S 
ATOM      6  H   LIG    1       -4.353  -1.177  -0.077  0.00  0.00    +0.191 HD
ATOM      7  N   LIG    1       -1.389  -2.134  -0.099  0.00  0.00    -0.225 N 
ENDROOT
BRANCH   1  13
ATOM      8  C   LIG    1       -0.004   1.310   0.636  0.00  0.00    +0.015 A 
ATOM      9  C   LIG    1        1.181   1.977   0.862  0.00  0.00    +0.046 A 
ATOM     10  C   LIG    1        2.378   1.275   0.907  0.00  0.00    +0.117 A 
ATOM     11  C   LIG    1        2.387  -0.102   0.724  0.00  0.00    +0.046 A 
ATOM     12  C   LIG    1        1.206  -0.776   0.497  0.00  0.00    +0.015 A 
ATOM     13  C   LIG    1        0.001  -0.074   0.452  0.00  0.00    +0.021 A 
BRANCH  10  14
ATOM     14  O   LIG    1        3.544   1.936   1.129  0.00  0.00    -0.507 OA
ATOM     15  H   LIG    1        3.781   2.012   2.064  0.00  0.00    +0.292 HD
ENDBRANCH  10  14
ENDBRANCH   1  13
BRANCH   7  16
ATOM     16  N   LIG    1       -0.358  -3.020  -0.234  0.00  0.00    -0.295 N 
ATOM     17  H   LIG    1        0.261  -2.745  -0.982  0.00  0.00    +0.163 HD
ATOM     18  H   LIG    1       -0.703  -3.957  -0.376  0.00  0.00    +0.163 HD
ENDBRANCH   7  16
TORSDOF 3
