REMARK  Name = ZINC13541343
REMARK                            x       y       z     vdW  Elec       q    Type
REMARK                         _______ _______ _______ _____ _____    ______ ____
ROOT
ATOM      1  C   LIG    1        2.443   3.214  -0.004  0.00  0.00    +0.028 C 
ATOM      2  C   LIG    1        1.809   2.061  -0.334  0.00  0.00    +0.080 C 
ATOM      3  C   LIG    1        2.349   0.693  -0.463  0.00  0.00    +0.261 C 
ATOM      4  N   LIG    1        1.491  -0.254  -0.803  0.00  0.00    -0.224 N 
ATOM      5  C   LIG    1        0.189   0.020  -1.020  0.00  0.00    +0.286 C 
ATOM      6  O   LIG    1       -0.702  -0.745  -1.336  0.00  0.00    -0.262 OA
ATOM      7  O   LIG    1        3.526   0.449  -0.266  0.00  0.00    -0.269 OA
ATOM      8  S   LIG    1        0.089   1.780  -0.733  0.00  0.00    -0.026 S 
ENDROOT
BRANCH   1  11
ATOM      9  C   LIG    1       -0.193   5.764  -0.785  0.00  0.00    +0.162 A 
ATOM     10  C   LIG    1        0.471   4.556  -0.703  0.00  0.00    +0.057 A 
ATOM     11  C   LIG    1        1.734   4.496  -0.100  0.00  0.00    -0.020 A 
ATOM     12  C   LIG    1        2.319   5.663   0.406  0.00  0.00    +0.012 A 
ATOM     13  C   LIG    1        1.651   6.864   0.315  0.00  0.00    +0.050 A 
ATOM     14  C   LIG    1        0.397   6.921  -0.279  0.00  0.00    +0.158 A 
BRANCH   9  16
ATOM     15  C   LIG    1       -1.966   4.602  -1.864  0.00  0.00    +0.277 C 
ATOM     16  O   LIG    1       -1.421   5.826  -1.366  0.00  0.00    -0.491 OA
ENDBRANCH   9  16
BRANCH  14  17
ATOM     17  O   LIG    1       -0.257   8.109  -0.366  0.00  0.00    -0.503 OA
ATOM     18  H   LIG    1       -0.069   8.603  -1.175  0.00  0.00    +0.292 HD
ENDBRANCH  14  17
ENDBRANCH   1  11
BRANCH   4  19
ATOM     19  C   LIG    1        1.966  -1.633  -0.948  0.00  0.00    +0.152 C 
BRANCH  19  20
ATOM     20  C   LIG    1        2.408  -1.865  -2.369  0.00  0.00    -0.030 A 
ATOM     21  C   LIG    1        1.501  -2.329  -3.305  0.00  0.00    +0.006 A 
ATOM     22  C   LIG    1        1.898  -2.539  -4.610  0.00  0.00    +0.015 A 
ATOM     23  C   LIG    1        3.221  -2.293  -4.982  0.00  0.00    +0.059 A 
ATOM     24  C   LIG    1        4.133  -1.830  -4.031  0.00  0.00    +0.015 A 
ATOM     25  C   LIG    1        3.721  -1.619  -2.731  0.00  0.00    +0.006 A 
BRANCH  23  26
ATOM     26  C   LIG    1        3.655  -2.521  -6.375  0.00  0.00    +0.337 C 
ATOM     27  O   LIG    1        4.807  -2.306  -6.696  0.00  0.00    -0.245 OA
BRANCH  26  28
ATOM     28  O   LIG    1        2.773  -2.967  -7.291  0.00  0.00    -0.477 OA
ATOM     29  H   LIG    1        1.885  -3.133  -7.043  0.00  0.00    +0.295 HD
ENDBRANCH  26  28
ENDBRANCH  23  26
ENDBRANCH  19  20
ENDBRANCH   4  19
TORSDOF 7
