REMARK  Name = ZINC13470184
REMARK                            x       y       z     vdW  Elec       q    Type
REMARK                         _______ _______ _______ _____ _____    ______ ____
ROOT
ATOM      1  C   LIG    1       -1.186  -1.987   0.002  0.00  0.00    +0.248 A 
ATOM      2  C   LIG    1        0.028  -2.691  -0.013  0.00  0.00    +0.169 A 
ATOM      3  C   LIG    1        1.225  -1.955  -0.020  0.00  0.00    +0.166 A 
ATOM      4  N   LIG    1        1.169  -0.627  -0.013  0.00  0.00    -0.195 NA
ATOM      5  C   LIG    1        0.002  -0.004   0.002  0.00  0.00    +0.218 A 
ATOM      6  N   LIG    1        2.238  -2.880  -0.035  0.00  0.00    -0.329 N 
ATOM      7  C   LIG    1        1.663  -4.117  -0.036  0.00  0.00    +0.199 A 
ATOM      8  H   LIG    1        3.219  -2.684  -0.043  0.00  0.00    +0.168 HD
ATOM      9  N   LIG    1        0.367  -4.004  -0.023  0.00  0.00    -0.229 NA
ATOM     10  N   LIG    1       -1.151  -0.661   0.015  0.00  0.00    -0.178 NA
ENDROOT
BRANCH   5  11
ATOM     11  N   LIG    1       -0.017   1.381   0.010  0.00  0.00    -0.327 N 
ATOM     12  H   LIG    1       -0.863   1.855   0.016  0.00  0.00    +0.145 HD
ATOM     13  H   LIG    1        0.817   1.877   0.004  0.00  0.00    +0.145 HD
ENDBRANCH   5  11
BRANCH   1  14
ATOM     14  O   LIG    1       -2.369  -2.648   0.011  0.00  0.00    -0.470 OA
BRANCH  14  15
ATOM     15  C   LIG    1       -3.556  -1.853   0.026  0.00  0.00    +0.273 C 
BRANCH  15  21
ATOM     16  C   LIG    1       -5.434  -3.274   1.090  0.00  0.00    +0.029 A 
ATOM     17  C   LIG    1       -6.532  -4.082   0.856  0.00  0.00    +0.025 A 
ATOM     18 BR   LIG    1       -7.503  -4.823   2.299  0.00  0.00    -0.050 Br
ATOM     19  C   LIG    1       -6.897  -4.340  -0.424  0.00  0.00    +0.060 A 
ATOM     20  S   LIG    1       -5.678  -3.420  -1.349  0.00  0.00    -0.097 S 
ATOM     21  C   LIG    1       -4.764  -2.754   0.033  0.00  0.00    +0.028 A 
ENDBRANCH  15  21
ENDBRANCH  14  15
ENDBRANCH   1  14
TORSDOF 4
