REMARK  Name = ZINC13473198
REMARK                            x       y       z     vdW  Elec       q    Type
REMARK                         _______ _______ _______ _____ _____    ______ ____
ROOT
ATOM      1  C   LIG    1        0.000   1.080   2.488  0.00  0.00    -0.005 A 
ATOM      2  C   LIG    1        1.088   1.762   3.192  0.00  0.00    +0.038 A 
ATOM      3  C   LIG    1        1.448   0.921   4.261  0.00  0.00    +0.052 A 
ATOM      4  N   LIG    1        0.630  -0.188   4.198  0.00  0.00    -0.338 N 
ATOM      5  C   LIG    1        0.670  -1.318   5.130  0.00  0.00    +0.150 C 
ATOM      6  C   LIG    1        2.469   1.306   5.122  0.00  0.00    +0.030 A 
ATOM      7  C   LIG    1        3.121   2.504   4.926  0.00  0.00    +0.050 A 
ATOM      8  C   LIG    1        2.767   3.339   3.869  0.00  0.00    +0.151 A 
ATOM      9  C   LIG    1        1.755   2.974   3.003  0.00  0.00    +0.172 A 
ATOM     10  C   LIG    1       -0.229  -0.072   3.139  0.00  0.00    +0.085 A 
ATOM     11  I   LIG    1       -1.682  -1.485   2.610  0.00  0.00    -0.024 I 
ENDROOT
BRANCH   8  12
ATOM     12  O   LIG    1        3.420   4.518   3.689  0.00  0.00    -0.493 OA
ATOM     13  C   LIG    1        4.457   4.834   4.622  0.00  0.00    +0.277 C 
ENDBRANCH   8  12
BRANCH   9  14
ATOM     14  N   LIG    1        1.381   3.863   1.880  0.00  0.00    +0.010 N 
ATOM     15  O   LIG    1        0.522   4.713   2.035  0.00  0.00    -0.130 OA
BRANCH  14  16
ATOM     16  O   LIG    1        1.931   3.744   0.800  0.00  0.00    -0.396 OA
ATOM     17  H   LIG    1        2.592   3.090   0.680  0.00  0.00    +0.329 HD
ENDBRANCH  14  16
ENDBRANCH   9  14
BRANCH   1  18
ATOM     18  C   LIG    1       -0.729   1.579   1.267  0.00  0.00    +0.057 C 
BRANCH  18  19
ATOM     19  C   LIG    1       -0.013   1.086   0.008  0.00  0.00    +0.109 C 
BRANCH  19  22
ATOM     20  C   LIG    1       -0.997   1.758  -3.630  0.00  0.00    +0.109 C 
ATOM     21  C   LIG    1       -0.268   1.258  -2.409  0.00  0.00    +0.210 C 
ATOM     22  N   LIG    1       -0.721   1.571  -1.179  0.00  0.00    -0.315 N 
ATOM     23  H   LIG    1       -1.516   2.118  -1.079  0.00  0.00    +0.149 HD
ATOM     24  O   LIG    1        0.726   0.575  -2.534  0.00  0.00    -0.276 OA
ENDBRANCH  19  22
ENDBRANCH  18  19
ENDBRANCH   1  18
TORSDOF 6
