REMARK  Name = ZINC13472060
REMARK                            x       y       z     vdW  Elec       q    Type
REMARK                         _______ _______ _______ _____ _____    ______ ____
ROOT
ATOM      1  N   LIG    1        0.380   3.039   4.122  0.00  0.00    +0.383 N 
ATOM      2  H   LIG    1        0.455   4.061   4.184  0.00  0.00    -0.081 HD
ATOM      3  C   LIG    1       -1.022   2.678   3.822  0.00  0.00    -0.075 C 
ATOM      4  C   LIG    1       -1.456   3.395   2.541  0.00  0.00    +0.021 C 
ATOM      5  C   LIG    1       -0.553   2.957   1.385  0.00  0.00    +0.091 C 
ATOM      6  C   LIG    1       -0.936   3.707   0.136  0.00  0.00    -0.013 A 
ATOM      7  C   LIG    1       -1.196   5.066   0.229  0.00  0.00    +0.007 A 
ATOM      8  C   LIG    1       -1.538   5.788  -0.898  0.00  0.00    +0.000 A 
ATOM      9  C   LIG    1       -1.623   5.153  -2.123  0.00  0.00    +0.000 A 
ATOM     10  C   LIG    1       -1.368   3.799  -2.216  0.00  0.00    +0.004 A 
ATOM     11  C   LIG    1       -1.026   3.074  -1.085  0.00  0.00    -0.039 A 
ATOM     12  C   LIG    1       -0.760   1.597  -1.225  0.00  0.00    +0.063 C 
ATOM     13  C   LIG    1       -0.013   1.086   0.008  0.00  0.00    +0.165 C 
ATOM     14  O   LIG    1       -0.691   1.551   1.180  0.00  0.00    -0.369 OA
ATOM     15  C   LIG    1        0.903   3.273   1.741  0.00  0.00    +0.021 C 
ATOM     16  C   LIG    1        1.270   2.558   3.044  0.00  0.00    -0.075 C 
ENDROOT
BRANCH   1  17
ATOM     17  C   LIG    1        0.787   2.449   5.413  0.00  0.00    -0.043 C 
BRANCH  17  21
ATOM     18  C   LIG    1       -2.235   3.237   8.328  0.00  0.00    +0.000 A 
ATOM     19  C   LIG    1       -2.282   2.076   7.579  0.00  0.00    +0.000 A 
ATOM     20  C   LIG    1       -1.305   1.821   6.636  0.00  0.00    +0.002 A 
ATOM     21  C   LIG    1       -0.279   2.727   6.441  0.00  0.00    -0.064 A 
ATOM     22  C   LIG    1       -0.228   3.885   7.194  0.00  0.00    +0.002 A 
ATOM     23  C   LIG    1       -1.208   4.142   8.134  0.00  0.00    +0.000 A 
ENDBRANCH  17  21
ENDBRANCH   1  17
TORSDOF 2
