REMARK  Name = ZINC13298454
REMARK                            x       y       z     vdW  Elec       q    Type
REMARK                         _______ _______ _______ _____ _____    ______ ____
ROOT
ATOM      1  CA  ALA A  1       -2.328  -3.952  -1.904  0.00  0.00    +0.138 C 
ATOM      2  CB  ALA A  1       -3.636  -4.072  -2.687  0.00  0.00    +0.034 C 
ENDROOT
BRANCH   1   3
ATOM      3  C   ALA A  1       -1.625  -5.285  -1.893  0.00  0.00    +0.233 C 
ATOM      4  N   UNK A  2       -1.315  -5.894  -3.055  0.00  0.00    -0.283 N 
ATOM      5  C   UNK A  2       -1.486  -5.328  -4.396  0.00  0.00    +0.080 C 
ATOM      6  C   UNK A  2       -1.338  -3.824  -4.425  0.00  0.00    +0.023 C 
ATOM      7  C   UNK A  2        0.092  -3.400  -4.091  0.00  0.00    +0.002 C 
ATOM      8  C   UNK A  2        1.037  -4.034  -5.118  0.00  0.00    +0.000 C 
ATOM      9  C   UNK A  2        0.959  -5.553  -4.982  0.00  0.00    +0.005 C 
ATOM     10  C   UNK A  2       -0.446  -6.038  -5.282  0.00  0.00    +0.012 C 
ATOM     11  C   UNK A  2       -0.529  -7.488  -4.711  0.00  0.00    +0.039 C 
ATOM     12  C   UNK A  2       -0.740  -7.243  -3.200  0.00  0.00    +0.185 C 
ATOM     13  O   ALA A  1       -1.338  -5.811  -0.838  0.00  0.00    -0.274 OA
BRANCH  12  14
ATOM     14  C   UNK A  2        0.580  -7.319  -2.477  0.00  0.00    +0.325 C 
ATOM     15  O   UNK A  2        1.185  -8.375  -2.422  0.00  0.00    -0.249 OA
BRANCH  14  16
ATOM     16  O   UNK A  2        1.042  -6.323  -1.946  0.00  0.00    -0.479 OA
ATOM     17  H   UNK A  2        0.576  -5.511  -1.988  0.00  0.00    +0.295 HD
ENDBRANCH  14  16
ENDBRANCH  12  14
ENDBRANCH   1   3
BRANCH   1  18
ATOM     18  N   ALA A  1       -2.619  -3.540  -0.524  0.00  0.00    -0.294 NA
ATOM     19  H   ALA A  1       -1.919  -3.890   0.113  0.00  0.00    +0.123 HD
BRANCH  18  20
ATOM     20  C   UNK A  0       -2.739  -2.079  -0.425  0.00  0.00    +0.164 C 
BRANCH  20  21
ATOM     21  C   UNK A  0       -1.370  -1.474  -0.248  0.00  0.00    +0.324 C 
ATOM     22  O   UNK A  0       -0.395  -2.186  -0.209  0.00  0.00    -0.249 OA
BRANCH  21  23
ATOM     23  O   UNK A  0       -1.234  -0.144  -0.135  0.00  0.00    -0.464 OA
BRANCH  23  25
ATOM     24  C   UNK A  0        0.047   1.887   0.142  0.00  0.00    +0.048 C 
ATOM     25  C   UNK A  0        0.092   0.361   0.030  0.00  0.00    +0.229 C 
ENDBRANCH  23  25
ENDBRANCH  21  23
ENDBRANCH  20  21
BRANCH  20  26
ATOM     26  C   UNK A  0       -3.614  -1.720   0.777  0.00  0.00    +0.035 C 
BRANCH  26  27
ATOM     27  C   UNK A  0       -5.038  -2.228   0.541  0.00  0.00    +0.037 C 
BRANCH  27  28
ATOM     28  C   UNK A  0       -5.901  -1.874   1.725  0.00  0.00    -0.047 A 
ATOM     29  C   UNK A  0       -6.007  -2.750   2.789  0.00  0.00    +0.003 A 
ATOM     30  C   UNK A  0       -6.798  -2.425   3.875  0.00  0.00    +0.000 A 
ATOM     31  C   UNK A  0       -7.482  -1.224   3.897  0.00  0.00    +0.000 A 
ATOM     32  C   UNK A  0       -7.376  -0.348   2.833  0.00  0.00    +0.000 A 
ATOM     33  C   UNK A  0       -6.581  -0.671   1.749  0.00  0.00    +0.003 A 
ENDBRANCH  27  28
ENDBRANCH  26  27
ENDBRANCH  20  26
ENDBRANCH  18  20
ENDBRANCH   1  18
TORSDOF 11
