REMARK  Name = ZINC13538226
REMARK                            x       y       z     vdW  Elec       q    Type
REMARK                         _______ _______ _______ _____ _____    ______ ____
ROOT
ATOM      1  N   LIG    1       -0.020   1.094   2.454  0.00  0.00    -0.312 N 
ATOM      2  C   LIG    1        1.275   1.359   2.784  0.00  0.00    +0.201 A 
ATOM      3  N   LIG    1        1.578   0.769   3.904  0.00  0.00    -0.231 NA
ATOM      4  C   LIG    1        0.500   0.089   4.362  0.00  0.00    +0.147 A 
ATOM      5  C   LIG    1        0.240  -0.710   5.488  0.00  0.00    +0.150 A 
ATOM      6  N   LIG    1       -0.972  -1.237   5.624  0.00  0.00    -0.219 NA
ATOM      7  C   LIG    1       -1.917  -1.020   4.728  0.00  0.00    +0.225 A 
ATOM      8  N   LIG    1       -1.720  -0.279   3.658  0.00  0.00    -0.216 NA
ATOM      9  C   LIG    1       -0.541   0.294   3.439  0.00  0.00    +0.166 A 
ENDROOT
BRANCH   1  11
ATOM     10  C   LIG    1       -0.013   1.086   0.008  0.00  0.00    +0.030 C 
ATOM     11  C   LIG    1       -0.729   1.579   1.267  0.00  0.00    +0.084 C 
ATOM     12  C   LIG    1       -0.750   3.109   1.275  0.00  0.00    +0.030 C 
ENDBRANCH   1  11
BRANCH   5  13
ATOM     13  N   LIG    1        1.224  -0.943   6.432  0.00  0.00    -0.323 N 
ATOM     14  H   LIG    1        2.003  -1.396   5.998  0.00  0.00    +0.148 HD
BRANCH  13  15
ATOM     15  C   LIG    1        0.935  -1.779   7.600  0.00  0.00    +0.138 C 
BRANCH  15  16
ATOM     16  C   LIG    1        2.164  -1.875   8.467  0.00  0.00    -0.030 A 
ATOM     17  C   LIG    1        3.078  -2.891   8.261  0.00  0.00    +0.005 A 
ATOM     18  C   LIG    1        4.208  -2.975   9.052  0.00  0.00    +0.000 A 
ATOM     19  C   LIG    1        4.419  -2.049  10.056  0.00  0.00    +0.000 A 
ATOM     20  C   LIG    1        3.503  -1.036  10.266  0.00  0.00    +0.000 A 
ATOM     21  C   LIG    1        2.375  -0.948   9.471  0.00  0.00    +0.005 A 
ENDBRANCH  15  16
ENDBRANCH  13  15
ENDBRANCH   5  13
TORSDOF 4
