REMARK  Name = ZINC13526637
REMARK                            x       y       z     vdW  Elec       q    Type
REMARK                         _______ _______ _______ _____ _____    ______ ____
ROOT
ATOM      1  C   LIG    1        0.051  -2.682   2.494  0.00  0.00    +0.118 A 
ATOM      2  C   LIG    1        0.529  -2.148   3.717  0.00  0.00    +0.029 A 
ATOM      3  C   LIG    1        0.365  -3.105   4.673  0.00  0.00    +0.114 A 
ATOM      4  N   LIG    1       -0.187  -4.187   4.085  0.00  0.00    -0.284 N 
ATOM      5  H   LIG    1       -0.415  -5.019   4.528  0.00  0.00    +0.188 HD
ATOM      6  N   LIG    1       -0.380  -3.902   2.728  0.00  0.00    -0.172 NA
ENDROOT
BRANCH   1  12
ATOM      7  C   LIG    1       -0.018   1.503   0.010  0.00  0.00    +0.065 C 
ATOM      8  C   LIG    1        0.002  -0.004   0.002  0.00  0.00    +0.039 A 
ATOM      9  C   LIG    1        0.006  -0.679  -1.205  0.00  0.00    +0.023 A 
ATOM     10  C   LIG    1        0.025  -2.067  -1.208  0.00  0.00    +0.004 A 
ATOM     11  C   LIG    1        0.040  -2.731   0.006  0.00  0.00    +0.030 A 
ATOM     12  C   LIG    1        0.035  -1.986   1.185  0.00  0.00    +0.092 A 
ATOM     13  N   LIG    1        0.022  -0.660   1.145  0.00  0.00    -0.250 NA
ENDBRANCH   1  12
BRANCH   2  14
ATOM     14  C   LIG    1        1.103  -0.795   3.920  0.00  0.00    -0.014 A 
ATOM     15  C   LIG    1        2.108  -0.329   3.075  0.00  0.00    +0.011 A 
ATOM     16  C   LIG    1        2.638   0.931   3.266  0.00  0.00    +0.039 A 
ATOM     17  C   LIG    1        2.173   1.731   4.297  0.00  0.00    +0.123 A 
ATOM     18  F   LIG    1        2.696   2.963   4.481  0.00  0.00    -0.205 F 
ATOM     19  C   LIG    1        1.174   1.271   5.140  0.00  0.00    +0.039 A 
ATOM     20  C   LIG    1        0.634   0.015   4.952  0.00  0.00    +0.011 A 
ENDBRANCH   2  14
TORSDOF 2
