REMARK  Name = ZINC13491413
REMARK                            x       y       z     vdW  Elec       q    Type
REMARK                         _______ _______ _______ _____ _____    ______ ____
ROOT
ATOM      1  C   LIG    1       -0.020   1.517   2.510  0.00  0.00    +0.004 C 
ATOM      2  C   LIG    1       -0.742   2.027   1.261  0.00  0.00    +0.002 C 
ATOM      3  C   LIG    1       -0.019   1.527   0.010  0.00  0.00    -0.025 C 
ATOM      4  C   LIG    1        1.418   2.052  -0.001  0.00  0.00    -0.078 C 
ATOM      5  N   LIG    1        2.108   1.564  -1.202  0.00  0.00    +0.388 N 
ATOM      6  H1  LIG    1        3.133   1.963  -1.223  0.00  0.00    -0.085 HD
ATOM      7  H2  LIG    1        1.565   1.898  -2.098  0.00  0.00    -0.085 HD
ATOM      8  CA  LIG    1        2.177   0.097  -1.218  0.00  0.00    +0.039 C 
ATOM      9  C   LIG    1        0.761  -0.483  -1.240  0.00  0.00    -0.001 C 
ATOM     10  C   LIG    1        0.002  -0.004   0.002  0.00  0.00    -0.010 C 
ATOM     11  C   LIG    1        0.720  -0.511   1.255  0.00  0.00    +0.007 C 
ATOM     12  C   LIG    1       -0.012  -0.013   2.502  0.00  0.00    -0.010 C 
ENDROOT
BRANCH   8  13
ATOM     13  C   LIG    1        2.925  -0.357  -2.445  0.00  0.00    +0.291 C 
ATOM     14  O   LIG    1        3.039   0.385  -3.392  0.00  0.00    -0.253 OA
BRANCH  13  15
ATOM     15  OXT LIG    1        3.465  -1.585  -2.486  0.00  0.00    -0.482 OA
ATOM     16  HXT LIG    1        3.377  -2.160  -1.751  0.00  0.00    +0.295 HD
ENDBRANCH  13  15
ENDBRANCH   8  13
BRANCH  12  17
ATOM     17  C   LIG    1        0.705  -0.525   3.753  0.00  0.00    +0.011 C 
BRANCH  17  18
ATOM     18  C   LIG    1       -0.096  -0.133   4.996  0.00  0.00    +0.080 C 
BRANCH  18  19
ATOM     19  C   LIG    1        0.611  -0.637   6.228  0.00  0.00    +0.174 A 
ATOM     20  N   LIG    1        0.971  -1.873   6.473  0.00  0.00    -0.113 NA
ATOM     21  N   LIG    1        1.552  -1.899   7.622  0.00  0.00    -0.049 NA
ATOM     22  N   LIG    1        1.560  -0.713   8.124  0.00  0.00    -0.176 N 
ATOM     23  H   LIG    1        1.949  -0.334   9.080  0.00  0.00    +0.214 HD
ATOM     24  N   LIG    1        0.993   0.094   7.292  0.00  0.00    -0.138 NA
ENDBRANCH  18  19
ENDBRANCH  17  18
ENDBRANCH  12  17
TORSDOF 5
