REMARK  Name = ZINC13473570
REMARK                            x       y       z     vdW  Elec       q    Type
REMARK                         _______ _______ _______ _____ _____    ______ ____
ROOT
ATOM      1  C   LIG    1       -1.133  -0.695  -0.618  0.00  0.00    +0.332 C 
ATOM      2  N   LIG    1       -2.109  -0.092  -1.250  0.00  0.00    -0.177 N 
ATOM      3  H   LIG    1       -2.931  -0.570  -1.442  0.00  0.00    +0.336 HD
ENDROOT
BRANCH   1   5
ATOM      4  C   LIG    1        1.232  -0.675   0.284  0.00  0.00    +0.100 C 
ATOM      5  C   LIG    1       -0.007   0.044  -0.183  0.00  0.00    +0.241 C 
ATOM      6  O   LIG    1       -0.040   1.258  -0.188  0.00  0.00    -0.285 OA
ENDBRANCH   1   5
BRANCH   2   7
ATOM      7  N   LIG    1       -1.966   1.244  -1.648  0.00  0.00    -0.189 N 
ATOM      8  H   LIG    1       -1.108   1.687  -1.558  0.00  0.00    +0.196 HD
BRANCH   7   9
ATOM      9  C   LIG    1       -3.057   1.936  -2.173  0.00  0.00    +0.066 A 
ATOM     10  C   LIG    1       -4.289   1.304  -2.296  0.00  0.00    +0.027 A 
ATOM     11  C   LIG    1       -5.367   1.992  -2.817  0.00  0.00    +0.017 A 
ATOM     12  C   LIG    1       -5.222   3.310  -3.215  0.00  0.00    +0.018 A 
ATOM     13 BR   LIG    1       -6.701   4.248  -3.927  0.00  0.00    -0.050 Br
ATOM     14  C   LIG    1       -3.997   3.942  -3.093  0.00  0.00    +0.017 A 
ATOM     15  C   LIG    1       -2.917   3.262  -2.568  0.00  0.00    +0.027 A 
ENDBRANCH   7   9
ENDBRANCH   2   7
BRANCH   1  16
ATOM     16  N   LIG    1       -1.204  -2.072  -0.372  0.00  0.00    -0.199 N 
ATOM     17  H   LIG    1       -0.522  -2.504   0.165  0.00  0.00    +0.298 HD
BRANCH  16  18
ATOM     18  C   LIG    1       -2.256  -2.823  -0.902  0.00  0.00    +0.120 A 
ATOM     19  C   LIG    1       -2.736  -2.547  -2.176  0.00  0.00    +0.049 A 
ATOM     20  C   LIG    1       -3.776  -3.291  -2.697  0.00  0.00    +0.005 A 
ATOM     21  C   LIG    1       -4.341  -4.310  -1.952  0.00  0.00    +0.020 A 
ATOM     22  C   LIG    1       -3.866  -4.588  -0.682  0.00  0.00    +0.045 A 
ATOM     23 CL   LIG    1       -4.579  -5.867   0.250  0.00  0.00    -0.083 Cl
ATOM     24  C   LIG    1       -2.821  -3.850  -0.157  0.00  0.00    +0.069 A 
ENDBRANCH  16  18
ENDBRANCH   1  16
TORSDOF 5
