REMARK  Name = ZINC13475020
REMARK                            x       y       z     vdW  Elec       q    Type
REMARK                         _______ _______ _______ _____ _____    ______ ____
ROOT
ATOM      1  C   LIG    1        3.459  -1.982  -0.076  0.00  0.00    +0.128 A 
ATOM      2  C   LIG    1        2.194  -2.558  -0.144  0.00  0.00    +0.047 A 
ATOM      3  C   LIG    1        2.061  -3.921  -0.184  0.00  0.00    +0.015 A 
ATOM      4  C   LIG    1        3.201  -4.735  -0.158  0.00  0.00    +0.018 A 
ATOM      5  C   LIG    1        4.471  -4.150  -0.090  0.00  0.00    +0.015 A 
ATOM      6  C   LIG    1        4.594  -2.785  -0.055  0.00  0.00    +0.047 A 
ENDROOT
BRANCH   4   7
ATOM      7  C   LIG    1        3.063  -6.197  -0.200  0.00  0.00    +0.171 C 
ATOM      8  O   LIG    1        1.962  -6.701  -0.258  0.00  0.00    -0.292 OA
BRANCH   7   9
ATOM      9  C   LIG    1        4.291  -7.070  -0.171  0.00  0.00    +0.166 C 
BRANCH   9  10
ATOM     10  C   LIG    1        3.879  -8.518  -0.224  0.00  0.00    +0.246 C 
ATOM     11  O   LIG    1        2.709  -8.811  -0.280  0.00  0.00    -0.285 OA
BRANCH  10  12
ATOM     12  C   LIG    1        4.918  -9.591  -0.208  0.00  0.00    +0.373 C 
ATOM     13  O   LIG    1        4.584 -10.764  -0.252  0.00  0.00    -0.242 OA
BRANCH  12  14
ATOM     14  O   LIG    1        6.100  -9.295  -0.152  0.00  0.00    -0.475 OA
ATOM     15  H   LIG    1        6.357  -8.395  -0.119  0.00  0.00    +0.295 HD
ENDBRANCH  12  14
ENDBRANCH  10  12
ENDBRANCH   9  10
ENDBRANCH   7   9
ENDBRANCH   4   7
BRANCH   1  16
ATOM     16  O   LIG    1        3.586  -0.632  -0.037  0.00  0.00    -0.456 OA
BRANCH  16  20
ATOM     17  C   LIG    1        3.917   1.388  -3.618  0.00  0.00    +0.000 A 
ATOM     18  C   LIG    1        3.777   0.013  -3.612  0.00  0.00    +0.004 A 
ATOM     19  C   LIG    1        3.666  -0.666  -2.414  0.00  0.00    +0.046 A 
ATOM     20  C   LIG    1        3.695   0.034  -1.216  0.00  0.00    +0.128 A 
ATOM     21  C   LIG    1        3.836   1.414  -1.226  0.00  0.00    +0.046 A 
ATOM     22  C   LIG    1        3.946   2.088  -2.426  0.00  0.00    +0.004 A 
ENDBRANCH  16  20
ENDBRANCH   1  16
TORSDOF 7
