REMARK  Name = ZINC13491403
REMARK                            x       y       z     vdW  Elec       q    Type
REMARK                         _______ _______ _______ _____ _____    ______ ____
ROOT
ATOM      1  C   LIG    1       -0.013   1.086   0.008  0.00  0.00    +0.061 C 
ATOM      2  C   LIG    1       -0.729   1.579   1.267  0.00  0.00    +0.136 C 
ATOM      3  C   LIG    1        0.009   1.074   2.508  0.00  0.00    +0.061 C 
ATOM      4  C   LIG    1       -2.147   1.065   1.277  0.00  0.00    +0.017 A 
ATOM      5  C   LIG    1       -2.465  -0.144   0.706  0.00  0.00    +0.018 A 
ATOM      6  C   LIG    1       -3.785  -0.594   0.727  0.00  0.00    -0.017 A 
ATOM      7  C   LIG    1       -4.776   0.184   1.324  0.00  0.00    +0.010 A 
ATOM      8  C   LIG    1       -4.452   1.398   1.893  0.00  0.00    +0.024 A 
ATOM      9  C   LIG    1       -3.139   1.844   1.870  0.00  0.00    +0.043 A 
ATOM     10  N   LIG    1       -2.787   3.072   2.440  0.00  0.00    -0.251 N 
ATOM     11  H   LIG    1       -3.395   3.520   3.048  0.00  0.00    +0.158 HD
ATOM     12  C   LIG    1       -1.597   3.631   2.138  0.00  0.00    +0.405 C 
ATOM     13  O   LIG    1       -1.281   4.686   2.651  0.00  0.00    -0.226 OA
ATOM     14  O   LIG    1       -0.756   3.033   1.274  0.00  0.00    -0.439 OA
ENDROOT
BRANCH   6  15
ATOM     15  C   LIG    1       -4.134  -1.900   0.116  0.00  0.00    -0.016 A 
ATOM     16  C   LIG    1       -3.146  -2.677  -0.486  0.00  0.00    +0.008 A 
ATOM     17  C   LIG    1       -3.474  -3.893  -1.049  0.00  0.00    +0.002 A 
ATOM     18  C   LIG    1       -4.784  -4.338  -1.026  0.00  0.00    +0.020 A 
ATOM     19  C   LIG    1       -5.771  -3.569  -0.434  0.00  0.00    +0.042 A 
ATOM     20 CL   LIG    1       -7.412  -4.135  -0.409  0.00  0.00    -0.084 Cl
ATOM     21  C   LIG    1       -5.452  -2.352   0.137  0.00  0.00    +0.028 A 
ENDBRANCH   6  15
TORSDOF 1
