REMARK  Name = ZINC13516897
REMARK                            x       y       z     vdW  Elec       q    Type
REMARK                         _______ _______ _______ _____ _____    ______ ____
ROOT
ATOM      1  C   LIG    1       -0.018   1.506   0.010  0.00  0.00    +0.091 C 
ATOM      2  C   LIG    1        1.456   1.863  -0.002  0.00  0.00    +0.091 C 
ATOM      3  N   LIG    1        2.111   0.752  -0.014  0.00  0.00    -0.241 NA
ATOM      4  C   LIG    1        1.325  -0.353  -0.013  0.00  0.00    +0.143 A 
ATOM      5  N   LIG    1        1.645  -1.699  -0.023  0.00  0.00    -0.292 N 
ATOM      6  H   LIG    1        2.575  -1.973  -0.034  0.00  0.00    +0.172 HD
ATOM      7  C   LIG    1        0.676  -2.630  -0.019  0.00  0.00    +0.328 A 
ATOM      8  O   LIG    1        0.983  -3.807  -0.028  0.00  0.00    -0.247 OA
ATOM      9  N   LIG    1       -0.626  -2.292  -0.005  0.00  0.00    -0.275 N 
ATOM     10  H   LIG    1       -1.306  -2.985  -0.003  0.00  0.00    +0.173 HD
ATOM     11  C   LIG    1       -0.990  -0.992   0.006  0.00  0.00    +0.260 A 
ATOM     12  O   LIG    1       -2.169  -0.682   0.019  0.00  0.00    -0.267 OA
ATOM     13  C   LIG    1        0.002  -0.004   0.002  0.00  0.00    +0.064 A 
ENDROOT
TORSDOF 0
