REMARK  Name = ZINC13285175
REMARK                            x       y       z     vdW  Elec       q    Type
REMARK                         _______ _______ _______ _____ _____    ______ ____
ROOT
ATOM      1  C   LIG    1       -2.906  -2.232  -0.802  0.00  0.00    -0.062 A 
ATOM      2  C   LIG    1       -3.184  -3.139   0.210  0.00  0.00    +0.004 A 
ATOM      3  C   LIG    1       -3.019  -4.490   0.002  0.00  0.00    +0.030 A 
ATOM      4  C   LIG    1       -2.569  -4.950  -1.240  0.00  0.00    +0.091 A 
ATOM      5  C   LIG    1       -2.290  -4.027  -2.257  0.00  0.00    +0.074 A 
ATOM      6  N   LIG    1       -1.862  -4.762  -3.373  0.00  0.00    -0.292 N 
ATOM      7  C   LIG    1       -1.448  -4.515  -4.650  0.00  0.00    +0.114 A 
ATOM      8  C   LIG    1       -1.100  -5.532  -5.470  0.00  0.00    +0.094 A 
ATOM      9  S   LIG    1       -1.355  -6.953  -4.419  0.00  0.00    -0.045 S 
ATOM     10  C   LIG    1       -1.906  -6.078  -2.970  0.00  0.00    +0.179 A 
ATOM     11  N   LIG    1       -2.314  -6.186  -1.739  0.00  0.00    -0.221 NA
ATOM     12  C   LIG    1       -2.466  -2.671  -2.034  0.00  0.00    +0.030 A 
ENDROOT
BRANCH   8  13
ATOM     13  C   LIG    1       -0.633  -5.481  -6.861  0.00  0.00    +0.255 C 
ATOM     14  N   LIG    1       -0.191  -6.602  -7.464  0.00  0.00    -0.297 N 
ATOM     15  C   LIG    1       -0.211  -7.878  -6.745  0.00  0.00    +0.132 C 
ATOM     16  O   LIG    1       -0.647  -4.427  -7.469  0.00  0.00    -0.269 OA
BRANCH  14  17
ATOM     17  C   LIG    1        0.311  -6.544  -8.839  0.00  0.00    +0.076 C 
ATOM     18  C   LIG    1       -0.535  -7.457  -9.730  0.00  0.00    +0.022 C 
ATOM     19  C   LIG    1       -0.011  -7.396 -11.166  0.00  0.00    +0.002 C 
ATOM     20  C   LIG    1        1.446  -7.862 -11.197  0.00  0.00    +0.000 C 
ATOM     21  C   LIG    1        2.292  -6.949 -10.307  0.00  0.00    +0.002 C 
ATOM     22  C   LIG    1        1.768  -7.010  -8.871  0.00  0.00    +0.022 C 
ENDBRANCH  14  17
ENDBRANCH   8  13
BRANCH   1  23
ATOM     23  C   LIG    1       -3.092  -0.756  -0.556  0.00  0.00    -0.043 C 
BRANCH  23  25
ATOM     24  C   LIG    1       -1.534  -0.725   1.297  0.00  0.00    -0.096 C 
ATOM     25  N   LIG    1       -1.823  -0.193  -0.051  0.00  0.00    +0.382 N 
ATOM     26  H   LIG    1       -1.062  -0.463  -0.687  0.00  0.00    -0.082 HD
BRANCH  25  27
ATOM     27  C   LIG    1       -1.908   1.282  -0.004  0.00  0.00    -0.050 C 
BRANCH  27  28
ATOM     28  C   LIG    1       -0.519   1.847   0.303  0.00  0.00    +0.141 C 
BRANCH  28  29
ATOM     29  O   LIG    1        0.372   1.528  -0.767  0.00  0.00    -0.385 OA
ATOM     30  C   LIG    1        1.703   2.013  -0.579  0.00  0.00    +0.193 C 
ENDBRANCH  28  29
ENDBRANCH  27  28
ENDBRANCH  25  27
ENDBRANCH  23  25
ENDBRANCH   1  23
TORSDOF 7
