REMARK  Name = ZINC13520504
REMARK                            x       y       z     vdW  Elec       q    Type
REMARK                         _______ _______ _______ _____ _____    ______ ____
ROOT
ATOM      1  C   LIG    1        5.835  -2.252   1.262  0.00  0.00    +0.048 C 
ATOM      2  C   LIG    1        6.802  -1.338   0.890  0.00  0.00    +0.091 C 
ATOM      3  N   LIG    1        7.642  -0.875   1.804  0.00  0.00    -0.289 NA
ATOM      4  H   LIG    1        8.322  -0.233   1.546  0.00  0.00    +0.125 HD
ATOM      5  C   LIG    1        7.565  -1.275   3.065  0.00  0.00    +0.192 C 
ATOM      6  N   LIG    1        6.653  -2.149   3.462  0.00  0.00    -0.274 NA
ATOM      7  H   LIG    1        6.112  -1.693   4.197  0.00  0.00    +0.126 HD
ATOM      8  C   LIG    1        5.775  -2.651   2.599  0.00  0.00    +0.127 C 
ENDROOT
BRANCH   5   9
ATOM      9  N   LIG    1        8.461  -0.767   3.989  0.00  0.00    -0.303 NA
ATOM     10  H   LIG    1        8.416  -1.052   4.915  0.00  0.00    +0.121 HD
ATOM     11  H   LIG    1        9.134  -0.126   3.711  0.00  0.00    +0.121 HD
ENDBRANCH   5   9
BRANCH   8  12
ATOM     12  N   LIG    1        4.819  -3.561   3.019  0.00  0.00    -0.315 NA
ATOM     13  H   LIG    1        4.784  -3.833   3.949  0.00  0.00    +0.120 HD
ATOM     14  H   LIG    1        4.184  -3.926   2.382  0.00  0.00    +0.120 HD
ENDBRANCH   8  12
BRANCH   1  15
ATOM     15  C   LIG    1        4.863  -2.801   0.250  0.00  0.00    +0.092 C 
BRANCH  15  23
ATOM     16  C   LIG    1       -0.017   1.376   0.010  0.00  0.00    +0.000 A 
ATOM     17  C   LIG    1        1.173   2.080   0.002  0.00  0.00    +0.000 A 
ATOM     18  C   LIG    1        2.374   1.400  -0.015  0.00  0.00    +0.005 A 
ATOM     19  C   LIG    1        2.395   0.013  -0.024  0.00  0.00    -0.030 A 
ATOM     20  C   LIG    1        1.208  -0.688  -0.012  0.00  0.00    -0.042 A 
ATOM     21  C   LIG    1        1.180  -2.195  -0.009  0.00  0.00    +0.051 C 
ATOM     22  C   LIG    1        2.541  -2.744  -0.440  0.00  0.00    +0.089 C 
ATOM     23  N   LIG    1        3.585  -2.085   0.361  0.00  0.00    -0.297 NA
ATOM     24  C   LIG    1        3.730  -0.684  -0.048  0.00  0.00    +0.119 C 
ATOM     25  C   LIG    1        0.002  -0.004   0.002  0.00  0.00    +0.004 A 
ENDBRANCH  15  23
ENDBRANCH   1  15
TORSDOF 4
