REMARK  Name = ZINC13516897
REMARK                            x       y       z     vdW  Elec       q    Type
REMARK                         _______ _______ _______ _____ _____    ______ ____
ROOT
ATOM      1  C   LIG    1       -0.018   1.457   0.010  0.00  0.00    +0.034 A 
ATOM      2  C   LIG    1        1.266   1.855  -0.000  0.00  0.00    +0.085 A 
ATOM      3  N   LIG    1        2.084   0.755  -0.014  0.00  0.00    -0.347 N 
ATOM      4  C   LIG    1        1.343  -0.379  -0.013  0.00  0.00    +0.125 A 
ATOM      5  N   LIG    1        1.653  -1.723  -0.023  0.00  0.00    -0.293 N 
ATOM      6  H   LIG    1        2.583  -2.000  -0.033  0.00  0.00    +0.172 HD
ATOM      7  C   LIG    1        0.684  -2.654  -0.018  0.00  0.00    +0.328 A 
ATOM      8  O   LIG    1        1.002  -3.828  -0.027  0.00  0.00    -0.247 OA
ATOM      9  N   LIG    1       -0.621  -2.338  -0.005  0.00  0.00    -0.275 N 
ATOM     10  H   LIG    1       -1.285  -3.046  -0.002  0.00  0.00    +0.173 HD
ATOM     11  C   LIG    1       -1.021  -1.047   0.006  0.00  0.00    +0.263 A 
ATOM     12  O   LIG    1       -2.204  -0.761   0.019  0.00  0.00    -0.267 OA
ATOM     13  H   LIG    1        3.054   0.784  -0.022  0.00  0.00    +0.167 HD
ATOM     14  C   LIG    1        0.002  -0.004   0.002  0.00  0.00    +0.081 A 
ENDROOT
TORSDOF 0
