REMARK  Name = ZINC13508043
REMARK                            x       y       z     vdW  Elec       q    Type
REMARK                         _______ _______ _______ _____ _____    ______ ____
ROOT
ATOM      1  C   LIG    1       -0.013   1.086   0.008  0.00  0.00    +0.193 C 
ATOM      2  C   LIG    1       -0.729   1.579   1.267  0.00  0.00    +0.193 C 
ATOM      3  C   LIG    1        0.011   1.072   2.506  0.00  0.00    +0.178 C 
ATOM      4  C   LIG    1        1.446   1.602   2.495  0.00  0.00    +0.193 C 
ATOM      5  C   LIG    1        2.163   1.109   1.237  0.00  0.00    +0.193 C 
ATOM      6  C   LIG    1        1.423   1.615  -0.003  0.00  0.00    +0.178 C 
ENDROOT
BRANCH   6   7
ATOM      7  O   LIG    1        2.091   1.155  -1.179  0.00  0.00    -0.386 OA
ATOM      8  H   LIG    1        3.009   1.453  -1.252  0.00  0.00    +0.210 HD
ENDBRANCH   6   7
BRANCH   3   9
ATOM      9  O   LIG    1       -0.658   1.533   3.682  0.00  0.00    -0.386 OA
ATOM     10  H   LIG    1       -0.242   1.249   4.508  0.00  0.00    +0.210 HD
ENDBRANCH   3   9
BRANCH   4  11
ATOM     11  O   LIG    1        2.138   1.129   3.653  0.00  0.00    -0.278 OA
BRANCH  11  12
ATOM     12  P   LIG    1        2.773   2.112   4.758  0.00  0.00    +0.473 P 
ATOM     13  O   LIG    1        3.750   3.119   4.061  0.00  0.00    -0.228 OA
BRANCH  12  14
ATOM     14  O   LIG    1        1.627   2.906   5.472  0.00  0.00    -0.303 OA
ATOM     15  H   LIG    1        1.139   3.428   4.817  0.00  0.00    +0.222 HD
ENDBRANCH  12  14
BRANCH  12  16
ATOM     16  O   LIG    1        3.562   1.268   5.817  0.00  0.00    -0.303 OA
ATOM     17  H   LIG    1        4.271   0.777   5.375  0.00  0.00    +0.222 HD
ENDBRANCH  12  16
ENDBRANCH  11  12
ENDBRANCH   4  11
BRANCH   2  18
ATOM     18  O   LIG    1       -0.748   3.008   1.275  0.00  0.00    -0.278 OA
BRANCH  18  19
ATOM     19  P   LIG    1       -2.110   3.866   1.292  0.00  0.00    +0.473 P 
ATOM     20  O   LIG    1       -3.015   3.435   0.089  0.00  0.00    -0.228 OA
BRANCH  19  21
ATOM     21  O   LIG    1       -2.872   3.610   2.637  0.00  0.00    -0.303 OA
ATOM     22  H   LIG    1       -3.083   2.666   2.714  0.00  0.00    +0.222 HD
ENDBRANCH  19  21
BRANCH  19  23
ATOM     23  O   LIG    1       -1.769   5.390   1.169  0.00  0.00    -0.303 OA
ATOM     24  H   LIG    1       -1.297   5.549   0.336  0.00  0.00    +0.222 HD
ENDBRANCH  19  23
ENDBRANCH  18  19
ENDBRANCH   2  18
BRANCH   5  25
ATOM     25  O   LIG    1        3.503   1.603   1.226  0.00  0.00    -0.278 OA
BRANCH  25  26
ATOM     26  P   LIG    1        4.793   0.640   1.209  0.00  0.00    +0.473 P 
ATOM     27  O   LIG    1        4.716  -0.358   2.414  0.00  0.00    -0.228 OA
BRANCH  26  28
ATOM     28  O   LIG    1        4.825  -0.166  -0.134  0.00  0.00    -0.303 OA
ATOM     29  H   LIG    1        4.020  -0.702  -0.209  0.00  0.00    +0.222 HD
ENDBRANCH  26  28
BRANCH  26  30
ATOM     30  O   LIG    1        6.093   1.506   1.330  0.00  0.00    -0.303 OA
ATOM     31  H   LIG    1        6.073   2.004   2.162  0.00  0.00    +0.222 HD
ENDBRANCH  26  30
ENDBRANCH  25  26
ENDBRANCH   5  25
BRANCH   1  32
ATOM     32  O   LIG    1       -0.704   1.559  -1.150  0.00  0.00    -0.278 OA
BRANCH  32  33
ATOM     33  P   LIG    1       -1.339   0.576  -2.255  0.00  0.00    +0.473 P 
ATOM     34  O   LIG    1       -0.248  -0.383  -2.780  0.00  0.00    -0.228 OA
BRANCH  33  35
ATOM     35  O   LIG    1       -2.482  -0.245  -1.617  0.00  0.00    -0.303 OA
ATOM     36  H   LIG    1       -2.132  -0.770  -0.881  0.00  0.00    +0.222 HD
ENDBRANCH  33  35
BRANCH  33  37
ATOM     37  O   LIG    1       -1.922   1.447  -3.477  0.00  0.00    -0.303 OA
ATOM     38  H   LIG    1       -2.321   0.918  -4.182  0.00  0.00    +0.222 HD
ENDBRANCH  33  37
ENDBRANCH  32  33
ENDBRANCH   1  32
TORSDOF 18
