REMARK  Name = ZINC13474785
REMARK                            x       y       z     vdW  Elec       q    Type
REMARK                         _______ _______ _______ _____ _____    ______ ____
ROOT
ATOM      1  N   LIG    1        2.461   1.623  -4.039  0.00  0.00    -0.312 N 
ATOM      2  C   LIG    1        1.970   2.305  -2.833  0.00  0.00    +0.125 C 
ATOM      3  C   LIG    1        3.039   3.300  -2.364  0.00  0.00    +0.128 C 
ATOM      4  N   LIG    1        3.462   4.111  -3.513  0.00  0.00    -0.282 N 
ATOM      5  C   LIG    1        3.401   5.457  -3.462  0.00  0.00    +0.307 C 
ATOM      6  N   LIG    1        3.653   6.185  -4.569  0.00  0.00    -0.269 N 
ATOM      7  H   LIG    1        3.744   5.745  -5.428  0.00  0.00    +0.156 HD
ATOM      8  O   LIG    1        3.120   6.014  -2.419  0.00  0.00    -0.252 OA
ATOM      9  C   LIG    1        3.953   3.430  -4.719  0.00  0.00    +0.128 C 
ATOM     10  C   LIG    1        2.889   2.435  -5.187  0.00  0.00    +0.125 C 
ENDROOT
BRANCH   1  19
ATOM     11  C   LIG    1       -0.883  -0.703  -5.179  0.00  0.00    +0.162 A 
ATOM     12  C   LIG    1        0.176   0.080  -4.816  0.00  0.00    +0.062 A 
ATOM     13  C   LIG    1        1.395  -0.518  -4.475  0.00  0.00    +0.044 A 
ATOM     14  C   LIG    1        1.524  -1.929  -4.509  0.00  0.00    +0.080 A 
ATOM     15  N   LIG    1        2.704  -2.477  -4.177  0.00  0.00    -0.235 NA
ATOM     16  C   LIG    1        3.715  -1.718  -3.829  0.00  0.00    +0.223 A 
ATOM     17  N   LIG    1        3.641  -0.397  -3.783  0.00  0.00    -0.220 NA
ATOM     18  C   LIG    1        0.426  -2.712  -4.885  0.00  0.00    +0.078 A 
ATOM     19  C   LIG    1        2.523   0.246  -4.091  0.00  0.00    +0.132 A 
ATOM     20  C   LIG    1       -0.765  -2.099  -5.210  0.00  0.00    +0.164 A 
BRANCH  11  22
ATOM     21  C   LIG    1       -2.125   1.306  -5.459  0.00  0.00    +0.277 C 
ATOM     22  O   LIG    1       -2.067  -0.121  -5.509  0.00  0.00    -0.491 OA
ENDBRANCH  11  22
BRANCH  20  23
ATOM     23  O   LIG    1       -1.834  -2.856  -5.569  0.00  0.00    -0.491 OA
ATOM     24  C   LIG    1       -1.650  -4.274  -5.581  0.00  0.00    +0.277 C 
ENDBRANCH  20  23
ENDBRANCH   1  19
BRANCH   6  25
ATOM     25  C   LIG    1        3.782   7.577  -4.476  0.00  0.00    +0.035 A 
ATOM     26  C   LIG    1        3.169   8.264  -3.437  0.00  0.00    +0.027 A 
ATOM     27  C   LIG    1        3.297   9.636  -3.347  0.00  0.00    +0.048 A 
ATOM     28  C   LIG    1        4.038  10.328  -4.294  0.00  0.00    +0.129 A 
ATOM     29  C   LIG    1        4.650   9.642  -5.333  0.00  0.00    +0.048 A 
ATOM     30  C   LIG    1        4.528   8.269  -5.421  0.00  0.00    +0.027 A 
BRANCH  28  31
ATOM     31  O   LIG    1        4.163  11.679  -4.205  0.00  0.00    -0.456 OA
BRANCH  31  32
ATOM     32  C   LIG    1        3.661  12.295  -3.103  0.00  0.00    +0.128 A 
ATOM     33  C   LIG    1        4.361  12.258  -1.906  0.00  0.00    +0.046 A 
ATOM     34  C   LIG    1        3.848  12.885  -0.787  0.00  0.00    +0.004 A 
ATOM     35  C   LIG    1        2.637  13.549  -0.860  0.00  0.00    +0.000 A 
ATOM     36  C   LIG    1        1.937  13.586  -2.051  0.00  0.00    +0.004 A 
ATOM     37  C   LIG    1        2.448  12.966  -3.175  0.00  0.00    +0.046 A 
ENDBRANCH  31  32
ENDBRANCH  28  31
ENDBRANCH   6  25
TORSDOF 6
