REMARK  Name = ZINC13441224
REMARK                            x       y       z     vdW  Elec       q    Type
REMARK                         _______ _______ _______ _____ _____    ______ ____
ROOT
ATOM      1  C   LIG    1       -1.305   4.865   0.045  0.00  0.00    +0.064 C 
ATOM      2  C   LIG    1       -0.504   3.589   0.028  0.00  0.00    +0.028 A 
ATOM      3  C   LIG    1        0.835   3.521   0.015  0.00  0.00    -0.010 A 
ATOM      4  C   LIG    1        1.196   2.099   0.001  0.00  0.00    +0.008 A 
ATOM      5  C   LIG    1        2.409   1.409  -0.015  0.00  0.00    +0.056 A 
ATOM      6  C   LIG    1        2.409   0.028  -0.025  0.00  0.00    +0.121 A 
ATOM      7  C   LIG    1        1.207  -0.673  -0.019  0.00  0.00    +0.048 A 
ATOM      8  C   LIG    1        0.004  -0.002  -0.002  0.00  0.00    +0.030 A 
ATOM      9  C   LIG    1       -0.016   1.387   0.008  0.00  0.00    +0.057 A 
ATOM     10  N   LIG    1       -1.037   2.322   0.019  0.00  0.00    -0.280 N 
ATOM     11  C   LIG    1       -2.353   2.034   0.023  0.00  0.00    +0.263 C 
ATOM     12  O   LIG    1       -2.923   1.809   1.072  0.00  0.00    -0.267 OA
ENDROOT
BRANCH  11  13
ATOM     13  C   LIG    1       -3.103   1.993  -1.248  0.00  0.00    +0.040 A 
ATOM     14  C   LIG    1       -2.434   2.153  -2.464  0.00  0.00    +0.015 A 
ATOM     15  C   LIG    1       -3.139   2.108  -3.647  0.00  0.00    +0.021 A 
ATOM     16  C   LIG    1       -4.511   1.916  -3.633  0.00  0.00    +0.041 A 
ATOM     17 CL   LIG    1       -5.393   1.867  -5.127  0.00  0.00    -0.084 Cl
ATOM     18  C   LIG    1       -5.182   1.762  -2.431  0.00  0.00    +0.021 A 
ATOM     19  C   LIG    1       -4.487   1.800  -1.240  0.00  0.00    +0.015 A 
ENDBRANCH  11  13
BRANCH   6  20
ATOM     20  O   LIG    1        3.588  -0.649  -0.041  0.00  0.00    -0.495 OA
ATOM     21  C   LIG    1        3.517  -2.076  -0.050  0.00  0.00    +0.277 C 
ENDBRANCH   6  20
BRANCH   3  22
ATOM     22  C   LIG    1        1.790   4.686   0.013  0.00  0.00    +0.133 C 
BRANCH  22  23
ATOM     23  C   LIG    1        2.094   5.085  -1.408  0.00  0.00    +0.218 C 
ATOM     24  N   LIG    1        2.932   6.112  -1.655  0.00  0.00    -0.313 N 
ATOM     25  H   LIG    1        3.338   6.594  -0.918  0.00  0.00    +0.149 HD
ATOM     26  O   LIG    1        1.586   4.482  -2.329  0.00  0.00    -0.275 OA
BRANCH  24  27
ATOM     27  C   LIG    1        3.228   6.499  -3.036  0.00  0.00    +0.135 C 
BRANCH  27  28
ATOM     28  C   LIG    1        4.197   7.683  -3.037  0.00  0.00    +0.128 C 
ATOM     29  C   LIG    1        4.409   8.167  -4.473  0.00  0.00    +0.039 C 
BRANCH  28  30
ATOM     30  O   LIG    1        5.449   7.273  -2.483  0.00  0.00    -0.391 OA
ATOM     31  H   LIG    1        5.877   6.553  -2.967  0.00  0.00    +0.210 HD
ENDBRANCH  28  30
ENDBRANCH  27  28
ENDBRANCH  24  27
ENDBRANCH  22  23
ENDBRANCH   3  22
TORSDOF 7
