REMARK  Name = ZINC13124254
REMARK                            x       y       z     vdW  Elec       q    Type
REMARK                         _______ _______ _______ _____ _____    ______ ____
ROOT
ATOM      1  C   LIG    1       -0.005   1.369  -0.272  0.00  0.00    +0.046 A 
ATOM      2  C   LIG    1        1.174   2.080  -0.251  0.00  0.00    +0.016 A 
ATOM      3  C   LIG    1        2.386   1.416  -0.045  0.00  0.00    +0.032 A 
ATOM      4  C   LIG    1        2.395   0.025   0.139  0.00  0.00    +0.129 A 
ATOM      5  C   LIG    1        1.204  -0.679   0.115  0.00  0.00    +0.091 A 
ATOM      6  C   LIG    1        0.006  -0.010  -0.090  0.00  0.00    +0.120 A 
ENDROOT
BRANCH   3   7
ATOM      7  C   LIG    1        3.649   2.172  -0.022  0.00  0.00    +0.090 C 
ATOM      8  N   LIG    1        4.779   1.544   0.062  0.00  0.00    -0.387 N 
ATOM      9  H   LIG    1        4.796   0.574   0.057  0.00  0.00    +0.159 HD
BRANCH   8  10
ATOM     10  C   LIG    1        6.030   2.299   0.164  0.00  0.00    +0.079 C 
ATOM     11  C   LIG    1        6.934   1.951  -1.021  0.00  0.00    +0.024 C 
ATOM     12  C   LIG    1        8.241   2.739  -0.915  0.00  0.00    +0.002 C 
ATOM     13  C   LIG    1        8.950   2.375   0.391  0.00  0.00    +0.000 C 
ATOM     14  C   LIG    1        8.047   2.723   1.576  0.00  0.00    +0.002 C 
ATOM     15  C   LIG    1        6.740   1.935   1.470  0.00  0.00    +0.024 C 
ENDBRANCH   8  10
ENDBRANCH   3   7
BRANCH   4  16
ATOM     16  O   LIG    1        3.568  -0.629   0.339  0.00  0.00    -0.506 OA
ATOM     17  H   LIG    1        3.823  -0.703   1.269  0.00  0.00    +0.292 HD
ENDBRANCH   4  16
BRANCH   6  18
ATOM     18  O   LIG    1       -1.161  -0.703  -0.112  0.00  0.00    -0.507 OA
ATOM     19  H   LIG    1       -1.414  -1.019  -0.990  0.00  0.00    +0.292 HD
ENDBRANCH   6  18
TORSDOF 4
