REMARK  Name = ZINC13492626
REMARK                            x       y       z     vdW  Elec       q    Type
REMARK                         _______ _______ _______ _____ _____    ______ ____
ROOT
ATOM      1  C   LIG    1        1.698  -5.169   2.704  0.00  0.00    +0.096 C 
ATOM      2  C   LIG    1        0.564  -6.155   3.078  0.00  0.00    +0.058 C 
ATOM      3  C   LIG    1        1.336  -7.460   3.396  0.00  0.00    +0.141 C 
ATOM      4  C   LIG    1        2.475  -7.489   2.357  0.00  0.00    +0.027 C 
ATOM      5  C   LIG    1        3.786  -6.779   2.701  0.00  0.00    +0.018 C 
ATOM      6  C   LIG    1        2.706  -6.032   1.916  0.00  0.00    +0.024 C 
ENDROOT
BRANCH   1  10
ATOM      7  C   LIG    1        0.621  -0.693   1.030  0.00  0.00    +0.151 A 
ATOM      8  C   LIG    1        0.654  -2.098   1.036  0.00  0.00    +0.148 A 
ATOM      9  C   LIG    1        1.296  -2.743   2.106  0.00  0.00    +0.167 A 
ATOM     10  N   LIG    1        1.181  -4.088   1.862  0.00  0.00    -0.311 N 
ATOM     11  C   LIG    1        0.497  -4.234   0.692  0.00  0.00    +0.202 A 
ATOM     12  N   LIG    1        1.845  -2.007   3.068  0.00  0.00    -0.198 NA
ATOM     13  C   LIG    1        1.790  -0.692   3.022  0.00  0.00    +0.226 A 
ATOM     14 CL   LIG    1        2.522   0.221   4.303  0.00  0.00    -0.041 Cl
ATOM     15  N   LIG    1        0.189  -3.065   0.208  0.00  0.00    -0.231 NA
ATOM     16  N   LIG    1        1.201  -0.042   2.033  0.00  0.00    -0.200 NA
BRANCH   7  18
ATOM     17  C   LIG    1       -0.018   1.461   0.010  0.00  0.00    +0.127 C 
ATOM     18  N   LIG    1        0.002  -0.004   0.002  0.00  0.00    -0.330 N 
ATOM     19  H   LIG    1       -0.418  -0.491  -0.724  0.00  0.00    +0.147 HD
ENDBRANCH   7  18
ENDBRANCH   1  10
BRANCH   3  20
ATOM     20  O   LIG    1        1.869  -7.414   4.721  0.00  0.00    -0.283 OA
BRANCH  20  21
ATOM     21  P   LIG    1        1.505  -8.502   5.851  0.00  0.00    +0.473 P 
ATOM     22  O   LIG    1        1.817  -9.919   5.321  0.00  0.00    -0.228 OA
BRANCH  21  23
ATOM     23  O   LIG    1        0.003  -8.401   6.198  0.00  0.00    -0.303 OA
ATOM     24  H   LIG    1       -0.525  -8.572   5.402  0.00  0.00    +0.222 HD
ENDBRANCH  21  23
BRANCH  21  25
ATOM     25  O   LIG    1        2.381  -8.218   7.172  0.00  0.00    -0.303 OA
ATOM     26  H   LIG    1        2.213  -8.837   7.896  0.00  0.00    +0.222 HD
ENDBRANCH  21  25
ENDBRANCH  20  21
ENDBRANCH   3  20
BRANCH   4  27
ATOM     27  C   LIG    1        2.492  -8.651   1.362  0.00  0.00    +0.182 C 
BRANCH  27  28
ATOM     28  O   LIG    1        2.253  -9.876   2.057  0.00  0.00    -0.286 OA
BRANCH  28  29
ATOM     29  P   LIG    1        2.201 -11.307   1.320  0.00  0.00    +0.472 P 
ATOM     30  O   LIG    1        1.146 -11.261   0.163  0.00  0.00    -0.228 OA
BRANCH  29  31
ATOM     31  O   LIG    1        1.795 -12.412   2.354  0.00  0.00    -0.303 OA
ATOM     32  H   LIG    1        0.922 -12.206   2.721  0.00  0.00    +0.222 HD
ENDBRANCH  29  31
BRANCH  29  33
ATOM     33  O   LIG    1        3.613 -11.640   0.727  0.00  0.00    -0.303 OA
ATOM     34  H   LIG    1        3.864 -10.956   0.087  0.00  0.00    +0.222 HD
ENDBRANCH  29  33
ENDBRANCH  28  29
ENDBRANCH  27  28
ENDBRANCH   4  27
TORSDOF 11
