REMARK  Name = ZINC13475083
REMARK                            x       y       z     vdW  Elec       q    Type
REMARK                         _______ _______ _______ _____ _____    ______ ____
ROOT
ATOM      1  C   LIG    1       -0.229   5.415  -0.484  0.00  0.00    +0.044 C 
ATOM      2  C   LIG    1       -0.093   3.938  -0.217  0.00  0.00    -0.043 A 
ATOM      3  C   LIG    1        1.156   3.346  -0.229  0.00  0.00    +0.049 A 
ATOM      4  C   LIG    1        1.281   1.988   0.022  0.00  0.00    +0.122 A 
ATOM      5  C   LIG    1        0.150   1.225   0.279  0.00  0.00    +0.049 A 
ATOM      6  C   LIG    1       -1.096   1.820   0.283  0.00  0.00    -0.043 A 
ATOM      7  C   LIG    1       -2.325   0.993   0.561  0.00  0.00    +0.044 C 
ATOM      8  C   LIG    1       -1.218   3.175   0.032  0.00  0.00    -0.037 A 
ENDROOT
BRANCH   4   9
ATOM      9  O   LIG    1        2.508   1.405   0.017  0.00  0.00    -0.481 OA
BRANCH   9  10
ATOM     10  C   LIG    1        2.561   0.002   0.284  0.00  0.00    +0.349 C 
BRANCH  10  11
ATOM     11  C   LIG    1        3.993  -0.465   0.236  0.00  0.00    +0.343 C 
ATOM     12  O   LIG    1        4.878   0.323  -0.002  0.00  0.00    -0.247 OA
BRANCH  11  13
ATOM     13  O   LIG    1        4.286  -1.756   0.458  0.00  0.00    -0.478 OA
ATOM     14  H   LIG    1        3.600  -2.367   0.642  0.00  0.00    +0.295 HD
ENDBRANCH  11  13
ENDBRANCH  10  11
ENDBRANCH   9  10
ENDBRANCH   4   9
BRANCH   8  15
ATOM     15  C   LIG    1       -2.580   3.821   0.037  0.00  0.00    +0.070 C 
BRANCH  15  16
ATOM     16  C   LIG    1       -3.101   3.904  -1.375  0.00  0.00    -0.043 A 
ATOM     17  C   LIG    1       -2.872   5.039  -2.130  0.00  0.00    +0.007 A 
ATOM     18  C   LIG    1       -3.344   5.115  -3.426  0.00  0.00    +0.046 A 
ATOM     19  C   LIG    1       -4.059   4.056  -3.966  0.00  0.00    +0.120 A 
ATOM     20  C   LIG    1       -4.293   2.920  -3.204  0.00  0.00    -0.003 A 
ATOM     21  C   LIG    1       -3.813   2.847  -1.911  0.00  0.00    +0.011 A 
BRANCH  20  22
ATOM     22  C   LIG    1       -5.069   1.768  -3.787  0.00  0.00    +0.016 C 
ATOM     23  C   LIG    1       -6.320   1.516  -2.943  0.00  0.00    +0.012 C 
ATOM     24  C   LIG    1       -4.194   0.512  -3.789  0.00  0.00    +0.012 C 
ENDBRANCH  20  22
BRANCH  19  25
ATOM     25  O   LIG    1       -4.530   4.130  -5.238  0.00  0.00    -0.506 OA
ATOM     26  H   LIG    1       -5.418   4.508  -5.308  0.00  0.00    +0.292 HD
ENDBRANCH  19  25
ENDBRANCH  15  16
ENDBRANCH   8  15
TORSDOF 8
