REMARK  Name = ZINC13528006
REMARK                            x       y       z     vdW  Elec       q    Type
REMARK                         _______ _______ _______ _____ _____    ______ ____
ROOT
ATOM      1  N   LIG    1       -5.193   2.245  -2.908  0.00  0.00    -0.291 N 
ATOM      2  C   LIG    1       -3.805   1.816  -2.951  0.00  0.00    +0.203 C 
ATOM      3  C   LIG    1       -2.993   2.434  -1.860  0.00  0.00    +0.234 C 
ATOM      4  N   LIG    1       -3.480   3.261  -0.932  0.00  0.00    -0.276 N 
ATOM      5  C   LIG    1       -4.899   3.599  -0.829  0.00  0.00    +0.167 C 
ATOM      6  C   LIG    1       -5.451   3.057   0.497  0.00  0.00    +0.069 C 
ATOM      7  C   LIG    1       -4.480   3.390   1.601  0.00  0.00    -0.015 A 
ATOM      8  C   LIG    1       -4.713   3.392   3.031  0.00  0.00    +0.003 A 
ATOM      9  C   LIG    1       -5.840   3.110   3.808  0.00  0.00    +0.010 A 
ATOM     10  C   LIG    1       -5.697   3.214   5.170  0.00  0.00    +0.001 A 
ATOM     11  C   LIG    1       -4.498   3.580   5.758  0.00  0.00    +0.002 A 
ATOM     12  C   LIG    1       -3.366   3.865   5.013  0.00  0.00    +0.026 A 
ATOM     13  C   LIG    1       -3.482   3.769   3.628  0.00  0.00    +0.047 A 
ATOM     14  N   LIG    1       -2.587   3.976   2.618  0.00  0.00    -0.356 N 
ATOM     15  H   LIG    1       -1.663   4.243   2.738  0.00  0.00    +0.166 HD
ATOM     16  C   LIG    1       -3.192   3.748   1.410  0.00  0.00    +0.046 A 
ATOM     17  C   LIG    1       -2.553   3.869   0.045  0.00  0.00    +0.154 C 
ATOM     18  O   LIG    1       -1.811   2.167  -1.814  0.00  0.00    -0.274 OA
ATOM     19  C   LIG    1       -5.693   3.044  -1.967  0.00  0.00    +0.237 C 
ATOM     20  O   LIG    1       -6.867   3.339  -2.038  0.00  0.00    -0.274 OA
ENDROOT
BRANCH  17  21
ATOM     21  C   LIG    1       -1.238   3.133   0.029  0.00  0.00    -0.021 A 
ATOM     22  C   LIG    1       -0.099   3.764  -0.435  0.00  0.00    +0.006 A 
ATOM     23  C   LIG    1        1.107   3.087  -0.454  0.00  0.00    +0.004 A 
ATOM     24  C   LIG    1        1.175   1.783  -0.001  0.00  0.00    -0.050 A 
ATOM     25  C   LIG    1        2.490   1.047  -0.017  0.00  0.00    +0.044 C 
ATOM     26  C   LIG    1        0.037   1.154   0.468  0.00  0.00    +0.004 A 
ATOM     27  C   LIG    1       -1.170   1.829   0.483  0.00  0.00    +0.006 A 
ENDBRANCH  17  21
BRANCH   1  28
ATOM     28  C   LIG    1       -6.095   1.771  -3.961  0.00  0.00    +0.108 C 
BRANCH  28  29
ATOM     29  C   LIG    1       -6.740   0.454  -3.526  0.00  0.00    +0.019 C 
BRANCH  29  31
ATOM     30  C   LIG    1       -8.327  -1.358  -4.190  0.00  0.00    +0.004 C 
ATOM     31  C   LIG    1       -7.682  -0.041  -4.626  0.00  0.00    -0.002 C 
ENDBRANCH  29  31
ENDBRANCH  28  29
ENDBRANCH   1  28
TORSDOF 4
