REMARK  Name = ZINC13514850
REMARK                            x       y       z     vdW  Elec       q    Type
REMARK                         _______ _______ _______ _____ _____    ______ ____
ROOT
ATOM      1  C   LIG    1       -2.131   1.423   0.827  0.00  0.00    +0.226 C 
ATOM      2  C   LIG    1       -2.230   1.847  -0.655  0.00  0.00    +0.088 C 
ATOM      3  C   LIG    1       -0.804   1.620  -1.206  0.00  0.00    +0.150 C 
ATOM      4  C   LIG    1       -0.013   1.086   0.008  0.00  0.00    +0.175 C 
ATOM      5  O   LIG    1       -0.731   1.573   1.163  0.00  0.00    -0.348 OA
ENDROOT
BRANCH   1   9
ATOM      6  C   LIG    1       -5.985   2.053   3.836  0.00  0.00    +0.051 C 
ATOM      7  C   LIG    1       -4.790   2.599   3.099  0.00  0.00    +0.030 A 
ATOM      8  C   LIG    1       -4.033   1.789   2.327  0.00  0.00    +0.101 A 
ATOM      9  N   LIG    1       -2.951   2.302   1.665  0.00  0.00    -0.274 N 
ATOM     10  C   LIG    1       -2.631   3.603   1.779  0.00  0.00    +0.331 A 
ATOM     11  N   LIG    1       -3.371   4.434   2.538  0.00  0.00    -0.275 N 
ATOM     12  H   LIG    1       -3.123   5.400   2.605  0.00  0.00    +0.173 HD
ATOM     13  O   LIG    1       -1.663   4.037   1.185  0.00  0.00    -0.246 OA
ATOM     14  C   LIG    1       -4.444   3.968   3.207  0.00  0.00    +0.257 A 
ATOM     15  O   LIG    1       -5.111   4.717   3.897  0.00  0.00    -0.267 OA
ENDBRANCH   1   9
BRANCH   3  16
ATOM     16  O   LIG    1       -0.244   2.850  -1.668  0.00  0.00    -0.389 OA
ATOM     17  H   LIG    1       -0.703   3.231  -2.429  0.00  0.00    +0.210 HD
ENDBRANCH   3  16
BRANCH   4  18
ATOM     18  C   LIG    1        1.415   1.637  -0.003  0.00  0.00    +0.206 C 
BRANCH  18  19
ATOM     19  O   LIG    1        2.152   1.069   1.081  0.00  0.00    -0.284 OA
BRANCH  19  20
ATOM     20  P   LIG    1        3.695   1.426   1.375  0.00  0.00    +0.472 P 
ATOM     21  O   LIG    1        3.845   2.893   1.510  0.00  0.00    -0.228 OA
BRANCH  20  22
ATOM     22  O   LIG    1        4.608   0.904   0.155  0.00  0.00    -0.303 OA
ATOM     23  H   LIG    1        4.327   1.335  -0.667  0.00  0.00    +0.222 HD
ENDBRANCH  20  22
BRANCH  20  24
ATOM     24  O   LIG    1        4.161   0.711   2.739  0.00  0.00    -0.303 OA
ATOM     25  H   LIG    1        3.611   1.026   3.474  0.00  0.00    +0.222 HD
ENDBRANCH  20  24
ENDBRANCH  19  20
ENDBRANCH  18  19
ENDBRANCH   4  18
TORSDOF 7
