REMARK  Name = ZINC13125932
REMARK                            x       y       z     vdW  Elec       q    Type
REMARK                         _______ _______ _______ _____ _____    ______ ____
ROOT
ATOM      1  O   LIG    1        0.701  -4.075   0.353  0.00  0.00    -0.461 OA
ENDROOT
BRANCH   1   7
ATOM      2  C   LIG    1       -0.022   1.458  -0.133  0.00  0.00    -0.091 C 
ATOM      3  N   LIG    1        0.002  -0.004   0.002  0.00  0.00    +0.384 N 
ATOM      4  C   LIG    1       -1.364  -0.540   0.062  0.00  0.00    -0.091 C 
ATOM      5  C   LIG    1        0.761  -0.621  -1.118  0.00  0.00    -0.030 C 
ATOM      6  C   LIG    1        0.493  -2.134  -1.072  0.00  0.00    +0.032 C 
ATOM      7  C   LIG    1        1.063  -2.698   0.233  0.00  0.00    +0.174 C 
ATOM      8  C   LIG    1        0.500  -1.917   1.423  0.00  0.00    +0.032 C 
ATOM      9  C   LIG    1        2.243  -0.378  -0.753  0.00  0.00    +0.133 C 
ATOM     10  O   LIG    1        2.584   0.865  -0.066  0.00  0.00    -0.372 OA
ATOM     11  C   LIG    1        2.253  -0.236   0.784  0.00  0.00    +0.133 C 
ATOM     12  C   LIG    1        0.776  -0.406   1.207  0.00  0.00    -0.030 C 
ENDBRANCH   1   7
BRANCH   1  13
ATOM     13  C   LIG    1        1.549  -4.872   1.022  0.00  0.00    +0.317 C 
ATOM     14  O   LIG    1        2.565  -4.415   1.490  0.00  0.00    -0.250 OA
BRANCH  13  15
ATOM     15  C   LIG    1        1.234  -6.336   1.190  0.00  0.00    +0.153 C 
BRANCH  15  16
ATOM     16  C   LIG    1        2.337  -7.001   1.972  0.00  0.00    -0.032 A 
ATOM     17  C   LIG    1        2.626  -6.577   3.256  0.00  0.00    +0.004 A 
ATOM     18  C   LIG    1        3.638  -7.187   3.974  0.00  0.00    +0.000 A 
ATOM     19  C   LIG    1        4.360  -8.221   3.408  0.00  0.00    +0.000 A 
ATOM     20  C   LIG    1        4.071  -8.645   2.125  0.00  0.00    +0.000 A 
ATOM     21  C   LIG    1        3.056  -8.038   1.409  0.00  0.00    +0.004 A 
ENDBRANCH  15  16
BRANCH  15  22
ATOM     22  C   LIG    1       -0.089  -6.490   1.942  0.00  0.00    +0.175 C 
BRANCH  22  23
ATOM     23  O   LIG    1       -1.153  -5.963   1.147  0.00  0.00    -0.394 OA
ATOM     24  H   LIG    1       -2.024  -6.027   1.563  0.00  0.00    +0.209 HD
ENDBRANCH  22  23
ENDBRANCH  15  22
ENDBRANCH  13  15
ENDBRANCH   1  13
TORSDOF 6
