REMARK  Name = ZINC13108134
REMARK                            x       y       z     vdW  Elec       q    Type
REMARK                         _______ _______ _______ _____ _____    ______ ____
ROOT
ATOM      1  C   LIG    1        1.718   3.206  -0.001  0.00  0.00    +0.040 C 
ATOM      2  C   LIG    1        1.976   3.666  -1.438  0.00  0.00    +0.028 C 
ATOM      3  C   LIG    1        2.412   5.134  -1.430  0.00  0.00    +0.107 C 
ATOM      4  N   LIG    1        3.567   5.279  -0.533  0.00  0.00    -0.313 N 
ATOM      5  C   LIG    1        3.456   4.787   0.847  0.00  0.00    +0.107 C 
ATOM      6  C   LIG    1        3.008   3.322   0.813  0.00  0.00    +0.028 C 
ENDROOT
BRANCH   1   8
ATOM      7  C   LIG    1       -0.020   1.339   0.002  0.00  0.00    +0.105 A 
ATOM      8  C   LIG    1        1.255   1.772  -0.008  0.00  0.00    +0.036 A 
ATOM      9  N   LIG    1        2.051   0.658  -0.027  0.00  0.00    -0.350 N 
ATOM     10  C   LIG    1        1.234  -0.417  -0.027  0.00  0.00    +0.171 A 
ATOM     11  H   LIG    1        3.021   0.644  -0.038  0.00  0.00    +0.166 HD
ATOM     12  N   LIG    1       -0.003  -0.002  -0.009  0.00  0.00    -0.352 N 
ATOM     13  H   LIG    1       -0.787  -0.573  -0.005  0.00  0.00    +0.166 HD
ENDBRANCH   1   8
BRANCH   4  14
ATOM     14  C   LIG    1        4.707   5.853  -0.968  0.00  0.00    +0.133 C 
ATOM     15  S   LIG    1        4.867   6.299  -2.613  0.00  0.00    -0.019 S 
BRANCH  14  16
ATOM     16  N   LIG    1        5.720   6.075  -0.108  0.00  0.00    -0.324 N 
ATOM     17  H   LIG    1        5.658   5.758   0.807  0.00  0.00    +0.148 HD
BRANCH  16  18
ATOM     18  C   LIG    1        6.914   6.797  -0.554  0.00  0.00    +0.072 C 
ATOM     19  C   LIG    1        6.675   8.303  -0.433  0.00  0.00    +0.022 C 
ATOM     20  C   LIG    1        7.923   9.057  -0.898  0.00  0.00    +0.002 C 
ATOM     21  C   LIG    1        9.115   8.658  -0.026  0.00  0.00    +0.000 C 
ATOM     22  C   LIG    1        9.354   7.152  -0.147  0.00  0.00    +0.002 C 
ATOM     23  C   LIG    1        8.106   6.398   0.318  0.00  0.00    +0.022 C 
ENDBRANCH  16  18
ENDBRANCH  14  16
ENDBRANCH   4  14
TORSDOF 4
