REMARK  Name = ZINC13543148
REMARK                            x       y       z     vdW  Elec       q    Type
REMARK                         _______ _______ _______ _____ _____    ______ ____
ROOT
ATOM      1  C   LIG    1       -1.236   2.027   0.019  0.00  0.00    +0.046 A 
ATOM      2  C   LIG    1       -1.270   3.392   0.031  0.00  0.00    +0.019 A 
ATOM      3  C   LIG    1       -0.076   4.114   0.024  0.00  0.00    +0.064 A 
ATOM      4  C   LIG    1       -0.073   5.588   0.031  0.00  0.00    +0.193 A 
ATOM      5  C   LIG    1        1.241   6.250   0.021  0.00  0.00    +0.105 A 
ATOM      6  C   LIG    1        2.357   5.484   0.007  0.00  0.00    +0.215 A 
ATOM      7  O   LIG    1        2.313   4.143   0.001  0.00  0.00    -0.448 OA
ATOM      8  O   LIG    1       -1.110   6.228   0.043  0.00  0.00    -0.287 OA
ATOM      9  C   LIG    1        1.161   3.443   0.009  0.00  0.00    +0.143 A 
ATOM     10  C   LIG    1        1.177   2.055   0.002  0.00  0.00    +0.092 A 
ATOM     11  C   LIG    1       -0.016   1.353   0.009  0.00  0.00    +0.120 A 
ENDROOT
BRANCH   6  12
ATOM     12  C   LIG    1        3.679   6.152  -0.002  0.00  0.00    +0.373 C 
ATOM     13  O   LIG    1        3.746   7.364   0.003  0.00  0.00    -0.242 OA
BRANCH  12  14
ATOM     14  O   LIG    1        4.806   5.415  -0.016  0.00  0.00    -0.475 OA
ATOM     15  H   LIG    1        4.754   4.479  -0.019  0.00  0.00    +0.296 HD
ENDBRANCH  12  14
ENDBRANCH   6  12
BRANCH  11  16
ATOM     16  O   LIG    1        0.002  -0.004   0.002  0.00  0.00    -0.507 OA
ATOM     17  H   LIG    1        0.016  -0.402   0.883  0.00  0.00    +0.292 HD
ENDBRANCH  11  16
TORSDOF 3
