REMARK  Name = ZINC13130015
REMARK                            x       y       z     vdW  Elec       q    Type
REMARK                         _______ _______ _______ _____ _____    ______ ____
ROOT
ATOM      1  C   LIG    1       -0.014   1.395  -0.169  0.00  0.00    +0.024 C 
ATOM      2  C   LIG    1        1.131   2.123  -0.116  0.00  0.00    +0.021 C 
ATOM      3  C   LIG    1        2.387   1.496  -0.071  0.00  0.00    +0.063 C 
ATOM      4  C   LIG    1        2.462   0.084  -0.082  0.00  0.00    +0.046 C 
ATOM      5  C   LIG    1        3.732  -0.524  -0.037  0.00  0.00    +0.126 C 
ATOM      6  N   LIG    1        4.804   0.257   0.014  0.00  0.00    -0.274 NA
ATOM      7  H   LIG    1        5.372   0.020  -0.799  0.00  0.00    +0.126 HD
ATOM      8  C   LIG    1        4.693   1.581   0.023  0.00  0.00    +0.193 C 
ATOM      9  C   LIG    1        1.228  -0.687  -0.140  0.00  0.00    +0.040 C 
ATOM     10  C   LIG    1        0.927  -2.069  -0.166  0.00  0.00    -0.006 C 
ATOM     11  C   LIG    1       -0.411  -2.197  -0.221  0.00  0.00    +0.063 C 
ATOM     12  N   LIG    1       -0.987  -0.958  -0.232  0.00  0.00    -0.346 N 
ATOM     13  H   LIG    1       -1.940  -0.780  -0.270  0.00  0.00    +0.146 HD
ATOM     14  N   LIG    1        3.528   2.200  -0.018  0.00  0.00    -0.286 NA
ATOM     15  H   LIG    1        3.496   3.169  -0.010  0.00  0.00    +0.125 HD
ATOM     16  C   LIG    1        0.005  -0.003  -0.182  0.00  0.00    +0.077 C 
ENDROOT
BRANCH   5  17
ATOM     17  N   LIG    1        3.859  -1.899  -0.045  0.00  0.00    -0.315 NA
ATOM     18  H   LIG    1        4.665  -2.314   0.300  0.00  0.00    +0.120 HD
ATOM     19  H   LIG    1        3.142  -2.450  -0.396  0.00  0.00    +0.120 HD
ENDBRANCH   5  17
BRANCH   8  20
ATOM     20  N   LIG    1        5.847   2.344   0.077  0.00  0.00    -0.303 NA
ATOM     21  H   LIG    1        5.789   3.312   0.085  0.00  0.00    +0.121 HD
ATOM     22  H   LIG    1        6.714   1.909   0.108  0.00  0.00    +0.121 HD
ENDBRANCH   8  20
TORSDOF 2
