REMARK  Name = ZINC13343438
REMARK                            x       y       z     vdW  Elec       q    Type
REMARK                         _______ _______ _______ _____ _____    ______ ____
ROOT
ATOM      1  C   LIG    1        2.443   3.214  -0.005  0.00  0.00    +0.028 C 
ATOM      2  C   LIG    1        1.809   2.060  -0.335  0.00  0.00    +0.077 C 
ATOM      3  C   LIG    1        2.350   0.692  -0.463  0.00  0.00    +0.258 C 
ATOM      4  N   LIG    1        1.492  -0.255  -0.803  0.00  0.00    -0.255 N 
ATOM      5  C   LIG    1        0.190   0.020  -1.022  0.00  0.00    +0.121 C 
ATOM      6  S   LIG    1       -1.064  -1.058  -1.467  0.00  0.00    -0.027 S 
ATOM      7  O   LIG    1        3.526   0.449  -0.265  0.00  0.00    -0.269 OA
ATOM      8  S   LIG    1        0.090   1.779  -0.735  0.00  0.00    -0.061 S 
ENDROOT
BRANCH   1  12
ATOM      9  C   LIG    1        0.394   6.917  -0.286  0.00  0.00    +0.134 A 
ATOM     10  C   LIG    1        1.650   6.863   0.308  0.00  0.00    +0.047 A 
ATOM     11  C   LIG    1        2.319   5.664   0.402  0.00  0.00    +0.011 A 
ATOM     12  C   LIG    1        1.734   4.496  -0.102  0.00  0.00    -0.023 A 
ATOM     13  C   LIG    1        0.471   4.556  -0.706  0.00  0.00    +0.027 A 
ATOM     14  C   LIG    1       -0.192   5.760  -0.789  0.00  0.00    +0.060 A 
ATOM     15 BR   LIG    1       -1.900   5.843  -1.597  0.00  0.00    -0.047 Br
BRANCH   9  17
ATOM     16  C   LIG    1        0.398   9.251   0.159  0.00  0.00    +0.277 C 
ATOM     17  O   LIG    1       -0.261   8.102  -0.377  0.00  0.00    -0.494 OA
ENDBRANCH   9  17
ENDBRANCH   1  12
BRANCH   4  18
ATOM     18  C   LIG    1        1.967  -1.633  -0.946  0.00  0.00    +0.126 C 
BRANCH  18  19
ATOM     19  C   LIG    1        2.417  -1.871  -2.389  0.00  0.00    +0.140 C 
BRANCH  19  20
ATOM     20  C   LIG    1        2.906  -3.289  -2.536  0.00  0.00    +0.306 C 
ATOM     21  O   LIG    1        2.895  -4.033  -1.584  0.00  0.00    -0.251 OA
BRANCH  20  22
ATOM     22  O   LIG    1        3.353  -3.725  -3.724  0.00  0.00    -0.481 OA
ATOM     23  H   LIG    1        3.362  -3.147  -4.462  0.00  0.00    +0.295 HD
ENDBRANCH  20  22
ENDBRANCH  19  20
ENDBRANCH  18  19
ENDBRANCH   4  18
TORSDOF 6
