REMARK  Name = ZINC13531885
REMARK                            x       y       z     vdW  Elec       q    Type
REMARK                         _______ _______ _______ _____ _____    ______ ____
ROOT
ATOM      1  N   LIG    1        1.129  -0.673  -0.086  0.00  0.00    -0.269 N 
ATOM      2  H   LIG    1        1.988  -0.220  -0.098  0.00  0.00    +0.156 HD
ATOM      3  C   LIG    1       -0.008   0.043   0.023  0.00  0.00    +0.308 C 
ATOM      4  N   LIG    1        0.040   1.389   0.018  0.00  0.00    -0.268 N 
ATOM      5  H   LIG    1        0.897   1.844   0.017  0.00  0.00    +0.156 HD
ATOM      6  O   LIG    1       -1.077  -0.527   0.126  0.00  0.00    -0.252 OA
ENDROOT
BRANCH   1  13
ATOM      7  C   LIG    1        0.101  -2.774   0.516  0.00  0.00    +0.024 A 
ATOM      8  C   LIG    1        0.044  -4.150   0.416  0.00  0.00    +0.016 A 
ATOM      9  C   LIG    1        0.960  -4.826  -0.369  0.00  0.00    +0.013 A 
ATOM     10  I   LIG    1        0.875  -6.915  -0.512  0.00  0.00    -0.044 I 
ATOM     11  C   LIG    1        1.932  -4.126  -1.062  0.00  0.00    +0.016 A 
ATOM     12  C   LIG    1        1.990  -2.749  -0.970  0.00  0.00    +0.024 A 
ATOM     13  C   LIG    1        1.072  -2.068  -0.181  0.00  0.00    +0.035 A 
ENDBRANCH   1  13
BRANCH   4  14
ATOM     14  C   LIG    1       -1.140   2.128   0.009  0.00  0.00    +0.050 A 
ATOM     15  C   LIG    1       -2.304   1.576  -0.507  0.00  0.00    +0.044 A 
ATOM     16  C   LIG    1       -3.475   2.308  -0.510  0.00  0.00    +0.043 A 
ATOM     17 CL   LIG    1       -4.929   1.609  -1.152  0.00  0.00    -0.083 Cl
ATOM     18  C   LIG    1       -3.496   3.602  -0.009  0.00  0.00    +0.021 A 
ATOM     19  C   LIG    1       -2.349   4.168   0.501  0.00  0.00    +0.018 A 
ATOM     20  C   LIG    1       -1.157   3.437   0.516  0.00  0.00    +0.080 A 
BRANCH  20  21
ATOM     21  C   LIG    1        0.073   4.036   1.062  0.00  0.00    +0.339 C 
ATOM     22  O   LIG    1        1.125   3.433   0.992  0.00  0.00    -0.245 OA
BRANCH  21  23
ATOM     23  O   LIG    1        0.031   5.253   1.639  0.00  0.00    -0.477 OA
ATOM     24  H   LIG    1       -0.781   5.718   1.693  0.00  0.00    +0.295 HD
ENDBRANCH  21  23
ENDBRANCH  20  21
ENDBRANCH   4  14
TORSDOF 4
