REMARK  Name = ZINC13519013
REMARK                            x       y       z     vdW  Elec       q    Type
REMARK                         _______ _______ _______ _____ _____    ______ ____
ROOT
ATOM      1  C   LIG    1        1.317   0.779  -0.006  0.00  0.00    +0.040 C 
ATOM      2  C   LIG    1       -0.019   1.526   0.010  0.00  0.00    +0.014 C 
ATOM      3  C   LIG    1        0.002  -0.004   0.002  0.00  0.00    -0.003 C 
ENDROOT
BRANCH   1   5
ATOM      4  C   LIG    1        1.972   1.622   2.302  0.00  0.00    +0.105 A 
ATOM      5  C   LIG    1        2.132   0.783   1.261  0.00  0.00    +0.036 A 
ATOM      6  N   LIG    1        3.148  -0.043   1.548  0.00  0.00    -0.350 N 
ATOM      7  H   LIG    1        3.499  -0.788   0.934  0.00  0.00    +0.166 HD
ATOM      8  C   LIG    1        3.620   0.246   2.728  0.00  0.00    +0.171 A 
ATOM      9  N   LIG    1        2.912   1.278   3.236  0.00  0.00    -0.352 N 
ATOM     10  H   LIG    1        3.049   1.710   4.127  0.00  0.00    +0.166 HD
ENDBRANCH   1   5
BRANCH   3  11
ATOM     11  C   LIG    1       -0.384  -0.723   1.296  0.00  0.00    -0.016 C 
BRANCH  11  12
ATOM     12  C   LIG    1       -1.655  -1.543   1.064  0.00  0.00    -0.086 C 
BRANCH  12  13
ATOM     13  N   LIG    1       -2.005  -2.248   2.310  0.00  0.00    +0.378 N 
ATOM     14  H   LIG    1       -1.245  -2.891   2.559  0.00  0.00    -0.090 HD
ATOM     15  H   LIG    1       -2.863  -2.783   2.179  0.00  0.00    -0.090 HD
ATOM     16  H   LIG    1       -2.136  -1.578   3.066  0.00  0.00    -0.090 HD
ENDBRANCH  12  13
ENDBRANCH  11  12
ENDBRANCH   3  11
TORSDOF 4
