REMARK  Name = ZINC13473554
REMARK                            x       y       z     vdW  Elec       q    Type
REMARK                         _______ _______ _______ _____ _____    ______ ____
ROOT
ATOM      1  C   LIG    1        0.660  -0.620  -1.332  0.00  0.00    +0.332 C 
ATOM      2  N   LIG    1        1.162  -0.178  -2.458  0.00  0.00    -0.177 N 
ATOM      3  H   LIG    1        1.268  -0.780  -3.211  0.00  0.00    +0.336 HD
ENDROOT
BRANCH   1   5
ATOM      4  C   LIG    1        0.226  -0.343   1.147  0.00  0.00    +0.100 C 
ATOM      5  C   LIG    1        0.633   0.218  -0.191  0.00  0.00    +0.241 C 
ATOM      6  O   LIG    1        0.938   1.389  -0.291  0.00  0.00    -0.285 OA
ENDBRANCH   1   5
BRANCH   2   7
ATOM      7  N   LIG    1        1.547   1.164  -2.574  0.00  0.00    -0.189 N 
ATOM      8  H   LIG    1        1.535   1.741  -1.794  0.00  0.00    +0.196 HD
BRANCH   7   9
ATOM      9  C   LIG    1        1.946   1.670  -3.811  0.00  0.00    +0.066 A 
ATOM     10  C   LIG    1        1.958   0.846  -4.930  0.00  0.00    +0.026 A 
ATOM     11  C   LIG    1        2.354   1.351  -6.153  0.00  0.00    +0.002 A 
ATOM     12  C   LIG    1        2.738   2.674  -6.265  0.00  0.00    +0.000 A 
ATOM     13  C   LIG    1        2.728   3.497  -5.153  0.00  0.00    +0.002 A 
ATOM     14  C   LIG    1        2.328   3.001  -3.928  0.00  0.00    +0.026 A 
ENDBRANCH   7   9
ENDBRANCH   2   7
BRANCH   1  15
ATOM     15  N   LIG    1        0.149  -1.922  -1.256  0.00  0.00    -0.199 N 
ATOM     16  H   LIG    1       -0.303  -2.220  -0.451  0.00  0.00    +0.298 HD
BRANCH  15  17
ATOM     17  C   LIG    1        0.290  -2.792  -2.339  0.00  0.00    +0.120 A 
ATOM     18  C   LIG    1        1.486  -2.833  -3.048  0.00  0.00    +0.049 A 
ATOM     19  C   LIG    1        1.623  -3.694  -4.118  0.00  0.00    +0.005 A 
ATOM     20  C   LIG    1        0.573  -4.515  -4.487  0.00  0.00    +0.020 A 
ATOM     21  C   LIG    1       -0.619  -4.476  -3.785  0.00  0.00    +0.045 A 
ATOM     22 CL   LIG    1       -1.935  -5.508  -4.252  0.00  0.00    -0.083 Cl
ATOM     23  C   LIG    1       -0.761  -3.621  -2.708  0.00  0.00    +0.069 A 
ENDBRANCH  15  17
ENDBRANCH   1  15
TORSDOF 5
