REMARK  Name = ZINC13444091
REMARK                            x       y       z     vdW  Elec       q    Type
REMARK                         _______ _______ _______ _____ _____    ______ ____
ROOT
ATOM      1  C   LIG    1       -1.215   1.770   0.017  0.00  0.00    -0.043 A 
ATOM      2  C   LIG    1       -0.013   1.076   0.008  0.00  0.00    +0.009 A 
ATOM      3  C   LIG    1        1.167   1.800   0.001  0.00  0.00    +0.067 A 
ATOM      4  C   LIG    1        1.108   3.188   0.009  0.00  0.00    +0.214 A 
ATOM      5  N   LIG    1       -0.057   3.813   0.023  0.00  0.00    -0.221 NA
ATOM      6  C   LIG    1       -1.198   3.150   0.030  0.00  0.00    +0.116 A 
ENDROOT
BRANCH   1  10
ATOM      7  C   LIG    1       -3.374   1.455   2.260  0.00  0.00    -0.095 C 
ATOM      8  N   LIG    1       -3.536   1.734   0.798  0.00  0.00    +0.382 N 
ATOM      9  H   LIG    1       -3.458   2.744   0.636  0.00  0.00    -0.081 HD
ATOM     10  C   LIG    1       -2.525   1.024   0.019  0.00  0.00    -0.037 C 
ATOM     11  C   LIG    1       -3.123   0.984  -1.404  0.00  0.00    -0.013 C 
ATOM     12  C   LIG    1       -4.645   1.132  -1.202  0.00  0.00    -0.020 C 
ATOM     13  C   LIG    1       -4.838   1.250   0.325  0.00  0.00    -0.078 C 
ENDBRANCH   1  10
BRANCH   4  14
ATOM     14  O   LIG    1        2.257   3.909   0.002  0.00  0.00    -0.480 OA
ATOM     15  C   LIG    1        2.130   5.332   0.011  0.00  0.00    +0.279 C 
ENDBRANCH   4  14
TORSDOF 2
