REMARK  Name = ZINC13000556
REMARK                            x       y       z     vdW  Elec       q    Type
REMARK                         _______ _______ _______ _____ _____    ______ ____
ROOT
ATOM      1  C   LIG    1        1.319   2.091  -0.016  0.00  0.00    +0.188 C 
ATOM      2  C   LIG    1        2.243   1.363  -0.959  0.00  0.00    +0.008 A 
ATOM      3  C   LIG    1        3.459   1.967  -1.307  0.00  0.00    +0.035 A 
ATOM      4  C   LIG    1        4.340   1.319  -2.145  0.00  0.00    +0.071 A 
ATOM      5  N   LIG    1        4.027   0.083  -2.637  0.00  0.00    -0.302 N 
ATOM      6  C   LIG    1        5.129  -0.375  -3.492  0.00  0.00    +0.162 C 
ATOM      7  C   LIG    1        6.166   0.718  -3.478  0.00  0.00    +0.000 A 
ATOM      8  C   LIG    1        7.380   0.848  -4.080  0.00  0.00    +0.019 A 
ATOM      9  C   LIG    1        8.113   2.027  -3.848  0.00  0.00    +0.022 A 
ATOM     10  C   LIG    1        9.378   2.230  -4.436  0.00  0.00    +0.043 A 
ATOM     11  C   LIG    1       10.062   3.400  -4.181  0.00  0.00    +0.024 A 
ATOM     12  C   LIG    1        9.516   4.375  -3.352  0.00  0.00    +0.004 A 
ATOM     13  C   LIG    1        8.296   4.205  -2.772  0.00  0.00    +0.028 A 
ATOM     14  C   LIG    1        7.563   3.027  -3.006  0.00  0.00    +0.074 A 
ATOM     15  N   LIG    1        6.367   2.845  -2.445  0.00  0.00    -0.245 NA
ATOM     16  C   LIG    1        2.861  -0.507  -2.311  0.00  0.00    +0.259 A 
ATOM     17  O   LIG    1        2.601  -1.613  -2.755  0.00  0.00    -0.267 OA
ATOM     18  C   LIG    1        5.668   1.740  -2.653  0.00  0.00    +0.093 A 
ATOM     19  C   LIG    1        1.936   0.139  -1.463  0.00  0.00    +0.061 A 
ATOM     20  C   LIG    1        0.639  -0.561  -1.152  0.00  0.00    +0.273 C 
ATOM     21  O   LIG    1       -0.004   0.042   0.001  0.00  0.00    -0.457 OA
ATOM     22  C   LIG    1       -0.022   1.394  -0.002  0.00  0.00    +0.344 C 
ATOM     23  O   LIG    1       -1.059   2.014  -0.000  0.00  0.00    -0.247 OA
ENDROOT
BRANCH  10  24
ATOM     24  N   LIG    1        9.932   1.257  -5.268  0.00  0.00    -0.287 N 
ATOM     25  H   LIG    1        9.355   0.632  -5.734  0.00  0.00    +0.155 HD
ATOM     26  C   LIG    1       11.269   1.185  -5.423  0.00  0.00    +0.200 C 
ATOM     27  O   LIG    1       11.995   1.899  -4.765  0.00  0.00    -0.278 OA
BRANCH  26  28
ATOM     28  C   LIG    1       11.861   0.217  -6.415  0.00  0.00    +0.011 C 
BRANCH  28  29
ATOM     29  N   LIG    1       13.330   0.325  -6.372  0.00  0.00    +0.384 N 
ATOM     30  H   LIG    1       13.659   0.070  -5.434  0.00  0.00    -0.089 HD
ATOM     31  H   LIG    1       13.617   1.280  -6.577  0.00  0.00    -0.089 HD
ATOM     32  H   LIG    1       13.746  -0.308  -7.054  0.00  0.00    -0.089 HD
ENDBRANCH  28  29
ENDBRANCH  26  28
ENDBRANCH  10  24
BRANCH   1  34
ATOM     33  C   LIG    1        0.915   2.701   2.374  0.00  0.00    +0.007 C 
ATOM     34  C   LIG    1        1.914   2.082   1.394  0.00  0.00    +0.048 C 
ENDBRANCH   1  34
BRANCH   1  35
ATOM     35  O   LIG    1        1.151   3.440  -0.457  0.00  0.00    -0.373 OA
ATOM     36  H   LIG    1        0.562   3.966   0.101  0.00  0.00    +0.211 HD
ENDBRANCH   1  35
TORSDOF 5
