REMARK  Name = ZINC13493833
REMARK                            x       y       z     vdW  Elec       q    Type
REMARK                         _______ _______ _______ _____ _____    ______ ____
ROOT
ATOM      1  C   LIG    1       -1.455   2.494  -2.466  0.00  0.00    +0.047 C 
ATOM      2  C   LIG    1       -1.983   2.466  -1.055  0.00  0.00    -0.013 A 
ATOM      3  C   LIG    1       -3.205   2.944  -0.623  0.00  0.00    +0.044 A 
ATOM      4  N   LIG    1       -3.291   2.729   0.737  0.00  0.00    -0.358 N 
ATOM      5  C   LIG    1       -2.167   2.128   1.162  0.00  0.00    +0.026 A 
ATOM      6  C   LIG    1       -1.871   1.723   2.583  0.00  0.00    +0.064 C 
ATOM      7  H   LIG    1       -4.044   2.972   1.298  0.00  0.00    +0.166 HD
ATOM      8  C   LIG    1       -1.326   1.942   0.079  0.00  0.00    +0.060 A 
ENDROOT
BRANCH   3   9
ATOM      9  C   LIG    1       -4.190   3.553  -1.431  0.00  0.00    +0.039 C 
ATOM     10  C   LIG    1       -4.971   4.569  -0.918  0.00  0.00    +0.048 C 
ATOM     11  C   LIG    1       -6.137   5.218  -1.558  0.00  0.00    +0.011 A 
ATOM     12  C   LIG    1       -6.786   5.028  -2.774  0.00  0.00    +0.048 A 
ATOM     13  C   LIG    1       -7.883   5.806  -3.095  0.00  0.00    +0.124 A 
ATOM     14  F   LIG    1       -8.512   5.630  -4.277  0.00  0.00    -0.205 F 
ATOM     15  C   LIG    1       -8.337   6.766  -2.203  0.00  0.00    +0.040 A 
ATOM     16  C   LIG    1       -7.703   6.957  -0.992  0.00  0.00    +0.027 A 
ATOM     17  C   LIG    1       -6.598   6.184  -0.653  0.00  0.00    +0.042 A 
ATOM     18  N   LIG    1       -5.790   6.171   0.479  0.00  0.00    -0.281 N 
ATOM     19  H   LIG    1       -5.911   6.755   1.244  0.00  0.00    +0.155 HD
ATOM     20  C   LIG    1       -4.822   5.245   0.378  0.00  0.00    +0.249 C 
ATOM     21  O   LIG    1       -3.969   5.007   1.215  0.00  0.00    -0.270 OA
ENDBRANCH   3   9
BRANCH   8  22
ATOM     22  C   LIG    1        0.009   1.319   0.106  0.00  0.00    +0.246 C 
ATOM     23  N   LIG    1        1.104   2.079   0.308  0.00  0.00    -0.313 N 
ATOM     24  H   LIG    1        1.012   3.035   0.441  0.00  0.00    +0.149 HD
ATOM     25  O   LIG    1        0.124   0.119  -0.060  0.00  0.00    -0.270 OA
BRANCH  23  26
ATOM     26  C   LIG    1        2.432   1.460   0.329  0.00  0.00    +0.086 C 
BRANCH  26  27
ATOM     27  C   LIG    1        3.492   2.535   0.575  0.00  0.00    -0.061 C 
BRANCH  27  28
ATOM     28  N   LIG    1        4.826   1.899   0.571  0.00  0.00    +0.377 N 
ATOM     29  H   LIG    1        4.926   1.339  -0.283  0.00  0.00    -0.083 HD
ATOM     30  C   LIG    1        4.966   1.014   1.746  0.00  0.00    -0.097 C 
ATOM     31  C   LIG    1        5.880   2.936   0.592  0.00  0.00    -0.097 C 
ENDBRANCH  27  28
ENDBRANCH  26  27
ENDBRANCH  23  26
ENDBRANCH   8  22
TORSDOF 5
