REMARK  Name = ZINC13523524
REMARK                            x       y       z     vdW  Elec       q    Type
REMARK                         _______ _______ _______ _____ _____    ______ ____
ROOT
ATOM      1  C   LIG    1        2.700   3.418   1.176  0.00  0.00    +0.165 C 
ENDROOT
BRANCH   1   2
ATOM      2  C   LIG    1        3.079   4.875   1.253  0.00  0.00    +0.237 C 
ATOM      3  N   LIG    1        2.126   5.811   1.433  0.00  0.00    -0.288 N 
ATOM      4  C   LIG    1        0.682   5.550   1.576  0.00  0.00    +0.109 C 
ATOM      5  C   LIG    1        0.134   6.774   2.352  0.00  0.00    +0.021 C 
ATOM      6  C   LIG    1        0.983   7.927   1.755  0.00  0.00    +0.033 C 
ATOM      7  C   LIG    1        2.356   7.260   1.526  0.00  0.00    +0.162 C 
ATOM      8  O   LIG    1        4.242   5.205   1.153  0.00  0.00    -0.274 OA
BRANCH   7   9
ATOM      9  C   LIG    1        3.274   7.561   2.682  0.00  0.00    +0.231 C 
ATOM     10  N   LIG    1        3.621   8.835   2.953  0.00  0.00    -0.328 N 
ATOM     11  H   LIG    1        4.212   9.028   3.697  0.00  0.00    +0.145 HD
ATOM     12  H   LIG    1        3.279   9.558   2.404  0.00  0.00    +0.145 HD
ATOM     13  O   LIG    1        3.701   6.657   3.368  0.00  0.00    -0.274 OA
ENDBRANCH   7   9
ENDBRANCH   1   2
BRANCH   1  14
ATOM     14  N   LIG    1        3.905   2.609   0.979  0.00  0.00    -0.302 N 
ATOM     15  H   LIG    1        4.691   3.002   0.567  0.00  0.00    +0.150 HD
ATOM     16  C   LIG    1        3.923   1.320   1.370  0.00  0.00    +0.234 C 
ATOM     17  O   LIG    1        2.941   0.829   1.886  0.00  0.00    -0.274 OA
BRANCH  16  18
ATOM     18  C   LIG    1        5.163   0.488   1.167  0.00  0.00    +0.159 C 
ATOM     19  C   LIG    1        5.226  -0.032  -0.286  0.00  0.00    +0.041 C 
ATOM     20  C   LIG    1        4.557  -1.419  -0.154  0.00  0.00    +0.098 C 
ATOM     21  C   LIG    1        4.770  -1.798   1.295  0.00  0.00    +0.214 C 
ATOM     22  O   LIG    1        4.648  -2.917   1.746  0.00  0.00    -0.276 OA
ATOM     23  N   LIG    1        5.114  -0.712   2.012  0.00  0.00    -0.304 N 
ATOM     24  H   LIG    1        5.305  -0.719   2.963  0.00  0.00    +0.149 HD
ENDBRANCH  16  18
ENDBRANCH   1  14
BRANCH   1  25
ATOM     25  C   LIG    1        1.743   3.202   0.003  0.00  0.00    +0.088 C 
BRANCH  25  27
ATOM     26  C   LIG    1       -0.017   1.365   0.009  0.00  0.00    +0.107 A 
ATOM     27  C   LIG    1        1.267   1.772  -0.001  0.00  0.00    +0.061 A 
ATOM     28  N   LIG    1        2.048   0.681  -0.014  0.00  0.00    -0.241 NA
ATOM     29  C   LIG    1        1.297  -0.386  -0.012  0.00  0.00    +0.196 A 
ATOM     30  N   LIG    1        0.002  -0.004   0.002  0.00  0.00    -0.351 N 
ATOM     31  H   LIG    1       -0.771  -0.590   0.006  0.00  0.00    +0.166 HD
ENDBRANCH  25  27
ENDBRANCH   1  25
TORSDOF 6
