REMARK  Name = ZINC13529975
REMARK                            x       y       z     vdW  Elec       q    Type
REMARK                         _______ _______ _______ _____ _____    ______ ____
ROOT
ATOM      1  C   LIG    1        0.132   5.016  -0.908  0.00  0.00    +0.001 A 
ATOM      2  C   LIG    1        1.355   5.657  -1.016  0.00  0.00    +0.004 A 
ATOM      3  C   LIG    1        2.524   4.987  -0.718  0.00  0.00    +0.047 A 
ATOM      4  C   LIG    1        2.481   3.664  -0.303  0.00  0.00    +0.142 A 
ATOM      5  C   LIG    1        1.245   3.010  -0.197  0.00  0.00    +0.101 A 
ATOM      6  C   LIG    1        0.070   3.701  -0.501  0.00  0.00    +0.018 A 
ENDROOT
BRANCH   5   7
ATOM      7  C   LIG    1        1.187   1.603   0.239  0.00  0.00    +0.340 C 
ATOM      8  O   LIG    1        2.211   1.005   0.503  0.00  0.00    -0.245 OA
BRANCH   7   9
ATOM      9  O   LIG    1       -0.004   0.979   0.345  0.00  0.00    -0.477 OA
ATOM     10  H   LIG    1       -0.794   1.440   0.141  0.00  0.00    +0.295 HD
ENDBRANCH   7   9
ENDBRANCH   5   7
BRANCH   4  11
ATOM     11  O   LIG    1        3.628   3.006  -0.005  0.00  0.00    -0.455 OA
BRANCH  11  12
ATOM     12  C   LIG    1        4.801   3.684  -0.116  0.00  0.00    +0.129 A 
ATOM     13  C   LIG    1        5.498   3.675  -1.315  0.00  0.00    +0.048 A 
ATOM     14  C   LIG    1        6.686   4.370  -1.428  0.00  0.00    +0.023 A 
ATOM     15  C   LIG    1        7.187   5.066  -0.342  0.00  0.00    +0.041 A 
ATOM     16 CL   LIG    1        8.685   5.933  -0.483  0.00  0.00    -0.084 Cl
ATOM     17  C   LIG    1        6.496   5.072   0.857  0.00  0.00    +0.023 A 
ATOM     18  C   LIG    1        5.305   4.383   0.972  0.00  0.00    +0.048 A 
ENDBRANCH  11  12
ENDBRANCH   4  11
TORSDOF 4
