REMARK  Name = ZINC13343678
REMARK                            x       y       z     vdW  Elec       q    Type
REMARK                         _______ _______ _______ _____ _____    ______ ____
ROOT
ATOM      1  C   LIG    1        5.397  -1.429  -1.500  0.00  0.00    +0.162 A 
ATOM      2  C   LIG    1        6.312  -1.605  -0.471  0.00  0.00    +0.050 A 
ATOM      3  C   LIG    1        7.468  -2.323  -0.688  0.00  0.00    +0.012 A 
ATOM      4  C   LIG    1        7.721  -2.876  -1.949  0.00  0.00    -0.020 A 
ATOM      5  C   LIG    1        6.798  -2.697  -2.986  0.00  0.00    +0.057 A 
ATOM      6  C   LIG    1        5.639  -1.980  -2.757  0.00  0.00    +0.163 A 
ENDROOT
BRANCH   4   7
ATOM      7  C   LIG    1        8.952  -3.642  -2.183  0.00  0.00    +0.028 C 
ATOM      8  C   LIG    1        9.425  -4.477  -1.223  0.00  0.00    +0.077 C 
ATOM      9  C   LIG    1        8.802  -4.900   0.047  0.00  0.00    +0.259 C 
ATOM     10  N   LIG    1        9.499  -5.733   0.801  0.00  0.00    -0.244 N 
ATOM     11  C   LIG    1       10.718  -6.172   0.425  0.00  0.00    +0.121 C 
ATOM     12  S   LIG    1       11.765  -7.242   1.255  0.00  0.00    -0.027 S 
ATOM     13  O   LIG    1        7.702  -4.501   0.384  0.00  0.00    -0.269 OA
ATOM     14  S   LIG    1       10.970  -5.373  -1.152  0.00  0.00    -0.061 S 
BRANCH  10  15
ATOM     15  C   LIG    1        8.935  -6.190   2.073  0.00  0.00    +0.235 C 
BRANCH  15  16
ATOM     16  C   LIG    1        8.140  -7.450   1.847  0.00  0.00    +0.323 C 
ATOM     17  O   LIG    1        8.053  -7.918   0.737  0.00  0.00    -0.249 OA
BRANCH  16  18
ATOM     18  O   LIG    1        7.528  -8.052   2.879  0.00  0.00    -0.480 OA
ATOM     19  H   LIG    1        7.595  -7.689   3.740  0.00  0.00    +0.295 HD
ENDBRANCH  16  18
ENDBRANCH  15  16
ENDBRANCH  10  15
ENDBRANCH   4   7
BRANCH   1  20
ATOM     20  O   LIG    1        4.259  -0.720  -1.279  0.00  0.00    -0.484 OA
BRANCH  20  21
ATOM     21  C   LIG    1        4.070  -0.188   0.033  0.00  0.00    +0.264 C 
BRANCH  21  25
ATOM     22  C   LIG    1        0.366   1.935   0.190  0.00  0.00    +0.000 A 
ATOM     23  C   LIG    1        1.528   2.596  -0.162  0.00  0.00    +0.000 A 
ATOM     24  C   LIG    1        2.726   1.910  -0.213  0.00  0.00    +0.007 A 
ATOM     25  C   LIG    1        2.763   0.561   0.088  0.00  0.00    -0.010 A 
ATOM     26  C   LIG    1        1.602  -0.101   0.441  0.00  0.00    +0.007 A 
ATOM     27  C   LIG    1        0.404   0.586   0.492  0.00  0.00    +0.000 A 
ENDBRANCH  21  25
ENDBRANCH  20  21
ENDBRANCH   1  20
BRANCH   6  28
ATOM     28  O   LIG    1        4.737  -1.809  -3.760  0.00  0.00    -0.484 OA
BRANCH  28  29
ATOM     29  C   LIG    1        5.049  -2.402  -5.022  0.00  0.00    +0.264 C 
BRANCH  29  30
ATOM     30  C   LIG    1        3.943  -2.109  -6.002  0.00  0.00    -0.010 A 
ATOM     31  C   LIG    1        2.878  -2.982  -6.123  0.00  0.00    +0.007 A 
ATOM     32  C   LIG    1        1.861  -2.712  -7.019  0.00  0.00    +0.000 A 
ATOM     33  C   LIG    1        1.913  -1.573  -7.801  0.00  0.00    +0.000 A 
ATOM     34  C   LIG    1        2.981  -0.703  -7.684  0.00  0.00    +0.000 A 
ATOM     35  C   LIG    1        3.996  -0.971  -6.785  0.00  0.00    +0.007 A 
ENDBRANCH  29  30
ENDBRANCH  28  29
ENDBRANCH   6  28
TORSDOF 10
