REMARK  Name = ZINC13538555
REMARK                            x       y       z     vdW  Elec       q    Type
REMARK                         _______ _______ _______ _____ _____    ______ ____
ROOT
ATOM      1  C   LIG    1        2.442  -4.654  -0.047  0.00  0.00    +0.087 A 
ATOM      2  C   LIG    1        1.071  -4.484   0.175  0.00  0.00    +0.045 A 
ATOM      3 BR   LIG    1       -0.041  -5.987   0.457  0.00  0.00    -0.048 Br
ATOM      4  C   LIG    1        0.541  -3.222   0.188  0.00  0.00    +0.032 A 
ATOM      5  C   LIG    1        1.403  -2.138  -0.018  0.00  0.00    +0.061 A 
ATOM      6  C   LIG    1        2.774  -2.375  -0.243  0.00  0.00    +0.158 A 
ATOM      7  N   LIG    1        3.360  -1.150  -0.417  0.00  0.00    -0.258 N 
ATOM      8  N   LIG    1        2.386  -0.152  -0.313  0.00  0.00    -0.156 NA
ATOM      9  H   LIG    1        4.332  -0.994  -0.591  0.00  0.00    +0.191 HD
ATOM     10  C   LIG    1        1.217  -0.689  -0.082  0.00  0.00    +0.156 A 
ATOM     11  N   LIG    1        3.240  -3.617  -0.246  0.00  0.00    -0.227 NA
ENDROOT
BRANCH   1  15
ATOM     12  C   LIG    1        4.077  -8.578  -0.082  0.00  0.00    +0.000 A 
ATOM     13  C   LIG    1        2.899  -8.316  -0.758  0.00  0.00    +0.001 A 
ATOM     14  C   LIG    1        2.364  -7.044  -0.750  0.00  0.00    +0.010 A 
ATOM     15  C   LIG    1        3.013  -6.022  -0.059  0.00  0.00    +0.002 A 
ATOM     16  C   LIG    1        4.203  -6.290   0.615  0.00  0.00    +0.010 A 
ATOM     17  C   LIG    1        4.726  -7.567   0.606  0.00  0.00    +0.001 A 
ENDBRANCH   1  15
BRANCH  10  18
ATOM     18  N   LIG    1        0.009  -0.002   0.081  0.00  0.00    -0.268 N 
ATOM     19  H   LIG    1       -0.809  -0.493   0.250  0.00  0.00    +0.156 HD
ATOM     20  C   LIG    1       -0.016   1.343   0.003  0.00  0.00    +0.221 C 
ATOM     21  O   LIG    1        1.008   1.958  -0.209  0.00  0.00    -0.275 OA
BRANCH  20  22
ATOM     22  C   LIG    1       -1.318   2.083   0.172  0.00  0.00    +0.075 C 
ATOM     23  C   LIG    1       -1.898   2.784  -1.058  0.00  0.00    +0.013 C 
ATOM     24  C   LIG    1       -1.282   3.610   0.073  0.00  0.00    +0.013 C 
ENDBRANCH  20  22
ENDBRANCH  10  18
TORSDOF 3
