REMARK  Name = ZINC13281694
REMARK                            x       y       z     vdW  Elec       q    Type
REMARK                         _______ _______ _______ _____ _____    ______ ____
ROOT
ATOM      1  C   LIG    1        3.695  -0.684  -0.037  0.00  0.00    +0.064 A 
ATOM      2  C   LIG    1        4.938  -0.124  -0.053  0.00  0.00    +0.110 A 
ATOM      3  N   LIG    1        5.839  -1.107  -0.061  0.00  0.00    -0.345 N 
ATOM      4  H   LIG    1        6.801  -0.984  -0.070  0.00  0.00    +0.167 HD
ATOM      5  C   LIG    1        5.224  -2.270  -0.061  0.00  0.00    +0.116 A 
ATOM      6  N   LIG    1        3.877  -2.049  -0.046  0.00  0.00    -0.339 N 
ATOM      7  H   LIG    1        3.181  -2.725  -0.043  0.00  0.00    +0.167 HD
ENDROOT
BRANCH   1  11
ATOM      8  C   LIG    1       -0.017   1.379   0.010  0.00  0.00    +0.000 A 
ATOM      9  C   LIG    1        1.168   2.094   0.002  0.00  0.00    +0.001 A 
ATOM     10  C   LIG    1        2.377   1.429  -0.013  0.00  0.00    +0.010 A 
ATOM     11  C   LIG    1        2.404   0.034  -0.021  0.00  0.00    -0.000 A 
ATOM     12  C   LIG    1        1.204  -0.681  -0.013  0.00  0.00    +0.010 A 
ATOM     13  C   LIG    1        0.002  -0.004   0.002  0.00  0.00    +0.001 A 
ENDBRANCH   1  11
BRANCH   5  14
ATOM     14  C   LIG    1        5.881  -3.594  -0.075  0.00  0.00    +0.015 A 
ATOM     15  C   LIG    1        5.111  -4.758  -0.078  0.00  0.00    +0.011 A 
ATOM     16  C   LIG    1        5.731  -5.991  -0.091  0.00  0.00    +0.001 A 
ATOM     17  C   LIG    1        7.112  -6.074  -0.099  0.00  0.00    +0.000 A 
ATOM     18  C   LIG    1        7.881  -4.924  -0.095  0.00  0.00    +0.001 A 
ATOM     19  C   LIG    1        7.274  -3.685  -0.089  0.00  0.00    +0.011 A 
ENDBRANCH   5  14
TORSDOF 2
