REMARK  Name = ZINC13535827
REMARK                            x       y       z     vdW  Elec       q    Type
REMARK                         _______ _______ _______ _____ _____    ______ ____
ROOT
ATOM      1  C   LIG    1       -1.238   3.161   0.032  0.00  0.00    +0.021 A 
ATOM      2  C   LIG    1       -0.070   3.864   0.023  0.00  0.00    +0.027 A 
ATOM      3  C   LIG    1        1.155   3.197   0.008  0.00  0.00    +0.048 A 
ATOM      4  C   LIG    1        1.179   1.791   0.000  0.00  0.00    +0.009 A 
ATOM      5  C   LIG    1        2.597   1.400  -0.015  0.00  0.00    +0.010 A 
ATOM      6  C   LIG    1        3.279   0.184  -0.028  0.00  0.00    +0.030 A 
ATOM      7  C   LIG    1        4.658   0.198  -0.042  0.00  0.00    +0.111 A 
ATOM      8  N   LIG    1        5.328   1.337  -0.042  0.00  0.00    -0.261 NA
ATOM      9  C   LIG    1        4.728   2.510  -0.031  0.00  0.00    +0.136 A 
ATOM     10  C   LIG    1        3.341   2.593  -0.016  0.00  0.00    +0.066 A 
ATOM     11  C   LIG    1       -0.013   1.076   0.008  0.00  0.00    +0.029 A 
ATOM     12  N   LIG    1        2.457   3.655  -0.003  0.00  0.00    -0.353 N 
ATOM     13  H   LIG    1        2.715   4.590   0.000  0.00  0.00    +0.166 HD
ATOM     14  C   LIG    1       -1.226   1.761   0.017  0.00  0.00    +0.052 A 
ENDROOT
BRANCH  14  15
ATOM     15  C   LIG    1       -2.460   1.033   0.020  0.00  0.00    +0.099 C 
ATOM     16  N   LIG    1       -3.438   0.456   0.022  0.00  0.00    -0.191 NA
ENDBRANCH  14  15
TORSDOF 1
