REMARK  Name = ZINC13450004
REMARK                            x       y       z     vdW  Elec       q    Type
REMARK                         _______ _______ _______ _____ _____    ______ ____
ROOT
ATOM      1  C   LIG    1        1.151   6.057   0.076  0.00  0.00    -0.016 A 
ATOM      2  C   LIG    1        2.288   5.366  -0.339  0.00  0.00    +0.010 A 
ATOM      3  C   LIG    1        2.285   3.987  -0.363  0.00  0.00    +0.024 A 
ATOM      4  C   LIG    1        1.149   3.287   0.025  0.00  0.00    +0.037 A 
ATOM      5  C   LIG    1        0.014   3.975   0.439  0.00  0.00    -0.025 A 
ATOM      6  C   LIG    1       -1.214   3.210   0.860  0.00  0.00    +0.046 C 
ATOM      7  C   LIG    1       -1.333   1.935   0.019  0.00  0.00    +0.101 C 
ATOM      8  C   LIG    1       -0.014   1.209   0.009  0.00  0.00    +0.218 C 
ATOM      9  O   LIG    1        0.002  -0.004   0.002  0.00  0.00    -0.275 OA
ATOM     10  N   LIG    1        1.146   1.889   0.001  0.00  0.00    -0.285 N 
ATOM     11  H   LIG    1        1.987   1.407  -0.021  0.00  0.00    +0.155 HD
ATOM     12  C   LIG    1        0.013   5.353   0.465  0.00  0.00    +0.014 A 
ENDROOT
BRANCH   1  15
ATOM     13  C   LIG    1        2.237   9.640  -0.244  0.00  0.00    +0.020 A 
ATOM     14  C   LIG    1        2.287   8.257  -0.286  0.00  0.00    +0.011 A 
ATOM     15  C   LIG    1        1.152   7.541   0.102  0.00  0.00    +0.000 A 
ATOM     16  C   LIG    1        0.019   8.242   0.509  0.00  0.00    +0.119 A 
ATOM     17  N   LIG    1        0.020   9.559   0.538  0.00  0.00    -0.263 NA
ATOM     18  C   LIG    1        1.077  10.262   0.177  0.00  0.00    +0.111 A 
ENDBRANCH   1  15
TORSDOF 1
