REMARK  Name = ZINC13281608
REMARK                            x       y       z     vdW  Elec       q    Type
REMARK                         _______ _______ _______ _____ _____    ______ ____
ROOT
ATOM      1  C   LIG    1       -1.236   3.134   0.030  0.00  0.00    -0.042 A 
ATOM      2  C   LIG    1       -1.216   1.751   0.017  0.00  0.00    +0.005 A 
ATOM      3  C   LIG    1       -0.013   1.076   0.008  0.00  0.00    +0.009 A 
ATOM      4  C   LIG    1        1.184   1.790   0.000  0.00  0.00    -0.018 A 
ATOM      5  C   LIG    1        1.157   3.183   0.008  0.00  0.00    +0.009 A 
ATOM      6  C   LIG    1       -0.052   3.848   0.022  0.00  0.00    +0.005 A 
ENDROOT
BRANCH   4   7
ATOM      7  C   LIG    1        2.481   1.070  -0.015  0.00  0.00    -0.015 A 
ATOM      8  C   LIG    1        2.526  -0.327  -0.016  0.00  0.00    +0.028 A 
ATOM      9  C   LIG    1        3.754  -0.957  -0.036  0.00  0.00    +0.111 A 
ATOM     10  N   LIG    1        4.873  -0.258  -0.043  0.00  0.00    -0.263 NA
ATOM     11  C   LIG    1        4.874   1.061  -0.037  0.00  0.00    +0.111 A 
ATOM     12  C   LIG    1        3.691   1.770  -0.023  0.00  0.00    +0.028 A 
ENDBRANCH   4   7
BRANCH   1  14
ATOM     13  C   LIG    1       -2.662   4.750  -1.198  0.00  0.00    +0.015 C 
ATOM     14  C   LIG    1       -2.554   3.865   0.046  0.00  0.00    -0.013 C 
ATOM     15  C   LIG    1       -2.638   4.737   1.300  0.00  0.00    +0.015 C 
ATOM     16  C   LIG    1       -3.700   2.852   0.051  0.00  0.00    +0.015 C 
ENDBRANCH   1  14
TORSDOF 2
