REMARK  Name = ZINC13519007
REMARK                            x       y       z     vdW  Elec       q    Type
REMARK                         _______ _______ _______ _____ _____    ______ ____
ROOT
ATOM      1  C   LIG    1        1.773   3.193   0.102  0.00  0.00    +0.040 C 
ATOM      2  C   LIG    1        0.964   4.102  -0.825  0.00  0.00    +0.014 C 
ATOM      3  C   LIG    1        0.822   4.235   0.693  0.00  0.00    -0.003 C 
ENDROOT
BRANCH   1   5
ATOM      4  C   LIG    1        0.569   1.083  -0.674  0.00  0.00    +0.133 A 
ATOM      5  C   LIG    1        1.362   1.746   0.190  0.00  0.00    +0.039 A 
ATOM      6  N   LIG    1        1.722   0.852   1.162  0.00  0.00    -0.348 N 
ATOM      7  H   LIG    1        2.292   1.032   1.926  0.00  0.00    +0.166 HD
ATOM      8  C   LIG    1        1.137  -0.327   0.859  0.00  0.00    +0.196 A 
ATOM      9  N   LIG    1        0.449  -0.181  -0.241  0.00  0.00    -0.244 NA
ENDBRANCH   1   5
BRANCH   3  10
ATOM     10  C   LIG    1       -0.475   3.728   1.329  0.00  0.00    -0.016 C 
BRANCH  10  11
ATOM     11  C   LIG    1       -1.224   4.901   1.963  0.00  0.00    -0.086 C 
BRANCH  11  12
ATOM     12  N   LIG    1       -2.469   4.414   2.573  0.00  0.00    +0.378 N 
ATOM     13  H   LIG    1       -2.964   5.188   2.991  0.00  0.00    -0.090 HD
ATOM     14  H   LIG    1       -2.251   3.731   3.283  0.00  0.00    -0.090 HD
ATOM     15  H   LIG    1       -3.047   3.989   1.863  0.00  0.00    -0.090 HD
ENDBRANCH  11  12
ENDBRANCH  10  11
ENDBRANCH   3  10
TORSDOF 4
