REMARK  Name = ZINC13140783
REMARK                            x       y       z     vdW  Elec       q    Type
REMARK                         _______ _______ _______ _____ _____    ______ ____
ROOT
ATOM      1  C   LIG    1        1.248  -2.156  -0.021  0.00  0.00    +0.018 C 
ATOM      2  C   LIG    1        0.093  -2.851   0.089  0.00  0.00    +0.038 C 
ATOM      3  C   LIG    1       -1.269  -2.178   0.118  0.00  0.00    +0.268 C 
ATOM      4  O   LIG    1       -2.099  -2.808  -0.863  0.00  0.00    -0.487 OA
ATOM      5  C   LIG    1       -2.160  -4.159  -0.922  0.00  0.00    +0.132 A 
ATOM      6  C   LIG    1       -3.272  -4.764  -1.498  0.00  0.00    +0.046 A 
ATOM      7  C   LIG    1       -3.341  -6.138  -1.595  0.00  0.00    +0.004 A 
ATOM      8  C   LIG    1       -2.310  -6.934  -1.123  0.00  0.00    +0.001 A 
ATOM      9  C   LIG    1       -1.201  -6.354  -0.543  0.00  0.00    +0.015 A 
ATOM     10  C   LIG    1       -1.124  -4.967  -0.436  0.00  0.00    +0.064 A 
ATOM     11  C   LIG    1        0.057  -4.327   0.196  0.00  0.00    +0.196 C 
ATOM     12  O   LIG    1        0.928  -4.966   0.759  0.00  0.00    -0.287 OA
ENDROOT
BRANCH   1  15
ATOM     13  C   LIG    1        2.119   1.441  -0.631  0.00  0.00    +0.162 A 
ATOM     14  C   LIG    1        2.139   0.062  -0.705  0.00  0.00    +0.057 A 
ATOM     15  C   LIG    1        1.232  -0.689   0.053  0.00  0.00    -0.021 A 
ATOM     16  C   LIG    1        0.310  -0.037   0.881  0.00  0.00    +0.012 A 
ATOM     17  C   LIG    1        0.297   1.338   0.948  0.00  0.00    +0.050 A 
ATOM     18  C   LIG    1        1.198   2.082   0.197  0.00  0.00    +0.158 A 
BRANCH  13  20
ATOM     19  C   LIG    1        3.914   1.451  -2.192  0.00  0.00    +0.277 C 
ATOM     20  O   LIG    1        2.998   2.174  -1.365  0.00  0.00    -0.491 OA
ENDBRANCH  13  20
BRANCH  18  21
ATOM     21  O   LIG    1        1.181   3.438   0.267  0.00  0.00    -0.503 OA
ATOM     22  H   LIG    1        1.755   3.804   0.954  0.00  0.00    +0.292 HD
ENDBRANCH  18  21
ENDBRANCH   1  15
TORSDOF 3
