REMARK  Name = ZINC13526594
REMARK                            x       y       z     vdW  Elec       q    Type
REMARK                         _______ _______ _______ _____ _____    ______ ____
ROOT
ATOM      1  C   LIG    1        4.164  -0.959   1.377  0.00  0.00    +0.068 A 
ATOM      2  C   LIG    1        4.496  -2.200   1.925  0.00  0.00    +0.059 A 
ATOM      3  C   LIG    1        4.849  -1.938   3.239  0.00  0.00    +0.143 A 
ATOM      4  N   LIG    1        4.715  -0.588   3.409  0.00  0.00    -0.271 N 
ATOM      5  H   LIG    1        4.894  -0.107   4.232  0.00  0.00    +0.189 HD
ATOM      6  N   LIG    1        4.322  -0.053   2.309  0.00  0.00    -0.178 NA
ENDROOT
BRANCH   3   7
ATOM      7  C   LIG    1        5.280  -2.914   4.247  0.00  0.00    +0.355 C 
ATOM      8  O   LIG    1        5.564  -2.542   5.378  0.00  0.00    -0.243 OA
BRANCH   7   9
ATOM      9  O   LIG    1        5.355  -4.101   3.957  0.00  0.00    -0.476 OA
ATOM     10  H   LIG    1        5.138  -4.386   3.091  0.00  0.00    +0.295 HD
ENDBRANCH   7   9
ENDBRANCH   3   7
BRANCH   1  11
ATOM     11  C   LIG    1        3.711  -0.707  -0.038  0.00  0.00    +0.092 C 
BRANCH  11  15
ATOM     12  C   LIG    1       -0.017   1.378   0.010  0.00  0.00    +0.000 A 
ATOM     13  C   LIG    1        1.171   2.086   0.002  0.00  0.00    +0.000 A 
ATOM     14  C   LIG    1        2.377   1.411  -0.013  0.00  0.00    +0.004 A 
ATOM     15  C   LIG    1        2.396   0.029  -0.020  0.00  0.00    -0.042 A 
ATOM     16  C   LIG    1        1.208  -0.679  -0.012  0.00  0.00    +0.004 A 
ATOM     17  C   LIG    1        0.002  -0.004   0.002  0.00  0.00    +0.000 A 
ENDBRANCH  11  15
ENDBRANCH   1  11
TORSDOF 4
