REMARK  Name = ZINC13544393
REMARK                            x       y       z     vdW  Elec       q    Type
REMARK                         _______ _______ _______ _____ _____    ______ ____
ROOT
ATOM      1  C   LIG    1       -3.570   4.420   4.303  0.00  0.00    +0.225 A 
ATOM      2  N   LIG    1       -4.726   3.958   4.745  0.00  0.00    -0.219 NA
ATOM      3  C   LIG    1       -5.351   2.962   4.125  0.00  0.00    +0.147 A 
ATOM      4  C   LIG    1       -4.754   2.405   2.981  0.00  0.00    +0.147 A 
ATOM      5  C   LIG    1       -3.522   2.929   2.555  0.00  0.00    +0.167 A 
ATOM      6  N   LIG    1       -3.176   2.217   1.434  0.00  0.00    -0.286 N 
ATOM      7  C   LIG    1       -4.161   1.301   1.211  0.00  0.00    +0.203 A 
ATOM      8  N   LIG    1       -5.086   1.414   2.120  0.00  0.00    -0.231 NA
ATOM      9  N   LIG    1       -2.974   3.930   3.236  0.00  0.00    -0.216 NA
ENDROOT
BRANCH   6  10
ATOM     10  C   LIG    1       -1.966   2.402   0.628  0.00  0.00    +0.253 C 
ATOM     11  C   LIG    1       -0.788   1.610   1.237  0.00  0.00    +0.195 C 
ATOM     12  C   LIG    1       -0.013   1.086   0.008  0.00  0.00    +0.182 C 
ATOM     13  C   LIG    1       -0.811   1.623  -1.200  0.00  0.00    +0.218 C 
ATOM     14  O   LIG    1       -2.148   1.838  -0.689  0.00  0.00    -0.342 OA
BRANCH  13  15
ATOM     15  C   LIG    1       -0.829   0.590  -2.329  0.00  0.00    +0.372 C 
ATOM     16  F   LIG    1        0.484   0.233  -2.655  0.00  0.00    -0.206 F 
ATOM     17  F   LIG    1       -1.457   1.137  -3.453  0.00  0.00    -0.206 F 
ENDBRANCH  13  15
BRANCH  11  18
ATOM     18  O   LIG    1        0.040   2.470   2.022  0.00  0.00    -0.385 OA
ATOM     19  H   LIG    1        0.828   2.038   2.380  0.00  0.00    +0.210 HD
ENDBRANCH  11  18
BRANCH  12  20
ATOM     20  O   LIG    1        1.319   1.603  -0.002  0.00  0.00    -0.386 OA
ATOM     21  H   LIG    1        1.842   1.330  -0.768  0.00  0.00    +0.210 HD
ENDBRANCH  12  20
ENDBRANCH   6  10
BRANCH   3  22
ATOM     22  N   LIG    1       -6.561   2.484   4.596  0.00  0.00    -0.341 N 
ATOM     23  H   LIG    1       -6.963   2.877   5.387  0.00  0.00    +0.144 HD
ATOM     24  H   LIG    1       -7.260   2.595   3.889  0.00  0.00    +0.144 HD
ENDBRANCH   3  22
TORSDOF 5
