REMARK  Name = ZINC13492922
REMARK                            x       y       z     vdW  Elec       q    Type
REMARK                         _______ _______ _______ _____ _____    ______ ____
ROOT
ATOM      1  N   LIG    1        0.761   4.210   6.449  0.00  0.00    +0.380 N 
ATOM      2  H   LIG    1        1.736   3.932   6.289  0.00  0.00    -0.082 HD
ATOM      3  C   LIG    1       -0.014   3.974   5.212  0.00  0.00    -0.071 C 
ATOM      4  C   LIG    1        0.138   2.507   4.804  0.00  0.00    +0.002 C 
ATOM      5  C   LIG    1       -0.396   1.612   5.927  0.00  0.00    +0.004 C 
ATOM      6  C   LIG    1        0.365   1.920   7.219  0.00  0.00    -0.018 C 
ATOM      7  C   LIG    1        0.207   3.404   7.557  0.00  0.00    -0.079 C 
ENDROOT
BRANCH   4   8
ATOM      8  C   LIG    1       -0.646   2.252   3.542  0.00  0.00    -0.046 A 
ATOM      9  C   LIG    1       -2.012   2.464   3.522  0.00  0.00    +0.004 A 
ATOM     10  C   LIG    1       -2.731   2.230   2.365  0.00  0.00    +0.004 A 
ATOM     11  C   LIG    1       -2.083   1.789   1.226  0.00  0.00    -0.048 A 
ATOM     12  C   LIG    1       -2.865   1.540  -0.037  0.00  0.00    +0.044 C 
ATOM     13  C   LIG    1       -0.718   1.572   1.248  0.00  0.00    -0.047 A 
ATOM     14  C   LIG    1       -0.013   1.086   0.008  0.00  0.00    +0.044 C 
ATOM     15  C   LIG    1        0.001   1.806   2.405  0.00  0.00    +0.007 A 
ENDBRANCH   4   8
BRANCH   1  16
ATOM     16  C   LIG    1        0.724   5.645   6.801  0.00  0.00    -0.079 C 
BRANCH  16  18
ATOM     17  C   LIG    1        1.279   7.316   8.573  0.00  0.00    +0.002 C 
ATOM     18  C   LIG    1        1.288   5.830   8.211  0.00  0.00    -0.022 C 
ENDBRANCH  16  18
ENDBRANCH   1  16
TORSDOF 3
