REMARK  Name = ZINC13531810
REMARK                            x       y       z     vdW  Elec       q    Type
REMARK                         _______ _______ _______ _____ _____    ______ ____
ROOT
ATOM      1  N   LIG    1        1.257  -2.102  -0.049  0.00  0.00    -0.269 N 
ATOM      2  H   LIG    1        2.092  -2.577  -0.179  0.00  0.00    +0.156 HD
ATOM      3  C   LIG    1        0.105  -2.788   0.086  0.00  0.00    +0.308 C 
ATOM      4  N   LIG    1        0.126  -4.135   0.144  0.00  0.00    -0.268 N 
ATOM      5  H   LIG    1        0.974  -4.606   0.169  0.00  0.00    +0.156 HD
ATOM      6  O   LIG    1       -0.953  -2.193   0.154  0.00  0.00    -0.252 OA
ENDROOT
BRANCH   4   7
ATOM      7  C   LIG    1       -1.068  -4.849   0.171  0.00  0.00    +0.050 A 
ATOM      8  C   LIG    1       -2.210  -4.320  -0.415  0.00  0.00    +0.044 A 
ATOM      9  C   LIG    1       -3.394  -5.030  -0.388  0.00  0.00    +0.043 A 
ATOM     10 CL   LIG    1       -4.818  -4.361  -1.122  0.00  0.00    -0.083 Cl
ATOM     11  C   LIG    1       -3.453  -6.275   0.223  0.00  0.00    +0.021 A 
ATOM     12  C   LIG    1       -2.331  -6.816   0.808  0.00  0.00    +0.018 A 
ATOM     13  C   LIG    1       -1.123  -6.111   0.784  0.00  0.00    +0.080 A 
BRANCH  13  14
ATOM     14  C   LIG    1        0.082  -6.686   1.403  0.00  0.00    +0.339 C 
ATOM     15  O   LIG    1        0.059  -7.829   1.838  0.00  0.00    -0.245 OA
BRANCH  14  16
ATOM     16  O   LIG    1        1.106  -6.021   1.481  0.00  0.00    -0.477 OA
ATOM     17  H   LIG    1        1.123  -5.145   1.148  0.00  0.00    +0.295 HD
ENDBRANCH  14  16
ENDBRANCH  13  14
ENDBRANCH   4   7
BRANCH   1  22
ATOM     18  C   LIG    1        2.137   1.405  -0.718  0.00  0.00    +0.002 A 
ATOM     19  C   LIG    1        1.230   2.062   0.093  0.00  0.00    +0.012 A 
ATOM     20  C   LIG    1        0.332   1.339   0.857  0.00  0.00    +0.057 A 
ATOM     21  C   LIG    1        0.338  -0.041   0.812  0.00  0.00    +0.035 A 
ATOM     22  C   LIG    1        1.248  -0.703  -0.002  0.00  0.00    +0.035 A 
ATOM     23  C   LIG    1        2.148   0.025  -0.768  0.00  0.00    +0.023 A 
BRANCH  20  24
ATOM     24  C   LIG    1       -0.655   2.059   1.740  0.00  0.00    +0.417 C 
ATOM     25  F   LIG    1       -0.455   1.678   3.071  0.00  0.00    -0.166 F 
ATOM     26  F   LIG    1       -1.958   1.728   1.351  0.00  0.00    -0.166 F 
ATOM     27  F   LIG    1       -0.469   3.440   1.618  0.00  0.00    -0.166 F 
ENDBRANCH  20  24
ENDBRANCH   1  22
TORSDOF 5
