REMARK  Name = ZINC13488371
REMARK                            x       y       z     vdW  Elec       q    Type
REMARK                         _______ _______ _______ _____ _____    ______ ____
ROOT
ATOM      1  C   LIG    1        0.678   3.398  -0.181  0.00  0.00    +0.077 C 
ATOM      2  C   LIG    1       -0.734   3.440   0.444  0.00  0.00    +0.031 C 
ATOM      3  C   LIG    1       -1.202   1.977   0.260  0.00  0.00    +0.098 C 
ATOM      4  C   LIG    1        0.084   1.184   0.188  0.00  0.00    +0.216 C 
ATOM      5  O   LIG    1        0.168  -0.018   0.327  0.00  0.00    -0.276 OA
ATOM      6  N   LIG    1        1.120   2.005  -0.057  0.00  0.00    -0.298 N 
ENDROOT
BRANCH   1   7
ATOM      7  C   LIG    1        1.624   4.324   0.586  0.00  0.00    +0.025 C 
BRANCH   7   8
ATOM      8  C   LIG    1        1.217   5.780   0.349  0.00  0.00    +0.033 C 
BRANCH   8   9
ATOM      9  C   LIG    1        2.214   6.708   1.045  0.00  0.00    +0.115 C 
BRANCH   9  10
ATOM     10  O   LIG    1        2.135   6.519   2.459  0.00  0.00    -0.392 OA
ATOM     11  H   LIG    1        1.263   6.705   2.833  0.00  0.00    +0.210 HD
ENDBRANCH   9  10
BRANCH   9  12
ATOM     12  C   LIG    1        1.879   8.162   0.706  0.00  0.00    +0.031 C 
BRANCH  12  13
ATOM     13  C   LIG    1        2.948   9.083   1.298  0.00  0.00    +0.002 C 
BRANCH  13  14
ATOM     14  C   LIG    1        2.614  10.537   0.960  0.00  0.00    -0.000 C 
BRANCH  14  16
ATOM     15  C   LIG    1        3.348  12.912   1.213  0.00  0.00    +0.004 C 
ATOM     16  C   LIG    1        3.682  11.458   1.552  0.00  0.00    -0.003 C 
ENDBRANCH  14  16
ENDBRANCH  13  14
ENDBRANCH  12  13
ENDBRANCH   9  12
ENDBRANCH   8   9
ENDBRANCH   7   8
ENDBRANCH   1   7
BRANCH   6  17
ATOM     17  C   LIG    1        2.511   1.564  -0.184  0.00  0.00    +0.108 C 
BRANCH  17  18
ATOM     18  C   LIG    1        2.846   1.349  -1.661  0.00  0.00    +0.019 C 
BRANCH  18  19
ATOM     19  C   LIG    1        4.299   0.889  -1.794  0.00  0.00    +0.002 C 
BRANCH  19  20
ATOM     20  C   LIG    1        4.633   0.674  -3.271  0.00  0.00    +0.001 C 
BRANCH  20  21
ATOM     21  C   LIG    1        6.087   0.215  -3.404  0.00  0.00    +0.011 C 
BRANCH  21  22
ATOM     22  C   LIG    1        6.421  -0.000  -4.881  0.00  0.00    +0.120 C 
BRANCH  22  23
ATOM     23  C   LIG    1        7.852  -0.453  -5.011  0.00  0.00    +0.305 C 
ATOM     24  O   LIG    1        8.535  -0.590  -4.024  0.00  0.00    -0.251 OA
BRANCH  23  25
ATOM     25  O   LIG    1        8.369  -0.705  -6.225  0.00  0.00    -0.481 OA
ATOM     26  H   LIG    1        7.839  -0.598  -6.990  0.00  0.00    +0.295 HD
ENDBRANCH  23  25
ENDBRANCH  22  23
ENDBRANCH  21  22
ENDBRANCH  20  21
ENDBRANCH  19  20
ENDBRANCH  18  19
ENDBRANCH  17  18
ENDBRANCH   6  17
TORSDOF 16
