REMARK  Name = ZINC13441182
REMARK                            x       y       z     vdW  Elec       q    Type
REMARK                         _______ _______ _______ _____ _____    ______ ____
ROOT
ATOM      1  C   LIG    1       -3.656   0.596   0.045  0.00  0.00    +0.064 C 
ATOM      2  C   LIG    1       -2.151   0.661   0.029  0.00  0.00    +0.028 A 
ATOM      3  C   LIG    1       -1.428   1.790   0.032  0.00  0.00    -0.010 A 
ATOM      4  C   LIG    1       -0.015   1.400   0.008  0.00  0.00    +0.008 A 
ATOM      5  C   LIG    1        1.185   2.113  -0.001  0.00  0.00    +0.056 A 
ATOM      6  C   LIG    1        2.386   1.429  -0.018  0.00  0.00    +0.121 A 
ATOM      7  C   LIG    1        2.400   0.037  -0.027  0.00  0.00    +0.048 A 
ATOM      8  C   LIG    1        1.220  -0.676  -0.017  0.00  0.00    +0.030 A 
ATOM      9  C   LIG    1        0.003  -0.005   0.000  0.00  0.00    +0.057 A 
ATOM     10  N   LIG    1       -1.314  -0.429   0.013  0.00  0.00    -0.280 N 
ATOM     11  C   LIG    1       -1.716  -1.716   0.009  0.00  0.00    +0.263 C 
ATOM     12  O   LIG    1       -1.996  -2.262  -1.040  0.00  0.00    -0.267 OA
ENDROOT
BRANCH  11  13
ATOM     13  C   LIG    1       -1.816  -2.461   1.280  0.00  0.00    +0.040 A 
ATOM     14  C   LIG    1       -1.592  -1.810   2.495  0.00  0.00    +0.015 A 
ATOM     15  C   LIG    1       -1.693  -2.510   3.678  0.00  0.00    +0.021 A 
ATOM     16  C   LIG    1       -2.004  -3.860   3.663  0.00  0.00    +0.041 A 
ATOM     17 CL   LIG    1       -2.122  -4.737   5.157  0.00  0.00    -0.084 Cl
ATOM     18  C   LIG    1       -2.221  -4.513   2.461  0.00  0.00    +0.021 A 
ATOM     19  C   LIG    1       -2.130  -3.822   1.271  0.00  0.00    +0.015 A 
ENDBRANCH  11  13
BRANCH   6  20
ATOM     20  O   LIG    1        3.558   2.118  -0.027  0.00  0.00    -0.495 OA
ATOM     21  C   LIG    1        4.762   1.349  -0.045  0.00  0.00    +0.277 C 
ENDBRANCH   6  20
BRANCH   3  22
ATOM     22  C   LIG    1       -1.968   3.197   0.048  0.00  0.00    +0.133 C 
BRANCH  22  23
ATOM     23  C   LIG    1       -2.170   3.674  -1.367  0.00  0.00    +0.217 C 
ATOM     24  N   LIG    1       -2.648   4.912  -1.599  0.00  0.00    -0.315 N 
ATOM     25  H   LIG    1       -2.862   5.497  -0.855  0.00  0.00    +0.149 HD
ATOM     26  O   LIG    1       -1.901   2.943  -2.297  0.00  0.00    -0.275 OA
BRANCH  24  27
ATOM     27  C   LIG    1       -2.844   5.376  -2.974  0.00  0.00    +0.106 C 
BRANCH  27  28
ATOM     28  C   LIG    1       -3.392   6.805  -2.958  0.00  0.00    +0.046 C 
BRANCH  28  29
ATOM     29  C   LIG    1       -3.596   7.289  -4.395  0.00  0.00    +0.157 C 
BRANCH  29  30
ATOM     30  O   LIG    1       -4.108   8.623  -4.379  0.00  0.00    -0.395 OA
ATOM     31  H   LIG    1       -4.262   8.996  -5.258  0.00  0.00    +0.209 HD
ENDBRANCH  29  30
ENDBRANCH  28  29
ENDBRANCH  27  28
ENDBRANCH  24  27
ENDBRANCH  22  23
ENDBRANCH   3  22
TORSDOF 8
