REMARK  Name = ZINC13472700
REMARK                            x       y       z     vdW  Elec       q    Type
REMARK                         _______ _______ _______ _____ _____    ______ ____
ROOT
ATOM      1  C   LIG    1        2.074   1.133  -1.242  0.00  0.00    +0.049 C 
ATOM      2  C   LIG    1        1.286   1.562  -0.002  0.00  0.00    +0.136 C 
ATOM      3  C   LIG    1        2.063   1.218   1.292  0.00  0.00    +0.181 C 
ATOM      4  C   LIG    1        2.768   2.534   1.672  0.00  0.00    +0.178 C 
ATOM      5  O   LIG    1        2.450   3.498   0.653  0.00  0.00    -0.345 OA
ATOM      6  C   LIG    1        1.183   3.106   0.081  0.00  0.00    +0.256 C 
ENDROOT
BRANCH   6   7
ATOM      7  N   LIG    1        1.018   3.685  -1.254  0.00  0.00    -0.285 N 
ATOM      8  C   LIG    1        2.011   4.169  -2.052  0.00  0.00    +0.203 A 
ATOM      9  N   LIG    1        1.510   4.607  -3.171  0.00  0.00    -0.231 NA
ATOM     10  C   LIG    1        0.167   4.432  -3.161  0.00  0.00    +0.147 A 
ATOM     11  C   LIG    1       -0.872   4.707  -4.067  0.00  0.00    +0.147 A 
ATOM     12  N   LIG    1       -2.116   4.393  -3.719  0.00  0.00    -0.219 NA
ATOM     13  C   LIG    1       -2.379   3.836  -2.551  0.00  0.00    +0.225 A 
ATOM     14  N   LIG    1       -1.439   3.561  -1.671  0.00  0.00    -0.216 NA
ATOM     15  C   LIG    1       -0.165   3.834  -1.934  0.00  0.00    +0.167 A 
BRANCH  11  16
ATOM     16  N   LIG    1       -0.606   5.290  -5.293  0.00  0.00    -0.341 N 
ATOM     17  H   LIG    1       -1.332   5.475  -5.910  0.00  0.00    +0.144 HD
ATOM     18  H   LIG    1       -0.176   6.182  -5.152  0.00  0.00    +0.144 HD
ENDBRANCH  11  16
ENDBRANCH   6   7
BRANCH   2  19
ATOM     19  O   LIG    1       -0.011   0.963   0.007  0.00  0.00    -0.382 OA
ATOM     20  H   LIG    1        0.002  -0.004   0.002  0.00  0.00    +0.210 HD
ENDBRANCH   2  19
BRANCH   3  21
ATOM     21  O   LIG    1        1.161   0.815   2.325  0.00  0.00    -0.386 OA
ATOM     22  H   LIG    1        1.594   0.587   3.159  0.00  0.00    +0.210 HD
ENDBRANCH   3  21
BRANCH   4  23
ATOM     23  C   LIG    1        4.281   2.316   1.733  0.00  0.00    +0.190 C 
BRANCH  23  24
ATOM     24  O   LIG    1        4.916   3.509   2.197  0.00  0.00    -0.392 OA
ATOM     25  H   LIG    1        5.878   3.443   2.261  0.00  0.00    +0.210 HD
ENDBRANCH  23  24
ENDBRANCH   4  23
TORSDOF 6
