REMARK  Name = ZINC13472715
REMARK                            x       y       z     vdW  Elec       q    Type
REMARK                         _______ _______ _______ _____ _____    ______ ____
ROOT
ATOM      1  C   LIG    1       -2.140   1.036   1.486  0.00  0.00    +0.066 C 
ATOM      2  N   LIG    1       -3.164   1.691   0.872  0.00  0.00    -0.286 NA
ATOM      3  H   LIG    1       -2.873   1.907  -0.081  0.00  0.00    +0.125 HD
ATOM      4  C   LIG    1       -4.343   1.008   0.806  0.00  0.00    +0.193 C 
ATOM      5  N   LIG    1       -4.539  -0.206   1.298  0.00  0.00    -0.273 NA
ATOM      6  H   LIG    1       -3.794  -0.684   1.763  0.00  0.00    +0.126 HD
ATOM      7  C   LIG    1       -3.556  -0.860   1.905  0.00  0.00    +0.130 C 
ATOM      8  C   LIG    1       -2.297  -0.241   2.019  0.00  0.00    +0.067 C 
ENDROOT
BRANCH   8   9
ATOM      9  C   LIG    1       -1.168  -0.931   2.688  0.00  0.00    -0.040 A 
ATOM     10  C   LIG    1       -0.069  -1.355   1.942  0.00  0.00    +0.007 A 
ATOM     11  C   LIG    1        0.983  -1.992   2.568  0.00  0.00    +0.046 A 
ATOM     12  C   LIG    1        0.943  -2.220   3.937  0.00  0.00    +0.120 A 
ATOM     13  C   LIG    1       -0.153  -1.803   4.681  0.00  0.00    +0.046 A 
ATOM     14  C   LIG    1       -1.205  -1.161   4.062  0.00  0.00    +0.007 A 
BRANCH  12  15
ATOM     15  O   LIG    1        1.978  -2.852   4.550  0.00  0.00    -0.495 OA
ATOM     16  C   LIG    1        3.073  -3.254   3.725  0.00  0.00    +0.277 C 
ENDBRANCH  12  15
ENDBRANCH   8   9
BRANCH   4  17
ATOM     17  N   LIG    1       -5.393   1.657   0.181  0.00  0.00    -0.303 NA
ATOM     18  H   LIG    1       -5.265   2.547  -0.184  0.00  0.00    +0.121 HD
ATOM     19  H   LIG    1       -6.257   1.223   0.108  0.00  0.00    +0.121 HD
ENDBRANCH   4  17
BRANCH   7  20
ATOM     20  N   LIG    1       -3.765  -2.128   2.418  0.00  0.00    -0.315 NA
ATOM     21  H   LIG    1       -4.636  -2.547   2.335  0.00  0.00    +0.120 HD
ATOM     22  H   LIG    1       -3.041  -2.598   2.860  0.00  0.00    +0.120 HD
ENDBRANCH   7  20
BRANCH   1  24
ATOM     23  C   LIG    1       -0.747   2.530   2.893  0.00  0.00    +0.005 C 
ATOM     24  C   LIG    1       -0.813   1.745   1.581  0.00  0.00    +0.016 C 
ENDBRANCH   1  24
TORSDOF 5
