REMARK  Name = ZINC13110453
REMARK                            x       y       z     vdW  Elec       q    Type
REMARK                         _______ _______ _______ _____ _____    ______ ____
ROOT
ATOM      1  C   LIG    1        4.990  -3.493   0.538  0.00  0.00    +0.362 C 
ATOM      2  O   LIG    1        4.181  -4.404   0.525  0.00  0.00    -0.247 OA
ENDROOT
BRANCH   1   3
ATOM      3  C   LIG    1        6.429  -3.780   0.373  0.00  0.00    +0.186 A 
ATOM      4  C   LIG    1        6.855  -5.082   0.068  0.00  0.00    +0.151 A 
ATOM      5  N   LIG    1        8.150  -5.335  -0.080  0.00  0.00    -0.213 NA
ATOM      6  C   LIG    1        9.036  -4.357   0.061  0.00  0.00    +0.156 A 
ATOM      7  C   LIG    1        8.607  -3.060   0.365  0.00  0.00    +0.170 A 
ATOM      8 CL   LIG    1        9.770  -1.784   0.550  0.00  0.00    -0.058 Cl
ATOM      9  N   LIG    1        7.324  -2.803   0.508  0.00  0.00    -0.222 NA
BRANCH   4  10
ATOM     10  N   LIG    1        5.929  -6.099  -0.079  0.00  0.00    -0.341 N 
ATOM     11  H   LIG    1        6.215  -7.025  -0.041  0.00  0.00    +0.144 HD
ATOM     12  H   LIG    1        4.993  -5.886  -0.219  0.00  0.00    +0.144 HD
ENDBRANCH   4  10
BRANCH   6  13
ATOM     13  N   LIG    1       10.386  -4.620  -0.093  0.00  0.00    -0.341 N 
ATOM     14  H   LIG    1       11.034  -3.905   0.011  0.00  0.00    +0.144 HD
ATOM     15  H   LIG    1       10.684  -5.519  -0.303  0.00  0.00    +0.144 HD
ENDBRANCH   6  13
ENDBRANCH   1   3
BRANCH   1  17
ATOM     16  C   LIG    1        3.296  -1.980   0.948  0.00  0.00    +0.382 C 
ATOM     17  N   LIG    1        4.573  -2.229   0.702  0.00  0.00    +0.002 NA
BRANCH  16  18
ATOM     18  N   LIG    1        2.434  -3.010   1.187  0.00  0.00    -0.290 N 
ATOM     19  H   LIG    1        2.744  -3.804   1.649  0.00  0.00    +0.254 HD
ATOM     20  H   LIG    1        1.511  -2.947   0.895  0.00  0.00    +0.254 HD
ENDBRANCH  16  18
BRANCH  16  21
ATOM     21  N   LIG    1        2.842  -0.692   0.963  0.00  0.00    -0.245 N 
ATOM     22  H   LIG    1        1.932  -0.501   1.236  0.00  0.00    +0.265 HD
BRANCH  21  26
ATOM     23  C   LIG    1        5.369   2.420  -0.171  0.00  0.00    +0.000 A 
ATOM     24  C   LIG    1        5.409   1.217  -0.851  0.00  0.00    +0.003 A 
ATOM     25  C   LIG    1        4.573   0.183  -0.477  0.00  0.00    +0.042 A 
ATOM     26  C   LIG    1        3.691   0.353   0.582  0.00  0.00    +0.100 A 
ATOM     27  C   LIG    1        3.654   1.563   1.263  0.00  0.00    +0.042 A 
ATOM     28  C   LIG    1        4.492   2.593   0.884  0.00  0.00    +0.003 A 
ENDBRANCH  21  26
ENDBRANCH  16  21
ENDBRANCH   1  17
TORSDOF 7
