REMARK  Name = ZINC13537284
REMARK                            x       y       z     vdW  Elec       q    Type
REMARK                         _______ _______ _______ _____ _____    ______ ____
ROOT
ATOM      1  N   LIG    1        1.349   0.054  -2.917  0.00  0.00    -0.291 N 
ATOM      2  C   LIG    1        1.763   1.436  -2.719  0.00  0.00    +0.114 C 
ATOM      3  C   LIG    1        3.216   1.555  -2.257  0.00  0.00    +0.073 C 
ATOM      4  C   LIG    1        4.077   0.666  -3.120  0.00  0.00    +0.033 A 
ATOM      5  C   LIG    1        3.565  -0.484  -3.683  0.00  0.00    +0.065 A 
ATOM      6  C   LIG    1        4.638  -1.093  -4.442  0.00  0.00    +0.012 A 
ATOM      7  C   LIG    1        4.723  -2.252  -5.215  0.00  0.00    +0.011 A 
ATOM      8  C   LIG    1        5.944  -2.522  -5.808  0.00  0.00    +0.001 A 
ATOM      9  C   LIG    1        7.036  -1.687  -5.646  0.00  0.00    +0.002 A 
ATOM     10  C   LIG    1        6.975  -0.533  -4.884  0.00  0.00    +0.026 A 
ATOM     11  C   LIG    1        5.757  -0.237  -4.276  0.00  0.00    +0.050 A 
ATOM     12  N   LIG    1        5.371   0.805  -3.473  0.00  0.00    -0.346 N 
ATOM     13  C   LIG    1        6.239   1.910  -3.059  0.00  0.00    +0.149 C 
ATOM     14  C   LIG    1        2.171  -0.880  -3.451  0.00  0.00    +0.249 C 
ATOM     15  O   LIG    1        1.772  -1.995  -3.730  0.00  0.00    -0.270 OA
ENDROOT
BRANCH   1  16
ATOM     16  C   LIG    1       -0.005  -0.342  -2.519  0.00  0.00    +0.163 C 
BRANCH  16  19
ATOM     17  C   LIG    1       -0.018   1.503   0.010  0.00  0.00    +0.065 C 
ATOM     18  C   LIG    1        0.002  -0.004   0.002  0.00  0.00    +0.035 A 
ATOM     19  C   LIG    1        0.008  -0.801  -1.084  0.00  0.00    +0.054 A 
ATOM     20  N   LIG    1        0.027  -2.075  -0.663  0.00  0.00    -0.348 N 
ATOM     21  H   LIG    1        0.035  -2.856  -1.239  0.00  0.00    +0.166 HD
ATOM     22  C   LIG    1        0.033  -2.097   0.641  0.00  0.00    +0.171 A 
ATOM     23  N   LIG    1        0.024  -0.826   1.097  0.00  0.00    -0.350 N 
ATOM     24  H   LIG    1        0.030  -0.547   2.026  0.00  0.00    +0.166 HD
ENDBRANCH  16  19
ENDBRANCH   1  16
TORSDOF 2
