REMARK  Name = ZINC13492674
REMARK                            x       y       z     vdW  Elec       q    Type
REMARK                         _______ _______ _______ _____ _____    ______ ____
ROOT
ATOM      1  C   LIG    1        1.401   1.607  -0.003  0.00  0.00    +0.234 C 
ATOM      2  N   LIG    1        2.336   1.006  -0.765  0.00  0.00    -0.314 N 
ATOM      3  H   LIG    1        2.098   0.237  -1.307  0.00  0.00    +0.149 HD
ATOM      4  O   LIG    1        1.698   2.569   0.675  0.00  0.00    -0.274 OA
ENDROOT
BRANCH   2   5
ATOM      5  C   LIG    1        3.710   1.513  -0.775  0.00  0.00    +0.104 C 
BRANCH   5   6
ATOM      6  C   LIG    1        4.562   0.658  -1.716  0.00  0.00    +0.019 C 
BRANCH   6   7
ATOM      7  C   LIG    1        5.997   1.187  -1.726  0.00  0.00    +0.002 C 
BRANCH   7   8
ATOM      8  C   LIG    1        6.849   0.332  -2.666  0.00  0.00    -0.000 C 
BRANCH   8   9
ATOM      9  C   LIG    1        8.285   0.862  -2.677  0.00  0.00    -0.002 C 
BRANCH   9  10
ATOM     10  C   LIG    1        9.137   0.007  -3.617  0.00  0.00    -0.019 C 
BRANCH  10  11
ATOM     11  C   LIG    1       10.572   0.536  -3.628  0.00  0.00    -0.083 C 
BRANCH  11  12
ATOM     12  N   LIG    1       11.387  -0.293  -4.536  0.00  0.00    +0.379 N 
ATOM     13  H   LIG    1       11.376  -1.266  -4.207  0.00  0.00    -0.086 HD
ATOM     14  H   LIG    1       10.991  -0.248  -5.483  0.00  0.00    -0.086 HD
BRANCH  12  15
ATOM     15  C   LIG    1       12.778   0.195  -4.566  0.00  0.00    -0.083 C 
BRANCH  15  16
ATOM     16  C   LIG    1       13.597  -0.683  -5.515  0.00  0.00    -0.021 C 
BRANCH  16  17
ATOM     17  C   LIG    1       15.043  -0.182  -5.552  0.00  0.00    -0.021 C 
BRANCH  17  18
ATOM     18  C   LIG    1       15.862  -1.060  -6.500  0.00  0.00    -0.087 C 
BRANCH  18  19
ATOM     19  N   LIG    1       17.256  -0.584  -6.512  0.00  0.00    +0.378 N 
ATOM     20  H   LIG    1       17.650  -0.669  -5.568  0.00  0.00    -0.090 HD
ATOM     21  H   LIG    1       17.289   0.394  -6.798  0.00  0.00    -0.090 HD
ATOM     22  H   LIG    1       17.811  -1.144  -7.156  0.00  0.00    -0.090 HD
ENDBRANCH  18  19
ENDBRANCH  17  18
ENDBRANCH  16  17
ENDBRANCH  15  16
ENDBRANCH  12  15
ENDBRANCH  11  12
ENDBRANCH  10  11
ENDBRANCH   9  10
ENDBRANCH   8   9
ENDBRANCH   7   8
ENDBRANCH   6   7
ENDBRANCH   5   6
ENDBRANCH   2   5
BRANCH   1  23
ATOM     23  C   LIG    1       -0.013   1.086   0.008  0.00  0.00    +0.163 C 
BRANCH  23  25
ATOM     24  C   LIG    1       -0.838   2.880   1.435  0.00  0.00    +0.214 C 
ATOM     25  N   LIG    1       -0.698   1.558   1.213  0.00  0.00    -0.304 N 
ATOM     26  H   LIG    1       -1.052   0.920   1.852  0.00  0.00    +0.149 HD
ATOM     27  O   LIG    1       -0.395   3.679   0.637  0.00  0.00    -0.276 OA
BRANCH  24  28
ATOM     28  C   LIG    1       -1.543   3.366   2.675  0.00  0.00    +0.095 C 
BRANCH  28  30
ATOM     29  C   LIG    1       -2.280   5.390   3.942  0.00  0.00    +0.004 C 
ATOM     30  C   LIG    1       -1.564   4.896   2.683  0.00  0.00    +0.006 C 
ENDBRANCH  28  30
ENDBRANCH  24  28
ENDBRANCH  23  25
BRANCH  23  31
ATOM     31  C   LIG    1       -0.753   1.593  -1.232  0.00  0.00    +0.067 C 
BRANCH  31  32
ATOM     32  C   LIG    1       -2.126   0.973  -1.285  0.00  0.00    -0.045 A 
ATOM     33  C   LIG    1       -2.317  -0.223  -1.951  0.00  0.00    +0.007 A 
ATOM     34  C   LIG    1       -3.574  -0.796  -1.996  0.00  0.00    +0.045 A 
ATOM     35  C   LIG    1       -4.646  -0.164  -1.383  0.00  0.00    +0.117 A 
ATOM     36  C   LIG    1       -4.452   1.040  -0.721  0.00  0.00    +0.045 A 
ATOM     37  C   LIG    1       -3.192   1.606  -0.674  0.00  0.00    +0.007 A 
BRANCH  35  38
ATOM     38  O   LIG    1       -5.884  -0.722  -1.432  0.00  0.00    -0.507 OA
ATOM     39  H   LIG    1       -6.410  -0.445  -2.194  0.00  0.00    +0.292 HD
ENDBRANCH  35  38
ENDBRANCH  31  32
ENDBRANCH  23  31
ENDBRANCH   1  23
TORSDOF 20
