REMARK  Name = ZINC13494220
REMARK                            x       y       z     vdW  Elec       q    Type
REMARK                         _______ _______ _______ _____ _____    ______ ____
ROOT
ATOM      1  C   LIG    1        4.182  -1.989   0.528  0.00  0.00    +0.129 A 
ATOM      2  C   LIG    1        2.971  -2.606   0.241  0.00  0.00    +0.048 A 
ATOM      3  C   LIG    1        2.905  -3.979   0.130  0.00  0.00    +0.031 A 
ATOM      4  C   LIG    1        4.056  -4.748   0.307  0.00  0.00    +0.064 A 
ATOM      5  C   LIG    1        5.270  -4.124   0.595  0.00  0.00    +0.031 A 
ATOM      6  C   LIG    1        5.330  -2.751   0.699  0.00  0.00    +0.048 A 
ENDROOT
BRANCH   4   7
ATOM      7  N   LIG    1        3.993  -6.115   0.198  0.00  0.00    -0.256 NA
ATOM      8  C   LIG    1        4.794  -6.736  -0.602  0.00  0.00    +0.133 C 
BRANCH   8   9
ATOM      9  C   LIG    1        5.715  -5.955  -1.503  0.00  0.00    +0.249 C 
ATOM     10  C   LIG    1        5.452  -6.312  -2.943  0.00  0.00    +0.012 A 
ATOM     11  C   LIG    1        4.349  -6.212  -3.759  0.00  0.00    +0.008 A 
ATOM     12  C   LIG    1        4.422  -6.637  -5.074  0.00  0.00    +0.000 A 
ATOM     13  C   LIG    1        5.601  -7.164  -5.573  0.00  0.00    +0.001 A 
ATOM     14  C   LIG    1        6.713  -7.269  -4.764  0.00  0.00    +0.015 A 
ATOM     15  C   LIG    1        6.648  -6.842  -3.438  0.00  0.00    +0.066 A 
ATOM     16  C   LIG    1        7.633  -6.820  -2.341  0.00  0.00    +0.341 C 
ATOM     17  O   LIG    1        8.780  -7.210  -2.427  0.00  0.00    -0.245 OA
ATOM     18  O   LIG    1        7.076  -6.304  -1.233  0.00  0.00    -0.447 OA
ENDBRANCH   8   9
ENDBRANCH   4   7
BRANCH   1  19
ATOM     19  O   LIG    1        4.244  -0.636   0.636  0.00  0.00    -0.456 OA
BRANCH  19  23
ATOM     20  C   LIG    1        3.667   1.036   4.363  0.00  0.00    +0.000 A 
ATOM     21  C   LIG    1        3.646  -0.338   4.213  0.00  0.00    +0.004 A 
ATOM     22  C   LIG    1        3.839  -0.901   2.966  0.00  0.00    +0.046 A 
ATOM     23  C   LIG    1        4.053  -0.085   1.864  0.00  0.00    +0.128 A 
ATOM     24  C   LIG    1        4.074   1.294   2.018  0.00  0.00    +0.046 A 
ATOM     25  C   LIG    1        3.881   1.851   3.267  0.00  0.00    +0.004 A 
ENDBRANCH  19  23
ENDBRANCH   1  19
TORSDOF 4
