REMARK  Name = ZINC13523529
REMARK                            x       y       z     vdW  Elec       q    Type
REMARK                         _______ _______ _______ _____ _____    ______ ____
ROOT
ATOM      1  C   LIG    1        1.798   3.718   1.442  0.00  0.00    +0.165 C 
ENDROOT
BRANCH   1   2
ATOM      2  C   LIG    1        2.155   5.182   1.437  0.00  0.00    +0.237 C 
ATOM      3  N   LIG    1        1.359   6.067   0.805  0.00  0.00    -0.288 N 
ATOM      4  C   LIG    1        0.114   5.743   0.086  0.00  0.00    +0.109 C 
ATOM      5  C   LIG    1       -0.705   7.058   0.098  0.00  0.00    +0.021 C 
ATOM      6  C   LIG    1        0.412   8.121  -0.075  0.00  0.00    +0.033 C 
ATOM      7  C   LIG    1        1.587   7.517   0.722  0.00  0.00    +0.162 C 
ATOM      8  O   LIG    1        3.157   5.564   2.003  0.00  0.00    -0.274 OA
BRANCH   7   9
ATOM      9  C   LIG    1        2.884   7.792   0.005  0.00  0.00    +0.231 C 
ATOM     10  N   LIG    1        3.293   9.062  -0.185  0.00  0.00    -0.328 N 
ATOM     11  H   LIG    1        4.128   9.239  -0.646  0.00  0.00    +0.145 HD
ATOM     12  H   LIG    1        2.753   9.800   0.141  0.00  0.00    +0.145 HD
ATOM     13  O   LIG    1        3.559   6.871  -0.402  0.00  0.00    -0.274 OA
ENDBRANCH   7   9
ENDBRANCH   1   2
BRANCH   1  14
ATOM     14  N   LIG    1        2.812   2.970   2.190  0.00  0.00    -0.302 N 
ATOM     15  H   LIG    1        3.712   3.324   2.274  0.00  0.00    +0.150 HD
ATOM     16  C   LIG    1        2.495   1.792   2.761  0.00  0.00    +0.234 C 
ATOM     17  O   LIG    1        1.371   1.349   2.656  0.00  0.00    -0.274 OA
BRANCH  16  18
ATOM     18  C   LIG    1        3.539   1.023   3.531  0.00  0.00    +0.159 C 
ATOM     19  C   LIG    1        4.438   0.224   2.561  0.00  0.00    +0.041 C 
ATOM     20  C   LIG    1        3.730  -1.150   2.535  0.00  0.00    +0.098 C 
ATOM     21  C   LIG    1        2.987  -1.210   3.851  0.00  0.00    +0.214 C 
ATOM     22  O   LIG    1        2.537  -2.220   4.349  0.00  0.00    -0.276 OA
ATOM     23  N   LIG    1        2.899   0.020   4.390  0.00  0.00    -0.304 N 
ATOM     24  H   LIG    1        2.470   0.218   5.237  0.00  0.00    +0.149 HD
ENDBRANCH  16  18
ENDBRANCH   1  14
BRANCH   1  25
ATOM     25  C   LIG    1        1.743   3.202   0.003  0.00  0.00    +0.086 C 
BRANCH  25  27
ATOM     26  C   LIG    1       -0.017   1.365   0.009  0.00  0.00    +0.105 A 
ATOM     27  C   LIG    1        1.267   1.772  -0.001  0.00  0.00    +0.035 A 
ATOM     28  N   LIG    1        2.048   0.681  -0.014  0.00  0.00    -0.350 N 
ATOM     29  H   LIG    1        3.018   0.686  -0.023  0.00  0.00    +0.166 HD
ATOM     30  C   LIG    1        1.297  -0.386  -0.012  0.00  0.00    +0.171 A 
ATOM     31  N   LIG    1        0.002  -0.004   0.002  0.00  0.00    -0.352 N 
ATOM     32  H   LIG    1       -0.771  -0.590   0.006  0.00  0.00    +0.166 HD
ENDBRANCH  25  27
ENDBRANCH   1  25
TORSDOF 6
