REMARK  Name = ZINC13526610
REMARK                            x       y       z     vdW  Elec       q    Type
REMARK                         _______ _______ _______ _____ _____    ______ ____
ROOT
ATOM      1  C   LIG    1        5.487  -1.699   1.381  0.00  0.00    +0.064 A 
ATOM      2  N   LIG    1        5.727  -2.832   0.771  0.00  0.00    -0.178 NA
ATOM      3  N   LIG    1        6.947  -3.196   0.943  0.00  0.00    -0.271 N 
ATOM      4  H   LIG    1        7.346  -4.002   0.579  0.00  0.00    +0.189 HD
ATOM      5  C   LIG    1        7.594  -2.278   1.723  0.00  0.00    +0.143 A 
ATOM      6  C   LIG    1        6.661  -1.296   2.018  0.00  0.00    +0.059 A 
ENDROOT
BRANCH   5   7
ATOM      7  C   LIG    1        8.995  -2.323   2.158  0.00  0.00    +0.355 C 
ATOM      8  O   LIG    1        9.711  -3.256   1.821  0.00  0.00    -0.243 OA
BRANCH   7   9
ATOM      9  O   LIG    1        9.447  -1.427   2.859  0.00  0.00    -0.476 OA
ATOM     10  H   LIG    1        8.898  -0.712   3.117  0.00  0.00    +0.295 HD
ENDBRANCH   7   9
ENDBRANCH   5   7
BRANCH   1  11
ATOM     11  C   LIG    1        4.171  -0.963   1.399  0.00  0.00    +0.062 C 
BRANCH  11  12
ATOM     12  C   LIG    1        3.711  -0.707  -0.038  0.00  0.00    +0.041 C 
BRANCH  12  16
ATOM     13  C   LIG    1       -0.017   1.378   0.010  0.00  0.00    +0.000 A 
ATOM     14  C   LIG    1        1.171   2.086   0.002  0.00  0.00    +0.000 A 
ATOM     15  C   LIG    1        2.377   1.411  -0.013  0.00  0.00    +0.003 A 
ATOM     16  C   LIG    1        2.396   0.029  -0.020  0.00  0.00    -0.047 A 
ATOM     17  C   LIG    1        1.208  -0.679  -0.012  0.00  0.00    +0.003 A 
ATOM     18  C   LIG    1        0.002  -0.004   0.002  0.00  0.00    +0.000 A 
ENDBRANCH  12  16
ENDBRANCH  11  12
ENDBRANCH   1  11
TORSDOF 5
