REMARK  Name = ZINC13437730
REMARK                            x       y       z     vdW  Elec       q    Type
REMARK                         _______ _______ _______ _____ _____    ______ ____
ROOT
ATOM      1  C   LIG    1        2.232   1.527   0.215  0.00  0.00    +0.050 A 
ATOM      2  C   LIG    1        2.408   0.159   0.188  0.00  0.00    +0.007 A 
ATOM      3  C   LIG    1        1.301  -0.663  -0.041  0.00  0.00    -0.004 A 
ATOM      4  C   LIG    1        0.057  -0.056  -0.232  0.00  0.00    +0.008 A 
ATOM      5  C   LIG    1       -0.031   1.320  -0.189  0.00  0.00    +0.050 A 
ATOM      6  N   LIG    1        1.039   2.060   0.030  0.00  0.00    -0.255 NA
ENDROOT
BRANCH   3   7
ATOM      7  C   LIG    1        1.443  -2.139  -0.078  0.00  0.00    -0.017 A 
ATOM      8  C   LIG    1        0.828  -2.925   0.894  0.00  0.00    +0.011 A 
ATOM      9  C   LIG    1        0.959  -4.298   0.853  0.00  0.00    +0.039 A 
ATOM     10  C   LIG    1        1.710  -4.895  -0.147  0.00  0.00    +0.123 A 
ATOM     11  F   LIG    1        1.840  -6.239  -0.181  0.00  0.00    -0.205 F 
ATOM     12  C   LIG    1        2.328  -4.116  -1.113  0.00  0.00    +0.039 A 
ATOM     13  C   LIG    1        2.198  -2.743  -1.082  0.00  0.00    +0.011 A 
ENDBRANCH   3   7
BRANCH   1  15
ATOM     14  C   LIG    1        3.510   3.464  -0.659  0.00  0.00    +0.014 C 
ATOM     15  C   LIG    1        3.417   2.425   0.461  0.00  0.00    +0.032 C 
ATOM     16  C   LIG    1        3.248   3.138   1.804  0.00  0.00    +0.014 C 
ENDBRANCH   1  15
BRANCH   5  17
ATOM     17  C   LIG    1       -1.366   1.987  -0.400  0.00  0.00    +0.032 C 
ATOM     18  C   LIG    1       -1.336   2.786  -1.704  0.00  0.00    +0.014 C 
ATOM     19  C   LIG    1       -1.656   2.929   0.770  0.00  0.00    +0.014 C 
ENDBRANCH   5  17
BRANCH   2  20
ATOM     20  C   LIG    1        3.775  -0.440   0.401  0.00  0.00    +0.193 C 
BRANCH  20  21
ATOM     21  O   LIG    1        4.495  -0.436  -0.833  0.00  0.00    -0.390 OA
ATOM     22  H   LIG    1        5.385  -0.808  -0.770  0.00  0.00    +0.210 HD
ENDBRANCH  20  21
ENDBRANCH   2  20
BRANCH   4  23
ATOM     23  C   LIG    1       -1.172  -0.893  -0.482  0.00  0.00    +0.197 C 
BRANCH  23  24
ATOM     24  O   LIG    1       -1.871  -1.091   0.749  0.00  0.00    -0.378 OA
ATOM     25  C   LIG    1       -3.058  -1.877   0.622  0.00  0.00    +0.194 C 
ENDBRANCH  23  24
ENDBRANCH   4  23
TORSDOF 7
