REMARK  Name = ZINC13542109
REMARK                            x       y       z     vdW  Elec       q    Type
REMARK                         _______ _______ _______ _____ _____    ______ ____
ROOT
ATOM      1  CA  PRO A  2        4.666   1.727   4.077  0.00  0.00    +0.162 C 
ATOM      2  CB  PRO A  2        6.120   2.158   3.791  0.00  0.00    +0.033 C 
ATOM      3  CG  PRO A  2        6.571   2.777   5.140  0.00  0.00    +0.021 C 
ATOM      4  CD  PRO A  2        5.836   1.871   6.159  0.00  0.00    +0.108 C 
ATOM      5  N   PRO A  2        4.529   1.580   5.534  0.00  0.00    -0.289 N 
ATOM      6  C   TYR A  1        3.401   1.237   6.186  0.00  0.00    +0.233 C 
ATOM      7  O   TYR A  1        2.382   1.021   5.564  0.00  0.00    -0.274 OA
ENDROOT
BRANCH   1  10
ATOM      8  N   PHE A  3        4.451   0.315   2.057  0.00  0.00    -0.301 N 
ATOM      9  H   PHE A  3        4.689   1.092   1.527  0.00  0.00    +0.150 HD
ATOM     10  C   PRO A  2        4.378   0.412   3.400  0.00  0.00    +0.234 C 
ATOM     11  O   PRO A  2        4.080  -0.559   4.062  0.00  0.00    -0.274 OA
BRANCH   8  12
ATOM     12  CA  PHE A  3        4.171  -0.963   1.399  0.00  0.00    +0.186 C 
BRANCH  12  13
ATOM     13  C   PHE A  3        5.422  -1.804   1.383  0.00  0.00    +0.326 C 
ATOM     14  O   PHE A  3        6.516  -1.269   1.345  0.00  0.00    -0.249 OA
BRANCH  13  15
ATOM     15  OXT PHE A  3        5.338  -3.021   1.410  0.00  0.00    -0.479 OA
ATOM     16  HXT PHE A  3        4.497  -3.432   1.439  0.00  0.00    +0.295 HD
ENDBRANCH  13  15
ENDBRANCH  12  13
BRANCH  12  17
ATOM     17  CB  PHE A  3        3.711  -0.707  -0.038  0.00  0.00    +0.069 C 
BRANCH  17  21
ATOM     18  CZ  PHE A  3       -0.017   1.378   0.010  0.00  0.00    +0.000 A 
ATOM     19  CE1 PHE A  3        1.171   2.086   0.002  0.00  0.00    +0.000 A 
ATOM     20  CD1 PHE A  3        2.377   1.411  -0.013  0.00  0.00    +0.004 A 
ATOM     21  CG  PHE A  3        2.396   0.029  -0.020  0.00  0.00    -0.045 A 
ATOM     22  CD2 PHE A  3        1.208  -0.679  -0.012  0.00  0.00    +0.004 A 
ATOM     23  CE2 PHE A  3        0.002  -0.004   0.002  0.00  0.00    +0.000 A 
ENDBRANCH  17  21
ENDBRANCH  12  17
ENDBRANCH   8  12
ENDBRANCH   1  10
BRANCH   6  24
ATOM     24  CA  TYR A  1        3.405   1.122   7.689  0.00  0.00    +0.142 C 
BRANCH  24  25
ATOM     25  N   TYR A  1        2.027   1.217   8.190  0.00  0.00    -0.320 NA
ATOM     26  H1  TYR A  1        2.008   1.208   9.199  0.00  0.00    +0.119 HD
ATOM     27  H2  TYR A  1        1.453   0.480   7.811  0.00  0.00    +0.119 HD
ENDBRANCH  24  25
BRANCH  24  28
ATOM     28  CB  TYR A  1        4.004  -0.225   8.096  0.00  0.00    +0.063 C 
BRANCH  28  29
ATOM     29  CG  TYR A  1        4.121  -0.289   9.597  0.00  0.00    -0.045 A 
ATOM     30  CD2 TYR A  1        5.273   0.156  10.219  0.00  0.00    +0.007 A 
ATOM     31  CE2 TYR A  1        5.383   0.097  11.595  0.00  0.00    +0.045 A 
ATOM     32  CZ  TYR A  1        4.337  -0.408  12.352  0.00  0.00    +0.117 A 
ATOM     33  CE1 TYR A  1        3.182  -0.854  11.726  0.00  0.00    +0.045 A 
ATOM     34  CD1 TYR A  1        3.075  -0.789  10.350  0.00  0.00    +0.007 A 
BRANCH  32  35
ATOM     35  OH  TYR A  1        4.443  -0.467  13.706  0.00  0.00    -0.507 OA
ATOM     36  HH  TYR A  1        4.127   0.326  14.160  0.00  0.00    +0.292 HD
ENDBRANCH  32  35
ENDBRANCH  28  29
ENDBRANCH  24  28
ENDBRANCH   6  24
TORSDOF 11
