REMARK  Name = ZINC13468414
REMARK                            x       y       z     vdW  Elec       q    Type
REMARK                         _______ _______ _______ _____ _____    ______ ____
ROOT
ATOM      1  N   LIG    1        3.614  -1.864  -0.934  0.00  0.00    -0.289 NA
ATOM      2  C   LIG    1        3.189  -1.457  -2.281  0.00  0.00    +0.104 C 
ATOM      3  C   LIG    1        2.922  -2.706  -3.127  0.00  0.00    +0.124 C 
ATOM      4  N   LIG    1        4.116  -3.564  -3.084  0.00  0.00    -0.283 N 
ATOM      5  C   LIG    1        4.675  -4.028  -4.219  0.00  0.00    +0.302 C 
ATOM      6  N   LIG    1        5.825  -4.729  -4.166  0.00  0.00    -0.296 N 
ATOM      7  H   LIG    1        6.212  -4.962  -3.307  0.00  0.00    +0.151 HD
ATOM      8  O   LIG    1        4.143  -3.815  -5.291  0.00  0.00    -0.253 OA
ATOM      9  C   LIG    1        4.682  -3.903  -1.770  0.00  0.00    +0.124 C 
ATOM     10  C   LIG    1        4.880  -2.607  -0.977  0.00  0.00    +0.104 C 
ENDROOT
BRANCH   6  11
ATOM     11  C   LIG    1        6.492  -5.137  -5.404  0.00  0.00    +0.074 C 
ATOM     12  C   LIG    1        5.886  -6.451  -5.901  0.00  0.00    +0.022 C 
ATOM     13  C   LIG    1        6.583  -6.878  -7.194  0.00  0.00    +0.002 C 
ATOM     14  C   LIG    1        8.077  -7.074  -6.928  0.00  0.00    +0.000 C 
ATOM     15  C   LIG    1        8.683  -5.760  -6.432  0.00  0.00    +0.002 C 
ATOM     16  C   LIG    1        7.986  -5.333  -5.139  0.00  0.00    +0.022 C 
ENDBRANCH   6  11
BRANCH   1  17
ATOM     17  C   LIG    1        3.714  -0.702  -0.041  0.00  0.00    +0.117 C 
BRANCH  17  21
ATOM     18  C   LIG    1       -0.014   1.383   0.007  0.00  0.00    +0.000 A 
ATOM     19  C   LIG    1        1.174   2.090  -0.003  0.00  0.00    +0.000 A 
ATOM     20  C   LIG    1        2.380   1.416  -0.018  0.00  0.00    +0.005 A 
ATOM     21  C   LIG    1        2.399   0.033  -0.023  0.00  0.00    -0.026 A 
ATOM     22  C   LIG    1        1.211  -0.674  -0.013  0.00  0.00    +0.005 A 
ATOM     23  C   LIG    1        0.005   0.001   0.001  0.00  0.00    +0.000 A 
ENDBRANCH  17  21
BRANCH  17  24
ATOM     24  C   LIG    1        4.048  -1.168   1.353  0.00  0.00    -0.026 A 
ATOM     25  C   LIG    1        3.460  -2.313   1.859  0.00  0.00    +0.005 A 
ATOM     26  C   LIG    1        3.766  -2.740   3.137  0.00  0.00    +0.000 A 
ATOM     27  C   LIG    1        4.660  -2.023   3.910  0.00  0.00    +0.000 A 
ATOM     28  C   LIG    1        5.249  -0.879   3.404  0.00  0.00    +0.000 A 
ATOM     29  C   LIG    1        4.946  -0.454   2.124  0.00  0.00    +0.005 A 
ENDBRANCH  17  24
ENDBRANCH   1  17
TORSDOF 4
