REMARK  Name = ZINC13526597
REMARK                            x       y       z     vdW  Elec       q    Type
REMARK                         _______ _______ _______ _____ _____    ______ ____
ROOT
ATOM      1  C   LIG    1       -1.738  -1.024  -1.407  0.00  0.00    +0.068 A 
ATOM      2  N   LIG    1       -1.925  -0.112  -2.327  0.00  0.00    -0.178 NA
ATOM      3  N   LIG    1       -2.301  -0.646  -3.434  0.00  0.00    -0.271 N 
ATOM      4  H   LIG    1       -2.494  -0.161  -4.251  0.00  0.00    +0.189 HD
ATOM      5  C   LIG    1       -2.393  -2.002  -3.281  0.00  0.00    +0.143 A 
ATOM      6  C   LIG    1       -2.031  -2.268  -1.969  0.00  0.00    +0.059 A 
ENDROOT
BRANCH   5   7
ATOM      7  C   LIG    1       -2.793  -2.978  -4.300  0.00  0.00    +0.355 C 
ATOM      8  O   LIG    1       -3.089  -2.601  -5.426  0.00  0.00    -0.243 OA
BRANCH   7   9
ATOM      9  O   LIG    1       -2.831  -4.170  -4.024  0.00  0.00    -0.476 OA
ATOM     10  H   LIG    1       -2.604  -4.459  -3.162  0.00  0.00    +0.295 HD
ENDBRANCH   7   9
ENDBRANCH   5   7
BRANCH   1  11
ATOM     11  C   LIG    1       -1.293  -0.775   0.011  0.00  0.00    +0.092 C 
BRANCH  11  18
ATOM     12  C   LIG    1       -0.017   1.378   0.010  0.00  0.00    +0.005 A 
ATOM     13  C   LIG    1        1.171   2.086   0.002  0.00  0.00    +0.020 A 
ATOM     14  C   LIG    1        2.378   1.410  -0.013  0.00  0.00    +0.041 A 
ATOM     15 CL   LIG    1        3.870   2.298  -0.023  0.00  0.00    -0.084 Cl
ATOM     16  C   LIG    1        2.396   0.027  -0.021  0.00  0.00    +0.020 A 
ATOM     17  C   LIG    1        1.208  -0.679  -0.013  0.00  0.00    +0.005 A 
ATOM     18  C   LIG    1        0.002  -0.004   0.002  0.00  0.00    -0.041 A 
ENDBRANCH  11  18
ENDBRANCH   1  11
TORSDOF 4
