REMARK  Name = ZINC13442501
REMARK                            x       y       z     vdW  Elec       q    Type
REMARK                         _______ _______ _______ _____ _____    ______ ____
ROOT
ATOM      1  C   LIG    1       -0.017   1.388   0.010  0.00  0.00    +0.047 A 
ATOM      2  C   LIG    1        1.131   2.116   0.003  0.00  0.00    +0.030 A 
ATOM      3  C   LIG    1        2.394   1.482  -0.013  0.00  0.00    +0.055 A 
ATOM      4  C   LIG    1        2.384   0.067  -0.021  0.00  0.00    +0.042 A 
ATOM      5  S   LIG    1        4.117  -0.321  -0.039  0.00  0.00    -0.049 S 
ATOM      6  C   LIG    1        4.723   1.361  -0.036  0.00  0.00    +0.212 A 
ATOM      7  C   LIG    1        1.222  -0.664  -0.013  0.00  0.00    +0.062 A 
ATOM      8  N   LIG    1        3.617   2.055  -0.022  0.00  0.00    -0.333 N 
ATOM      9  H   LIG    1        3.677   3.023  -0.018  0.00  0.00    +0.168 HD
ATOM     10  C   LIG    1        0.002  -0.004   0.002  0.00  0.00    +0.118 A 
ENDROOT
BRANCH   6  11
ATOM     11  S   LIG    1        6.388   1.935  -0.049  0.00  0.00    +0.078 S 
ATOM     12  O   LIG    1        6.361   3.248  -0.592  0.00  0.00    -0.151 OA
ATOM     13  O   LIG    1        7.173   0.894  -0.613  0.00  0.00    -0.151 OA
BRANCH  11  14
ATOM     14  N   LIG    1        6.866   2.086   1.529  0.00  0.00    -0.202 NA
ATOM     15  H   LIG    1        7.763   2.393   1.737  0.00  0.00    +0.144 HD
ATOM     16  H   LIG    1        6.250   1.867   2.246  0.00  0.00    +0.144 HD
ENDBRANCH  11  14
ENDBRANCH   6  11
BRANCH  10  17
ATOM     17  O   LIG    1       -1.161  -0.708   0.009  0.00  0.00    -0.507 OA
ATOM     18  H   LIG    1       -1.506  -0.907  -0.872  0.00  0.00    +0.292 HD
ENDBRANCH  10  17
TORSDOF 3
