REMARK  Name = ZINC13285181
REMARK                            x       y       z     vdW  Elec       q    Type
REMARK                         _______ _______ _______ _____ _____    ______ ____
ROOT
ATOM      1  CA  LIG    1       -0.884   1.003   0.399  0.00  0.00    +0.046 C 
ENDROOT
BRANCH   1   2
ATOM      2  N   LIG    1       -2.192   0.358   0.175  0.00  0.00    +0.397 N 
ATOM      3  H1  LIG    1       -2.929   0.933   0.600  0.00  0.00    -0.084 HD
ATOM      4  H2  LIG    1       -2.189  -0.572   0.610  0.00  0.00    -0.084 HD
BRANCH   2   5
ATOM      5  CA  LIG    1       -2.454   0.220  -1.269  0.00  0.00    +0.040 C 
BRANCH   5   6
ATOM      6  C   LIG    1       -3.067   1.493  -1.794  0.00  0.00    +0.291 C 
ATOM      7  O   LIG    1       -3.259   2.423  -1.046  0.00  0.00    -0.253 OA
BRANCH   6   8
ATOM      8  OXT LIG    1       -3.398   1.594  -3.090  0.00  0.00    -0.482 OA
ATOM      9  HXT LIG    1       -3.250   0.873  -3.669  0.00  0.00    +0.295 HD
ENDBRANCH   6   8
ENDBRANCH   5   6
BRANCH   5  10
ATOM     10  CB  LIG    1       -3.424  -0.942  -1.494  0.00  0.00    -0.002 C 
BRANCH  10  12
ATOM     11  CD1 LIG    1       -2.235  -1.616  -3.586  0.00  0.00    +0.007 C 
ATOM     12  CG  LIG    1       -3.581  -1.192  -2.996  0.00  0.00    -0.018 C 
ATOM     13  CD2 LIG    1       -4.610  -2.301  -3.223  0.00  0.00    +0.007 C 
ENDBRANCH  10  12
ENDBRANCH   5  10
ENDBRANCH   2   5
ENDBRANCH   1   2
BRANCH   1  14
ATOM     14  C   LIG    1        0.215  -0.013   0.223  0.00  0.00    +0.291 C 
ATOM     15  O   LIG    1       -0.022  -1.190   0.360  0.00  0.00    -0.253 OA
BRANCH  14  16
ATOM     16  OXT LIG    1        1.457   0.388  -0.091  0.00  0.00    -0.482 OA
ATOM     17  HXT LIG    1        1.641   1.301  -0.197  0.00  0.00    +0.295 HD
ENDBRANCH  14  16
ENDBRANCH   1  14
BRANCH   1  18
ATOM     18  C   LIG    1       -0.837   1.564   1.821  0.00  0.00    +0.050 C 
BRANCH  18  19
ATOM     19  C   LIG    1       -1.855   2.666   1.960  0.00  0.00    +0.037 A 
ATOM     20  C   LIG    1       -3.161   2.521   2.253  0.00  0.00    +0.133 A 
ATOM     21  N   LIG    1       -3.718   3.740   2.285  0.00  0.00    -0.244 NA
ATOM     22  C   LIG    1       -2.806   4.636   2.022  0.00  0.00    +0.199 A 
ATOM     23  N   LIG    1       -1.628   4.009   1.819  0.00  0.00    -0.330 N 
BRANCH  23  24
ATOM     24  C   LIG    1       -0.347   4.645   1.502  0.00  0.00    +0.158 C 
BRANCH  24  25
ATOM     25  C   LIG    1       -0.146   4.656   0.009  0.00  0.00    -0.025 A 
ATOM     26  C   LIG    1        0.496   3.600  -0.610  0.00  0.00    +0.025 A 
ATOM     27  C   LIG    1        0.675   3.606  -1.981  0.00  0.00    +0.043 A 
ATOM     28 CL   LIG    1        1.475   2.276  -2.759  0.00  0.00    -0.083 Cl
ATOM     29  C   LIG    1        0.222   4.676  -2.733  0.00  0.00    +0.040 A 
ATOM     30  C   LIG    1       -0.416   5.735  -2.113  0.00  0.00    +0.043 A 
ATOM     31 CL   LIG    1       -0.986   7.077  -3.055  0.00  0.00    -0.083 Cl
ATOM     32  C   LIG    1       -0.599   5.725  -0.741  0.00  0.00    +0.025 A 
ENDBRANCH  24  25
ENDBRANCH  23  24
ENDBRANCH  18  19
ENDBRANCH   1  18
TORSDOF 12
