REMARK  Name = ZINC13451137
REMARK                            x       y       z     vdW  Elec       q    Type
REMARK                         _______ _______ _______ _____ _____    ______ ____
ROOT
ATOM      1  C   LIG    1       -4.197   3.526  -1.332  0.00  0.00    -0.028 A 
ATOM      2  C   LIG    1       -4.778   4.574  -2.022  0.00  0.00    +0.006 A 
ATOM      3  C   LIG    1       -5.221   4.391  -3.316  0.00  0.00    +0.009 A 
ATOM      4  C   LIG    1       -5.092   3.142  -3.923  0.00  0.00    -0.017 A 
ATOM      5  C   LIG    1       -4.511   2.088  -3.220  0.00  0.00    +0.009 A 
ATOM      6  C   LIG    1       -4.067   2.285  -1.929  0.00  0.00    +0.006 A 
ENDROOT
BRANCH   4   7
ATOM      7  C   LIG    1       -5.572   2.937  -5.311  0.00  0.00    -0.007 A 
ATOM      8  C   LIG    1       -4.740   2.348  -6.259  0.00  0.00    +0.009 A 
ATOM      9  C   LIG    1       -5.192   2.154  -7.549  0.00  0.00    +0.001 A 
ATOM     10  C   LIG    1       -6.468   2.552  -7.911  0.00  0.00    +0.001 A 
ATOM     11  C   LIG    1       -7.305   3.142  -6.986  0.00  0.00    +0.012 A 
ATOM     12  C   LIG    1       -6.867   3.340  -5.678  0.00  0.00    +0.028 A 
BRANCH  12  13
ATOM     13  C   LIG    1       -7.759   3.972  -4.683  0.00  0.00    +0.180 A 
ATOM     14  N   LIG    1       -9.010   4.414  -4.874  0.00  0.00    -0.239 N 
ATOM     15  H   LIG    1       -9.519   4.382  -5.716  0.00  0.00    +0.192 HD
ATOM     16  N   LIG    1       -9.452   4.925  -3.660  0.00  0.00    -0.046 NA
ATOM     17  N   LIG    1       -8.473   4.776  -2.835  0.00  0.00    -0.023 NA
ATOM     18  N   LIG    1       -7.474   4.219  -3.421  0.00  0.00    -0.108 NA
ENDBRANCH  12  13
ENDBRANCH   4   7
BRANCH   1  19
ATOM     19  C   LIG    1       -3.709   3.735   0.079  0.00  0.00    +0.158 C 
BRANCH  19  28
ATOM     20  C   LIG    1       -1.193   3.569   0.103  0.00  0.00    +0.111 A 
ATOM     21  N   LIG    1       -0.171   4.372   0.055  0.00  0.00    -0.232 NA
ATOM     22  C   LIG    1       -0.603   5.656  -0.033  0.00  0.00    +0.089 A 
ATOM     23  C   LIG    1        0.050   6.890  -0.111  0.00  0.00    +0.030 A 
ATOM     24  C   LIG    1       -0.679   8.042  -0.192  0.00  0.00    +0.002 A 
ATOM     25  C   LIG    1       -2.067   8.003  -0.196  0.00  0.00    +0.002 A 
ATOM     26  C   LIG    1       -2.732   6.798  -0.114  0.00  0.00    +0.028 A 
ATOM     27  C   LIG    1       -2.007   5.616  -0.037  0.00  0.00    +0.069 A 
ATOM     28  N   LIG    1       -2.350   4.282   0.050  0.00  0.00    -0.323 N 
BRANCH  20  29
ATOM     29  C   LIG    1       -1.108   2.068   0.204  0.00  0.00    +0.074 C 
BRANCH  29  30
ATOM     30  C   LIG    1       -0.970   1.663   1.673  0.00  0.00    +0.007 C 
BRANCH  30  32
ATOM     31  C   LIG    1       -0.645  -0.258   3.238  0.00  0.00    +0.004 C 
ATOM     32  C   LIG    1       -0.783   0.147   1.769  0.00  0.00    -0.003 C 
ENDBRANCH  30  32
ENDBRANCH  29  30
ENDBRANCH  20  29
ENDBRANCH  19  28
ENDBRANCH   1  19
TORSDOF 7
