REMARK  Name = ZINC13527994
REMARK                            x       y       z     vdW  Elec       q    Type
REMARK                         _______ _______ _______ _____ _____    ______ ____
ROOT
ATOM      1  N   LIG    1       -5.416  -2.983   0.544  0.00  0.00    -0.291 N 
ATOM      2  C   LIG    1       -4.772  -4.033   1.317  0.00  0.00    +0.203 C 
ATOM      3  C   LIG    1       -3.303  -4.102   1.054  0.00  0.00    +0.234 C 
ATOM      4  N   LIG    1       -2.645  -3.286   0.228  0.00  0.00    -0.276 N 
ATOM      5  C   LIG    1       -3.282  -2.167  -0.465  0.00  0.00    +0.167 C 
ATOM      6  C   LIG    1       -2.669  -0.851   0.035  0.00  0.00    +0.069 C 
ATOM      7  C   LIG    1       -1.169  -0.997   0.072  0.00  0.00    -0.015 A 
ATOM      8  C   LIG    1       -0.166   0.046   0.134  0.00  0.00    +0.003 A 
ATOM      9  C   LIG    1       -0.251   1.441   0.174  0.00  0.00    +0.010 A 
ATOM     10  C   LIG    1        0.933   2.134   0.231  0.00  0.00    +0.001 A 
ATOM     11  C   LIG    1        2.161   1.492   0.247  0.00  0.00    +0.002 A 
ATOM     12  C   LIG    1        2.274   0.113   0.209  0.00  0.00    +0.026 A 
ATOM     13  C   LIG    1        1.088  -0.616   0.152  0.00  0.00    +0.047 A 
ATOM     14  N   LIG    1        0.839  -1.958   0.105  0.00  0.00    -0.356 N 
ATOM     15  H   LIG    1        1.517  -2.651   0.106  0.00  0.00    +0.166 HD
ATOM     16  C   LIG    1       -0.512  -2.177   0.055  0.00  0.00    +0.046 A 
ATOM     17  C   LIG    1       -1.205  -3.518  -0.014  0.00  0.00    +0.154 C 
ATOM     18  O   LIG    1       -2.665  -4.956   1.632  0.00  0.00    -0.274 OA
ATOM     19  C   LIG    1       -4.761  -2.144  -0.256  0.00  0.00    +0.237 C 
ATOM     20  O   LIG    1       -5.407  -1.309  -0.853  0.00  0.00    -0.274 OA
ENDROOT
BRANCH  17  21
ATOM     21  C   LIG    1       -0.650  -4.437   1.044  0.00  0.00    -0.021 A 
ATOM     22  C   LIG    1       -0.221  -5.706   0.701  0.00  0.00    +0.006 A 
ATOM     23  C   LIG    1        0.293  -6.547   1.671  0.00  0.00    +0.000 A 
ATOM     24  C   LIG    1        0.368  -6.123   2.984  0.00  0.00    +0.000 A 
ATOM     25  C   LIG    1       -0.066  -4.856   3.328  0.00  0.00    +0.000 A 
ATOM     26  C   LIG    1       -0.575  -4.013   2.357  0.00  0.00    +0.006 A 
ENDBRANCH  17  21
BRANCH   1  27
ATOM     27  C   LIG    1       -6.870  -2.841   0.653  0.00  0.00    +0.108 C 
BRANCH  27  28
ATOM     28  C   LIG    1       -7.205  -1.875   1.791  0.00  0.00    +0.019 C 
BRANCH  28  30
ATOM     29  C   LIG    1       -9.057  -0.760   3.043  0.00  0.00    +0.004 C 
ATOM     30  C   LIG    1       -8.723  -1.726   1.905  0.00  0.00    -0.002 C 
ENDBRANCH  28  30
ENDBRANCH  27  28
ENDBRANCH   1  27
TORSDOF 4
