REMARK  Name = ZINC13491618
REMARK                            x       y       z     vdW  Elec       q    Type
REMARK                         _______ _______ _______ _____ _____    ______ ____
ROOT
ATOM      1  C   LIG    1        0.002  -0.004   0.002  0.00  0.00    +0.247 C 
ATOM      2  N   LIG    1       -1.155  -0.689  -0.092  0.00  0.00    -0.286 N 
ATOM      3  C   LIG    1       -2.500  -0.095  -0.187  0.00  0.00    +0.109 C 
ATOM      4  C   LIG    1       -3.364  -1.181  -0.880  0.00  0.00    +0.021 C 
ATOM      5  C   LIG    1       -2.785  -2.479  -0.257  0.00  0.00    +0.033 C 
ATOM      6  C   LIG    1       -1.284  -2.154  -0.112  0.00  0.00    +0.162 C 
ATOM      7  O   LIG    1       -0.014   1.210   0.062  0.00  0.00    -0.270 OA
ENDROOT
BRANCH   6   8
ATOM      8  C   LIG    1       -0.518  -2.720  -1.279  0.00  0.00    +0.236 C 
ATOM      9  N   LIG    1       -0.499  -4.051  -1.491  0.00  0.00    -0.300 N 
ATOM     10  C   LIG    1       -1.173  -5.060  -0.661  0.00  0.00    +0.108 C 
ATOM     11  C   LIG    1       -0.853  -6.442  -1.269  0.00  0.00    +0.020 C 
ATOM     12  C   LIG    1        0.450  -6.175  -2.067  0.00  0.00    +0.020 C 
ATOM     13  C   LIG    1        0.206  -4.737  -2.589  0.00  0.00    +0.108 C 
ATOM     14  O   LIG    1        0.081  -1.979  -2.029  0.00  0.00    -0.274 OA
ENDBRANCH   6   8
BRANCH   1  18
ATOM     15  C   LIG    1        3.703  -2.086   0.090  0.00  0.00    +0.000 A 
ATOM     16  C   LIG    1        3.567  -0.956  -0.696  0.00  0.00    +0.001 A 
ATOM     17  C   LIG    1        2.368  -0.275  -0.730  0.00  0.00    +0.013 A 
ATOM     18  C   LIG    1        1.290  -0.729   0.033  0.00  0.00    +0.037 A 
ATOM     19  C   LIG    1        1.436  -1.866   0.828  0.00  0.00    +0.013 A 
ATOM     20  C   LIG    1        2.639  -2.541   0.848  0.00  0.00    +0.001 A 
ENDBRANCH   1  18
TORSDOF 2
