REMARK  Name = ZINC13493575
REMARK                            x       y       z     vdW  Elec       q    Type
REMARK                         _______ _______ _______ _____ _____    ______ ____
ROOT
ATOM      1  C   LIG    1        1.394   4.806   0.246  0.00  0.00    +0.263 C 
ATOM      2  N   LIG    1        0.738   5.940  -0.070  0.00  0.00    -0.295 N 
ATOM      3  C   LIG    1       -0.726   5.960  -0.086  0.00  0.00    +0.132 C 
ATOM      4  O   LIG    1        2.611   4.793   0.270  0.00  0.00    -0.268 OA
ENDROOT
BRANCH   1  10
ATOM      5  C   LIG    1        2.561   1.945   0.467  0.00  0.00    +0.149 C 
ATOM      6  N   LIG    1        1.157   2.315   0.662  0.00  0.00    -0.346 N 
ATOM      7  C   LIG    1        0.150   1.463   0.974  0.00  0.00    +0.086 A 
ATOM      8  C   LIG    1       -1.004   2.165   1.070  0.00  0.00    +0.020 A 
ATOM      9  C   LIG    1       -0.712   3.509   0.817  0.00  0.00    +0.032 A 
ATOM     10  C   LIG    1        0.641   3.588   0.563  0.00  0.00    +0.104 A 
ENDBRANCH   1  10
BRANCH   2  11
ATOM     11  C   LIG    1        1.490   7.154  -0.398  0.00  0.00    +0.145 C 
BRANCH  11  12
ATOM     12  C   LIG    1        1.759   7.193  -1.881  0.00  0.00    +0.005 A 
ATOM     13  C   LIG    1        2.995   6.816  -2.370  0.00  0.00    +0.008 A 
ATOM     14  C   LIG    1        3.239   6.847  -3.730  0.00  0.00    +0.000 A 
ATOM     15  C   LIG    1        2.251   7.266  -4.602  0.00  0.00    +0.003 A 
ATOM     16  C   LIG    1        1.016   7.649  -4.115  0.00  0.00    +0.038 A 
ATOM     17  C   LIG    1        0.768   7.613  -2.753  0.00  0.00    +0.128 A 
ATOM     18  F   LIG    1       -0.438   7.988  -2.275  0.00  0.00    -0.205 F 
ENDBRANCH  11  12
ENDBRANCH   2  11
TORSDOF 3
