REMARK  Name = ZINC13519007
REMARK                            x       y       z     vdW  Elec       q    Type
REMARK                         _______ _______ _______ _____ _____    ______ ____
ROOT
ATOM      1  C   LIG    1        2.502   1.462  -0.013  0.00  0.00    +0.043 C 
ATOM      2  C   LIG    1        2.802   0.013  -0.403  0.00  0.00    +0.014 C 
ATOM      3  C   LIG    1        3.131   1.151  -1.372  0.00  0.00    -0.003 C 
ENDROOT
BRANCH   1   5
ATOM      4  C   LIG    1       -0.013   1.076   0.008  0.00  0.00    +0.107 A 
ATOM      5  C   LIG    1        1.058   1.893   0.002  0.00  0.00    +0.062 A 
ATOM      6  N   LIG    1        0.613   3.159   0.012  0.00  0.00    -0.241 NA
ATOM      7  C   LIG    1       -0.692   3.157   0.024  0.00  0.00    +0.196 A 
ATOM      8  N   LIG    1       -1.123   1.877   0.017  0.00  0.00    -0.351 N 
ATOM      9  H   LIG    1       -2.075   1.571   0.018  0.00  0.00    +0.166 HD
ENDBRANCH   1   5
BRANCH   3  10
ATOM     10  C   LIG    1        2.247   1.302  -2.612  0.00  0.00    -0.016 C 
BRANCH  10  11
ATOM     11  C   LIG    1        3.088   1.069  -3.869  0.00  0.00    -0.086 C 
BRANCH  11  12
ATOM     12  N   LIG    1        2.232   1.238  -5.057  0.00  0.00    +0.378 N 
ATOM     13  H   LIG    1        1.872   2.199  -5.080  0.00  0.00    -0.090 HD
ATOM     14  H   LIG    1        1.447   0.590  -5.016  0.00  0.00    -0.090 HD
ATOM     15  H   LIG    1        2.771   1.065  -5.903  0.00  0.00    -0.090 HD
ENDBRANCH  11  12
ENDBRANCH  10  11
ENDBRANCH   3  10
TORSDOF 4
