REMARK  Name = ZINC13522707
REMARK                            x       y       z     vdW  Elec       q    Type
REMARK                         _______ _______ _______ _____ _____    ______ ____
ROOT
ATOM      1  C   LIG    1        3.688  -0.813  -0.037  0.00  0.00    +0.044 C 
ATOM      2  C   LIG    1        2.401  -0.028  -0.021  0.00  0.00    -0.049 A 
ATOM      3  C   LIG    1        1.179  -0.685  -0.013  0.00  0.00    +0.005 A 
ATOM      4  C   LIG    1        0.002  -0.004   0.002  0.00  0.00    +0.029 A 
ATOM      5  C   LIG    1       -0.017   1.411   0.010  0.00  0.00    +0.079 A 
ATOM      6  C   LIG    1        1.244   2.052   0.001  0.00  0.00    +0.040 A 
ATOM      7  S   LIG    1        0.796   3.771   0.015  0.00  0.00    -0.067 S 
ATOM      8  C   LIG    1       -0.976   3.540   0.030  0.00  0.00    +0.109 A 
ATOM      9  N   LIG    1       -1.088   2.229   0.019  0.00  0.00    -0.239 NA
ATOM     10  C   LIG    1        2.427   1.355  -0.014  0.00  0.00    +0.020 A 
ENDROOT
BRANCH   8  11
ATOM     11  C   LIG    1       -2.044   4.561   0.046  0.00  0.00    +0.007 A 
ATOM     12  C   LIG    1       -1.714   5.918   0.056  0.00  0.00    +0.012 A 
ATOM     13  C   LIG    1       -2.712   6.868   0.065  0.00  0.00    +0.023 A 
ATOM     14  C   LIG    1       -4.046   6.476   0.076  0.00  0.00    +0.027 A 
ATOM     15  C   LIG    1       -4.378   5.125   0.071  0.00  0.00    +0.023 A 
ATOM     16  C   LIG    1       -3.385   4.171   0.057  0.00  0.00    +0.012 A 
BRANCH  14  17
ATOM     17  N   LIG    1       -5.054   7.439   0.092  0.00  0.00    -0.347 N 
ATOM     18  H   LIG    1       -5.985   7.168   0.100  0.00  0.00    +0.146 HD
ATOM     19  C   LIG    1       -4.706   8.863   0.097  0.00  0.00    +0.125 C 
ENDBRANCH  14  17
ENDBRANCH   8  11
TORSDOF 2
