REMARK  Name = ZINC13457874
REMARK                            x       y       z     vdW  Elec       q    Type
REMARK                         _______ _______ _______ _____ _____    ______ ____
ROOT
ATOM      1  C   LIG    1        1.403   7.300   0.026  0.00  0.00    +0.136 A 
ATOM      2  C   LIG    1        0.317   8.147   0.041  0.00  0.00    +0.050 A 
ATOM      3  C   LIG    1        0.817   9.451   0.042  0.00  0.00    +0.050 A 
ATOM      4  C   LIG    1        2.197   9.351   0.028  0.00  0.00    +0.130 A 
ATOM      5  O   LIG    1        2.525   8.043   0.025  0.00  0.00    -0.455 OA
ENDROOT
BRANCH   4   6
ATOM      6  C   LIG    1        3.105  10.433   0.024  0.00  0.00    +0.066 C 
ATOM      7  C   LIG    1        4.448  10.195   0.009  0.00  0.00    +0.077 C 
ATOM      8  C   LIG    1        5.571  11.150  -0.004  0.00  0.00    +0.217 C 
ATOM      9  N   LIG    1        6.789  10.635  -0.012  0.00  0.00    -0.165 NA
ATOM     10  C   LIG    1        6.989   9.301  -0.020  0.00  0.00    +0.139 C 
ATOM     11  S   LIG    1        8.474   8.449  -0.038  0.00  0.00    -0.026 S 
ATOM     12  S   LIG    1        5.330   8.640  -0.007  0.00  0.00    -0.060 S 
BRANCH   8  13
ATOM     13  O   LIG    1        5.386  12.354  -0.003  0.00  0.00    -0.493 OA
ATOM     14  H   LIG    1        4.513  12.694   0.003  0.00  0.00    +0.294 HD
ENDBRANCH   8  13
ENDBRANCH   4   6
BRANCH   1  20
ATOM     15  C   LIG    1        2.529   5.081   0.005  0.00  0.00    +0.012 A 
ATOM     16  C   LIG    1        2.476   3.717  -0.002  0.00  0.00    +0.015 A 
ATOM     17  C   LIG    1        1.238   3.065   0.007  0.00  0.00    +0.059 A 
ATOM     18  C   LIG    1        0.055   3.810   0.016  0.00  0.00    +0.015 A 
ATOM     19  C   LIG    1        0.108   5.175   0.029  0.00  0.00    +0.012 A 
ATOM     20  C   LIG    1        1.346   5.827   0.020  0.00  0.00    +0.017 A 
BRANCH  17  21
ATOM     21  C   LIG    1        1.181   1.591  -0.001  0.00  0.00    +0.337 C 
ATOM     22  O   LIG    1        2.209   0.943  -0.014  0.00  0.00    -0.245 OA
BRANCH  21  23
ATOM     23  O   LIG    1       -0.011   0.963   0.007  0.00  0.00    -0.477 OA
ATOM     24  H   LIG    1       -0.804   1.462   0.018  0.00  0.00    +0.295 HD
ENDBRANCH  21  23
ENDBRANCH  17  21
ENDBRANCH   1  20
TORSDOF 5
