REMARK  Name = ZINC13281814
REMARK                            x       y       z     vdW  Elec       q    Type
REMARK                         _______ _______ _______ _____ _____    ______ ____
ROOT
ATOM      1  C   LIG    1       -3.042   1.669   0.295  0.00  0.00    +0.115 C 
ATOM      2  C   LIG    1       -3.711   3.019   0.029  0.00  0.00    +0.036 C 
ENDROOT
BRANCH   1   9
ATOM      3  C   LIG    1       -0.013   1.086   0.008  0.00  0.00    +0.084 C 
ATOM      4  C   LIG    1       -0.718   1.572   1.248  0.00  0.00    +0.084 A 
ATOM      5  N   LIG    1       -0.152   1.827   2.395  0.00  0.00    -0.350 N 
ATOM      6  H   LIG    1        0.850   1.729   2.597  0.00  0.00    +0.166 HD
ATOM      7  C   LIG    1       -1.083   2.239   3.268  0.00  0.00    +0.101 A 
ATOM      8  C   LIG    1       -2.273   2.238   2.637  0.00  0.00    +0.105 A 
ATOM      9  N   LIG    1       -2.041   1.821   1.354  0.00  0.00    -0.329 N 
ENDBRANCH   1   9
BRANCH   1  10
ATOM     10  C   LIG    1       -4.083   0.669   0.728  0.00  0.00    -0.025 A 
ATOM     11  C   LIG    1       -4.829   0.898   1.869  0.00  0.00    +0.005 A 
ATOM     12  C   LIG    1       -5.788  -0.017   2.264  0.00  0.00    +0.000 A 
ATOM     13  C   LIG    1       -5.993  -1.165   1.522  0.00  0.00    +0.000 A 
ATOM     14  C   LIG    1       -5.244  -1.397   0.384  0.00  0.00    +0.000 A 
ATOM     15  C   LIG    1       -4.288  -0.480  -0.013  0.00  0.00    +0.005 A 
ENDBRANCH   1  10
TORSDOF 2
