REMARK  Name = ZINC13525256
REMARK                            x       y       z     vdW  Elec       q    Type
REMARK                         _______ _______ _______ _____ _____    ______ ____
ROOT
ATOM      1  C   LIG    1       -1.787   0.733  -1.031  0.00  0.00    +0.023 C 
ATOM      2  C   LIG    1       -0.372   1.374  -0.874  0.00  0.00    +0.024 C 
ATOM      3  C   LIG    1       -0.727   2.740  -0.180  0.00  0.00    +0.038 C 
ATOM      4  C   LIG    1       -1.481   2.076   1.026  0.00  0.00    +0.123 C 
ATOM      5  O   LIG    1       -0.483   1.129   1.503  0.00  0.00    -0.376 OA
ATOM      6  C   LIG    1        0.234   0.631   0.358  0.00  0.00    +0.164 C 
ATOM      7  C   LIG    1       -2.528   1.202   0.270  0.00  0.00    +0.029 C 
ENDROOT
BRANCH   1   9
ATOM      8  C   LIG    1       -2.870   0.456  -3.201  0.00  0.00    -0.000 C 
ATOM      9  C   LIG    1       -2.480   1.273  -2.255  0.00  0.00    -0.024 C 
BRANCH   8  10
ATOM     10  C   LIG    1       -3.562   0.996  -4.426  0.00  0.00    +0.137 C 
BRANCH  10  11
ATOM     11  O   LIG    1       -3.572   2.424  -4.377  0.00  0.00    -0.388 OA
ATOM     12  H   LIG    1       -2.692   2.822  -4.348  0.00  0.00    +0.210 HD
ENDBRANCH  10  11
BRANCH  10  13
ATOM     13  C   LIG    1       -2.816   0.534  -5.679  0.00  0.00    +0.035 C 
BRANCH  13  14
ATOM     14  C   LIG    1       -3.588   0.976  -6.924  0.00  0.00    +0.003 C 
BRANCH  14  15
ATOM     15  C   LIG    1       -2.842   0.514  -8.178  0.00  0.00    -0.000 C 
BRANCH  15  17
ATOM     16  C   LIG    1       -2.867   0.495 -10.676  0.00  0.00    +0.004 C 
ATOM     17  C   LIG    1       -3.613   0.957  -9.423  0.00  0.00    -0.003 C 
ENDBRANCH  15  17
ENDBRANCH  14  15
ENDBRANCH  13  14
ENDBRANCH  10  13
ENDBRANCH   8  10
ENDBRANCH   1   9
BRANCH   7  18
ATOM     18  C   LIG    1       -2.922  -0.010   1.115  0.00  0.00    +0.033 C 
BRANCH  18  19
ATOM     19  C   LIG    1       -3.664   0.452   2.343  0.00  0.00    -0.031 C 
ATOM     20  C   LIG    1       -4.832  -0.063   2.636  0.00  0.00    -0.031 C 
BRANCH  20  21
ATOM     21  C   LIG    1       -5.359  -1.233   1.846  0.00  0.00    +0.027 C 
BRANCH  21  22
ATOM     22  C   LIG    1       -5.735  -2.366   2.803  0.00  0.00    +0.015 C 
BRANCH  22  23
ATOM     23  C   LIG    1       -6.270  -3.555   2.002  0.00  0.00    +0.121 C 
BRANCH  23  24
ATOM     24  C   LIG    1       -6.640  -4.670   2.944  0.00  0.00    +0.305 C 
ATOM     25  O   LIG    1       -6.492  -4.530   4.135  0.00  0.00    -0.251 OA
BRANCH  24  26
ATOM     26  O   LIG    1       -7.135  -5.821   2.461  0.00  0.00    -0.481 OA
ATOM     27  H   LIG    1       -7.250  -5.930   1.537  0.00  0.00    +0.295 HD
ENDBRANCH  24  26
ENDBRANCH  23  24
ENDBRANCH  22  23
ENDBRANCH  21  22
ENDBRANCH  20  21
ENDBRANCH  18  19
ENDBRANCH   7  18
TORSDOF 14
