REMARK  Name = ZINC13524661
REMARK                            x       y       z     vdW  Elec       q    Type
REMARK                         _______ _______ _______ _____ _____    ______ ____
ROOT
ATOM      1  C   LIG    1       -2.065  -0.645  -1.168  0.00  0.00    +0.397 C 
ATOM      2  N   LIG    1       -1.449  -0.313  -2.256  0.00  0.00    +0.058 NA
ATOM      3  S   LIG    1       -2.201  -0.428  -3.729  0.00  0.00    +0.158 S 
ATOM      4  C   LIG    1       -3.919  -0.624  -3.381  0.00  0.00    +0.165 A 
ATOM      5  C   LIG    1       -4.863  -0.461  -4.371  0.00  0.00    +0.053 A 
ATOM      6  C   LIG    1       -6.206  -0.618  -4.073  0.00  0.00    +0.043 A 
ATOM      7 CL   LIG    1       -7.401  -0.414  -5.316  0.00  0.00    -0.083 Cl
ATOM      8  C   LIG    1       -6.596  -0.937  -2.784  0.00  0.00    +0.023 A 
ATOM      9  C   LIG    1       -5.652  -1.101  -1.790  0.00  0.00    +0.043 A 
ATOM     10  C   LIG    1       -4.302  -0.947  -2.084  0.00  0.00    +0.120 A 
ATOM     11  O   LIG    1       -2.048   0.832  -4.367  0.00  0.00    -0.132 OA
ATOM     12  O   LIG    1       -1.761  -1.643  -4.321  0.00  0.00    -0.132 OA
ATOM     13  N   LIG    1       -3.337  -1.122  -1.093  0.00  0.00    -0.203 N 
ATOM     14  H   LIG    1       -3.590  -1.612  -0.295  0.00  0.00    +0.251 HD
ENDROOT
BRANCH   1  15
ATOM     15  N   LIG    1       -1.372  -0.511   0.012  0.00  0.00    -0.234 N 
ATOM     16  H   LIG    1       -1.794  -0.752   0.852  0.00  0.00    +0.245 HD
BRANCH  15  18
ATOM     17  C   LIG    1       -0.019   1.526   0.010  0.00  0.00    +0.045 C 
ATOM     18  C   LIG    1        0.002  -0.004   0.002  0.00  0.00    +0.130 C 
ATOM     19  C   LIG    1        0.742  -0.511   1.242  0.00  0.00    +0.045 C 
ENDBRANCH  15  18
ENDBRANCH   1  15
TORSDOF 2
