REMARK  Name = ZINC13298313
REMARK                            x       y       z     vdW  Elec       q    Type
REMARK                         _______ _______ _______ _____ _____    ______ ____
ROOT
ATOM      1  C   LIG    1       -0.016   1.335   0.009  0.00  0.00    +0.120 A 
ATOM      2  C   LIG    1        1.291   1.774  -0.001  0.00  0.00    +0.099 A 
ATOM      3  C   LIG    1        1.939   3.033  -0.001  0.00  0.00    +0.226 A 
ATOM      4  N   LIG    1        3.262   3.054  -0.013  0.00  0.00    -0.201 NA
ATOM      5  C   LIG    1        3.987   1.944  -0.026  0.00  0.00    +0.227 A 
ATOM      6  N   LIG    1        3.474   0.740  -0.028  0.00  0.00    -0.214 NA
ATOM      7  C   LIG    1        2.138   0.569  -0.015  0.00  0.00    +0.188 A 
ATOM      8  N   LIG    1        1.324  -0.464  -0.013  0.00  0.00    -0.154 NA
ATOM      9  N   LIG    1        0.002  -0.004   0.002  0.00  0.00    -0.282 N 
ATOM     10  H   LIG    1       -0.785  -0.572   0.007  0.00  0.00    +0.188 HD
ENDROOT
BRANCH   3  11
ATOM     11  O   LIG    1        1.226   4.181   0.013  0.00  0.00    -0.492 OA
ATOM     12  H   LIG    1        0.289   4.151   0.022  0.00  0.00    +0.294 HD
ENDBRANCH   3  11
TORSDOF 1
