REMARK  Name = ZINC13523533
REMARK                            x       y       z     vdW  Elec       q    Type
REMARK                         _______ _______ _______ _____ _____    ______ ____
ROOT
ATOM      1  C   LIG    1        1.798   3.718   1.437  0.00  0.00    +0.165 C 
ENDROOT
BRANCH   1   2
ATOM      2  C   LIG    1        2.500   5.051   1.471  0.00  0.00    +0.237 C 
ATOM      3  N   LIG    1        3.840   5.110   1.334  0.00  0.00    -0.288 N 
ATOM      4  C   LIG    1        4.725   3.968   1.041  0.00  0.00    +0.109 C 
ATOM      5  C   LIG    1        5.979   4.598   0.386  0.00  0.00    +0.021 C 
ATOM      6  C   LIG    1        6.125   5.915   1.193  0.00  0.00    +0.033 C 
ATOM      7  C   LIG    1        4.659   6.325   1.447  0.00  0.00    +0.162 C 
ATOM      8  O   LIG    1        1.860   6.070   1.622  0.00  0.00    -0.274 OA
BRANCH   7   9
ATOM      9  C   LIG    1        4.526   6.907   2.830  0.00  0.00    +0.231 C 
ATOM     10  N   LIG    1        5.195   8.031   3.157  0.00  0.00    -0.328 N 
ATOM     11  H   LIG    1        5.109   8.405   4.047  0.00  0.00    +0.145 HD
ATOM     12  H   LIG    1        5.763   8.464   2.501  0.00  0.00    +0.145 HD
ATOM     13  O   LIG    1        3.815   6.365   3.651  0.00  0.00    -0.274 OA
ENDBRANCH   7   9
ENDBRANCH   1   2
BRANCH   1  14
ATOM     14  N   LIG    1        0.566   3.795   2.226  0.00  0.00    -0.302 N 
ATOM     15  H   LIG    1        0.129   4.651   2.361  0.00  0.00    +0.150 HD
ATOM     16  C   LIG    1        0.039   2.677   2.764  0.00  0.00    +0.234 C 
ATOM     17  O   LIG    1        0.585   1.607   2.595  0.00  0.00    -0.274 OA
BRANCH  16  18
ATOM     18  C   LIG    1       -1.228   2.756   3.575  0.00  0.00    +0.159 C 
ATOM     19  C   LIG    1       -0.912   3.210   5.018  0.00  0.00    +0.041 C 
ATOM     20  C   LIG    1       -0.764   1.856   5.749  0.00  0.00    +0.098 C 
ATOM     21  C   LIG    1       -1.581   0.893   4.916  0.00  0.00    +0.214 C 
ATOM     22  O   LIG    1       -1.957  -0.199   5.286  0.00  0.00    -0.276 OA
ATOM     23  N   LIG    1       -1.833   1.425   3.705  0.00  0.00    -0.304 N 
ATOM     24  H   LIG    1       -2.346   0.987   3.009  0.00  0.00    +0.149 HD
ENDBRANCH  16  18
ENDBRANCH   1  14
BRANCH   1  25
ATOM     25  C   LIG    1        1.455   3.359  -0.010  0.00  0.00    +0.086 C 
BRANCH  25  27
ATOM     26  C   LIG    1       -0.445   1.675   0.142  0.00  0.00    +0.105 A 
ATOM     27  C   LIG    1        0.852   1.979  -0.056  0.00  0.00    +0.035 A 
ATOM     28  N   LIG    1        1.512   0.838  -0.302  0.00  0.00    -0.350 N 
ATOM     29  H   LIG    1        2.463   0.767  -0.480  0.00  0.00    +0.166 HD
ATOM     30  C   LIG    1        0.674  -0.162  -0.263  0.00  0.00    +0.171 A 
ATOM     31  N   LIG    1       -0.558   0.317   0.011  0.00  0.00    -0.352 N 
ATOM     32  H   LIG    1       -1.372  -0.204   0.099  0.00  0.00    +0.166 HD
ENDBRANCH  25  27
ENDBRANCH   1  25
TORSDOF 6
