REMARK  Name = ZINC13519007
REMARK                            x       y       z     vdW  Elec       q    Type
REMARK                         _______ _______ _______ _____ _____    ______ ____
ROOT
ATOM      1  C   LIG    1        2.502   1.462  -0.013  0.00  0.00    +0.040 C 
ATOM      2  C   LIG    1        2.802   0.013  -0.403  0.00  0.00    +0.014 C 
ATOM      3  C   LIG    1        3.131   1.151  -1.372  0.00  0.00    -0.003 C 
ENDROOT
BRANCH   1   5
ATOM      4  C   LIG    1       -0.013   1.076   0.008  0.00  0.00    +0.105 A 
ATOM      5  C   LIG    1        1.058   1.893   0.002  0.00  0.00    +0.036 A 
ATOM      6  N   LIG    1        0.613   3.158   0.012  0.00  0.00    -0.350 N 
ATOM      7  H   LIG    1        1.206   3.996   0.011  0.00  0.00    +0.166 HD
ATOM      8  C   LIG    1       -0.692   3.157   0.024  0.00  0.00    +0.171 A 
ATOM      9  N   LIG    1       -1.123   1.877   0.017  0.00  0.00    -0.352 N 
ATOM     10  H   LIG    1       -2.075   1.571   0.018  0.00  0.00    +0.166 HD
ENDBRANCH   1   5
BRANCH   3  11
ATOM     11  C   LIG    1        2.247   1.302  -2.612  0.00  0.00    -0.016 C 
BRANCH  11  12
ATOM     12  C   LIG    1        3.088   1.069  -3.869  0.00  0.00    -0.086 C 
BRANCH  12  13
ATOM     13  N   LIG    1        2.232   1.238  -5.057  0.00  0.00    +0.378 N 
ATOM     14  H   LIG    1        1.872   2.199  -5.080  0.00  0.00    -0.090 HD
ATOM     15  H   LIG    1        1.447   0.590  -5.016  0.00  0.00    -0.090 HD
ATOM     16  H   LIG    1        2.771   1.065  -5.903  0.00  0.00    -0.090 HD
ENDBRANCH  12  13
ENDBRANCH  11  12
ENDBRANCH   3  11
TORSDOF 4
