REMARK  Name = ZINC13450376
REMARK                            x       y       z     vdW  Elec       q    Type
REMARK                         _______ _______ _______ _____ _____    ______ ____
ROOT
ATOM      1  C   LIG    1       -0.207  -3.114  -2.870  0.00  0.00    -0.047 A 
ATOM      2  C   LIG    1       -1.246  -2.347  -3.364  0.00  0.00    +0.004 A 
ATOM      3  C   LIG    1       -1.218  -0.972  -3.223  0.00  0.00    +0.004 A 
ATOM      4  C   LIG    1       -0.151  -0.364  -2.589  0.00  0.00    -0.049 A 
ATOM      5  C   LIG    1        0.890  -1.131  -2.100  0.00  0.00    +0.004 A 
ATOM      6  C   LIG    1        0.860  -2.506  -2.236  0.00  0.00    +0.004 A 
ENDROOT
BRANCH   1   7
ATOM      7  C   LIG    1       -0.239  -4.613  -3.022  0.00  0.00    +0.035 C 
BRANCH   7   9
ATOM      8  C   LIG    1        0.404  -6.528  -4.493  0.00  0.00    +0.004 C 
ATOM      9  C   LIG    1        0.435  -5.006  -4.338  0.00  0.00    +0.001 C 
ENDBRANCH   7   9
ENDBRANCH   1   7
BRANCH   4  10
ATOM     10  C   LIG    1       -0.120   1.135  -2.436  0.00  0.00    +0.018 C 
BRANCH  10  11
ATOM     11  C   LIG    1       -0.795   1.527  -1.120  0.00  0.00    -0.074 C 
ATOM     12  C   LIG    1       -0.876   3.052  -1.022  0.00  0.00    -0.014 C 
BRANCH  11  13
ATOM     13  N   LIG    1       -0.025   1.014   0.027  0.00  0.00    +0.380 N 
ATOM     14  H   LIG    1       -0.476   1.316   0.899  0.00  0.00    -0.090 HD
ATOM     15  H   LIG    1        0.925   1.379   0.001  0.00  0.00    -0.090 HD
ATOM     16  H   LIG    1        0.002  -0.004   0.002  0.00  0.00    -0.090 HD
ENDBRANCH  11  13
ENDBRANCH  10  11
ENDBRANCH   4  10
TORSDOF 5
