REMARK  Name = ZINC13108134
REMARK                            x       y       z     vdW  Elec       q    Type
REMARK                         _______ _______ _______ _____ _____    ______ ____
ROOT
ATOM      1  C   LIG    1        1.746   3.198   0.004  0.00  0.00    +0.040 C 
ATOM      2  C   LIG    1        2.038   3.635   1.441  0.00  0.00    +0.028 C 
ATOM      3  C   LIG    1        2.486   5.100   1.444  0.00  0.00    +0.107 C 
ATOM      4  N   LIG    1        3.623   5.249   0.525  0.00  0.00    -0.313 N 
ATOM      5  C   LIG    1        3.479   4.776  -0.859  0.00  0.00    +0.107 C 
ATOM      6  C   LIG    1        3.020   3.315  -0.836  0.00  0.00    +0.028 C 
ENDROOT
BRANCH   1   8
ATOM      7  C   LIG    1       -0.011   1.358   0.012  0.00  0.00    +0.105 A 
ATOM      8  C   LIG    1        1.272   1.767   0.001  0.00  0.00    +0.036 A 
ATOM      9  N   LIG    1        2.054   0.678  -0.012  0.00  0.00    -0.350 N 
ATOM     10  H   LIG    1        3.024   0.683  -0.022  0.00  0.00    +0.166 HD
ATOM     11  C   LIG    1        1.305  -0.391  -0.011  0.00  0.00    +0.171 A 
ATOM     12  N   LIG    1        0.009  -0.010   0.004  0.00  0.00    -0.352 N 
ATOM     13  H   LIG    1       -0.763  -0.598   0.009  0.00  0.00    +0.166 HD
ENDBRANCH   1   8
BRANCH   4  14
ATOM     14  C   LIG    1        4.775   5.808   0.943  0.00  0.00    +0.133 C 
ATOM     15  S   LIG    1        4.883   6.471   2.518  0.00  0.00    -0.019 S 
BRANCH  14  16
ATOM     16  N   LIG    1        5.843   5.846   0.121  0.00  0.00    -0.324 N 
ATOM     17  H   LIG    1        5.761   5.537  -0.795  0.00  0.00    +0.148 HD
BRANCH  16  18
ATOM     18  C   LIG    1        7.127   6.352   0.612  0.00  0.00    +0.072 C 
ATOM     19  C   LIG    1        7.888   5.222   1.309  0.00  0.00    +0.022 C 
ATOM     20  C   LIG    1        9.229   5.751   1.821  0.00  0.00    +0.002 C 
ATOM     21  C   LIG    1       10.056   6.271   0.644  0.00  0.00    +0.000 C 
ATOM     22  C   LIG    1        9.295   7.401  -0.054  0.00  0.00    +0.002 C 
ATOM     23  C   LIG    1        7.954   6.872  -0.566  0.00  0.00    +0.022 C 
ENDBRANCH  16  18
ENDBRANCH  14  16
ENDBRANCH   4  14
TORSDOF 4
