REMARK  Name = ZINC13530245
REMARK                            x       y       z     vdW  Elec       q    Type
REMARK                         _______ _______ _______ _____ _____    ______ ____
ROOT
ATOM      1  C   LIG    1        1.728  -1.866  -0.025  0.00  0.00    +0.039 C 
ATOM      2  C   LIG    1        3.185  -2.150   0.342  0.00  0.00    +0.012 C 
ATOM      3  C   LIG    1        2.066  -2.512   1.320  0.00  0.00    -0.019 C 
ENDROOT
BRANCH   1   5
ATOM      4  C   LIG    1        2.075   0.653  -0.014  0.00  0.00    +0.105 A 
ATOM      5  C   LIG    1        1.274  -0.429  -0.012  0.00  0.00    +0.036 A 
ATOM      6  N   LIG    1        0.002  -0.004   0.002  0.00  0.00    -0.350 N 
ATOM      7  H   LIG    1       -0.821  -0.733   0.006  0.00  0.00    +0.166 HD
ATOM      8  C   LIG    1       -0.016   1.301   0.009  0.00  0.00    +0.171 A 
ATOM      9  N   LIG    1        1.258   1.751  -0.001  0.00  0.00    -0.352 N 
ATOM     10  H   LIG    1        1.693   2.761   0.001  0.00  0.00    +0.166 HD
ENDBRANCH   1   5
BRANCH   3  11
ATOM     11  C   LIG    1        1.918  -1.649   2.575  0.00  0.00    -0.082 C 
BRANCH  11  12
ATOM     12  N   LIG    1        2.170  -2.471   3.767  0.00  0.00    +0.378 N 
ATOM     13  H   LIG    1        1.444  -3.297   3.802  0.00  0.00    -0.090 HD
ATOM     14  H   LIG    1        3.189  -2.880   3.721  0.00  0.00    -0.090 HD
ATOM     15  H   LIG    1        2.063  -1.851   4.669  0.00  0.00    -0.090 HD
ENDBRANCH  11  12
ENDBRANCH   3  11
TORSDOF 3
