REMARK  Name = ZINC13472986
REMARK                            x       y       z     vdW  Elec       q    Type
REMARK                         _______ _______ _______ _____ _____    ______ ____
ROOT
ATOM      1  C   LIG    1       -1.305   2.116   0.020  0.00  0.00    +0.118 A 
ATOM      2  N   LIG    1       -2.498   1.551   0.023  0.00  0.00    -0.326 N 
ATOM      3  H   LIG    1       -2.672   0.539   0.018  0.00  0.00    +0.169 HD
ATOM      4  C   LIG    1       -3.442   2.493   0.033  0.00  0.00    +0.143 A 
ATOM      5  N   LIG    1       -4.827   2.457   0.041  0.00  0.00    -0.292 N 
ATOM      6  C   LIG    1       -5.533   3.603   0.051  0.00  0.00    +0.328 A 
ATOM      7  N   LIG    1       -4.929   4.804   0.055  0.00  0.00    -0.273 N 
ATOM      8  C   LIG    1       -3.584   4.905   0.048  0.00  0.00    +0.280 A 
ATOM      9  O   LIG    1       -3.049   6.000   0.052  0.00  0.00    -0.265 OA
ATOM     10  H   LIG    1       -5.486   5.635   0.063  0.00  0.00    +0.173 HD
ATOM     11  O   LIG    1       -6.748   3.551   0.058  0.00  0.00    -0.247 OA
ATOM     12  H   LIG    1       -5.304   1.577   0.038  0.00  0.00    +0.172 HD
ATOM     13  C   LIG    1       -2.804   3.730   0.037  0.00  0.00    +0.147 A 
ATOM     14  N   LIG    1       -1.447   3.470   0.033  0.00  0.00    -0.334 N 
ATOM     15  H   LIG    1       -0.711   4.147   0.039  0.00  0.00    +0.168 HD
ENDROOT
BRANCH   1  19
ATOM     16  C   LIG    1        2.396   0.034  -0.021  0.00  0.00    +0.000 A 
ATOM     17  C   LIG    1        1.208  -0.674  -0.013  0.00  0.00    +0.001 A 
ATOM     18  C   LIG    1        0.002  -0.004   0.002  0.00  0.00    +0.011 A 
ATOM     19  C   LIG    1       -0.017   1.392   0.010  0.00  0.00    +0.015 A 
ATOM     20  C   LIG    1        1.186   2.100   0.002  0.00  0.00    +0.011 A 
ATOM     21  C   LIG    1        2.385   1.417  -0.013  0.00  0.00    +0.001 A 
ENDBRANCH   1  19
TORSDOF 1
