REMARK  Name = ZINC13451005
REMARK                            x       y       z     vdW  Elec       q    Type
REMARK                         _______ _______ _______ _____ _____    ______ ____
ROOT
ATOM      1  N   LIG    1        1.238  -2.079  -0.020  0.00  0.00    -0.281 N 
ATOM      2  H   LIG    1        0.409  -2.577   0.053  0.00  0.00    +0.155 HD
ATOM      3  C   LIG    1        2.410  -2.733  -0.137  0.00  0.00    +0.250 C 
ATOM      4  O   LIG    1        3.455  -2.112  -0.144  0.00  0.00    -0.270 OA
ENDROOT
BRANCH   1   9
ATOM      5  C   LIG    1        1.149   3.593   0.041  0.00  0.00    +0.044 C 
ATOM      6  C   LIG    1        1.172   2.086   0.025  0.00  0.00    -0.050 A 
ATOM      7  C   LIG    1        0.142   1.386  -0.577  0.00  0.00    +0.005 A 
ATOM      8  C   LIG    1        0.161   0.005  -0.594  0.00  0.00    +0.023 A 
ATOM      9  C   LIG    1        1.216  -0.681  -0.005  0.00  0.00    +0.034 A 
ATOM     10  C   LIG    1        2.249   0.025   0.598  0.00  0.00    +0.023 A 
ATOM     11  C   LIG    1        2.224   1.406   0.612  0.00  0.00    +0.005 A 
ENDBRANCH   1   9
BRANCH   3  12
ATOM     12  C   LIG    1        2.425  -4.208  -0.256  0.00  0.00    +0.055 A 
ATOM     13  C   LIG    1        3.637  -4.897  -0.377  0.00  0.00    +0.017 A 
ATOM     14  C   LIG    1        3.600  -6.277  -0.485  0.00  0.00    +0.036 A 
ATOM     15  CA  LIG    1        2.368  -6.928  -0.470  0.00  0.00    +0.147 A 
ATOM     16  N   LIG    1        1.238  -6.242  -0.353  0.00  0.00    -0.248 NA
ATOM     17  C   LIG    1        1.230  -4.932  -0.243  0.00  0.00    +0.124 A 
BRANCH  15  18
ATOM     18  C   LIG    1        2.320  -8.405  -0.585  0.00  0.00    +0.355 C 
ATOM     19  O   LIG    1        3.349  -9.039  -0.692  0.00  0.00    -0.243 OA
BRANCH  18  20
ATOM     20  OXT LIG    1        1.133  -9.042  -0.571  0.00  0.00    -0.476 OA
ATOM     21  HXT LIG    1        0.339  -8.552  -0.488  0.00  0.00    +0.295 HD
ENDBRANCH  18  20
ENDBRANCH  15  18
ENDBRANCH   3  12
TORSDOF 4
