REMARK  Name = ZINC13538893
REMARK                            x       y       z     vdW  Elec       q    Type
REMARK                         _______ _______ _______ _____ _____    ______ ____
ROOT
ATOM      1  C   LIG    1        2.443   1.516  -0.014  0.00  0.00    +0.039 C 
ATOM      2  C   LIG    1        3.442   2.464  -0.122  0.00  0.00    +0.048 C 
ATOM      3  C   LIG    1        4.897   2.227  -0.257  0.00  0.00    +0.009 A 
ATOM      4  C   LIG    1        5.672   1.075  -0.314  0.00  0.00    +0.019 A 
ATOM      5  C   LIG    1        7.053   1.181  -0.446  0.00  0.00    -0.016 A 
ATOM      6  C   LIG    1        7.649   2.441  -0.522  0.00  0.00    +0.010 A 
ATOM      7  C   LIG    1        6.880   3.583  -0.465  0.00  0.00    +0.024 A 
ATOM      8  C   LIG    1        5.498   3.493  -0.332  0.00  0.00    +0.042 A 
ATOM      9  N   LIG    1        4.513   4.469  -0.253  0.00  0.00    -0.281 N 
ATOM     10  H   LIG    1        4.686   5.423  -0.284  0.00  0.00    +0.155 HD
ATOM     11  C   LIG    1        3.291   3.924  -0.136  0.00  0.00    +0.249 C 
ATOM     12  O   LIG    1        2.240   4.535  -0.052  0.00  0.00    -0.270 OA
ENDROOT
BRANCH   1  15
ATOM     13  C   LIG    1       -1.026   2.511  -0.074  0.00  0.00    +0.019 A 
ATOM     14  C   LIG    1        0.133   2.112  -0.743  0.00  0.00    +0.027 A 
ATOM     15  C   LIG    1        1.112   1.918   0.219  0.00  0.00    +0.040 A 
ATOM     16  N   LIG    1        0.545   2.191   1.446  0.00  0.00    -0.361 N 
ATOM     17  H   LIG    1        0.996   2.139   2.302  0.00  0.00    +0.165 HD
ATOM     18  C   LIG    1       -0.751   2.545   1.254  0.00  0.00    +0.083 A 
ENDBRANCH   1  15
BRANCH   5  19
ATOM     19  C   LIG    1        7.890  -0.042  -0.507  0.00  0.00    +0.000 A 
ATOM     20  C   LIG    1        9.278   0.053  -0.646  0.00  0.00    +0.011 A 
ATOM     21  C   LIG    1       10.015  -1.118  -0.692  0.00  0.00    +0.020 A 
ATOM     22  C   LIG    1        9.359  -2.333  -0.611  0.00  0.00    +0.111 A 
ATOM     23  N   LIG    1        8.048  -2.392  -0.486  0.00  0.00    -0.263 NA
ATOM     24  C   LIG    1        7.306  -1.305  -0.433  0.00  0.00    +0.119 A 
ENDBRANCH   5  19
TORSDOF 2
