REMARK  Name = ZINC13546620
REMARK                            x       y       z     vdW  Elec       q    Type
REMARK                         _______ _______ _______ _____ _____    ______ ____
ROOT
ATOM      1  C   LIG    1        3.652   2.158  -0.021  0.00  0.00    +0.166 C 
ATOM      2  O   LIG    1        4.709   1.564  -0.034  0.00  0.00    -0.292 OA
ENDROOT
BRANCH   1  10
ATOM      3  C   LIG    1        1.165   2.090   0.002  0.00  0.00    +0.013 A 
ATOM      4  C   LIG    1       -0.017   1.381   0.010  0.00  0.00    +0.022 A 
ATOM      5  C   LIG    1        0.002  -0.004   0.002  0.00  0.00    +0.059 A 
ATOM      6 CL   LIG    1       -1.492  -0.888   0.011  0.00  0.00    -0.082 Cl
ATOM      7  C   LIG    1        1.209  -0.688  -0.013  0.00  0.00    +0.060 A 
ATOM      8 CL   LIG    1        1.221  -2.424  -0.023  0.00  0.00    -0.082 Cl
ATOM      9  C   LIG    1        2.399   0.009  -0.020  0.00  0.00    +0.032 A 
ATOM     10  C   LIG    1        2.386   1.408  -0.013  0.00  0.00    +0.019 A 
ENDBRANCH   1  10
BRANCH   1  11
ATOM     11  C   LIG    1        3.634   3.665  -0.012  0.00  0.00    +0.122 C 
BRANCH  11  12
ATOM     12  C   LIG    1        5.071   4.192  -0.023  0.00  0.00    +0.230 C 
BRANCH  12  13
ATOM     13  O   LIG    1        5.702   3.828  -1.252  0.00  0.00    -0.380 OA
ATOM     14  H   LIG    1        5.264   4.179  -2.039  0.00  0.00    +0.211 HD
ENDBRANCH  12  13
BRANCH  12  15
ATOM     15  C   LIG    1        5.056   5.693   0.109  0.00  0.00    +0.334 C 
ATOM     16  O   LIG    1        5.455   6.383  -0.799  0.00  0.00    -0.248 OA
BRANCH  15  17
ATOM     17  O   LIG    1        4.601   6.263   1.235  0.00  0.00    -0.479 OA
ATOM     18  H   LIG    1        4.292   5.728   1.939  0.00  0.00    +0.295 HD
ENDBRANCH  15  17
ENDBRANCH  12  15
ENDBRANCH  11  12
ENDBRANCH   1  11
TORSDOF 6
