REMARK  Name = ZINC13514984
REMARK                            x       y       z     vdW  Elec       q    Type
REMARK                         _______ _______ _______ _____ _____    ______ ____
ROOT
ATOM      1  C   LIG    1       -0.017   1.396   0.010  0.00  0.00    +0.152 A 
ATOM      2  C   LIG    1       -1.249   2.061   0.018  0.00  0.00    +0.188 A 
ATOM      3  N   LIG    1       -0.990   3.378   0.024  0.00  0.00    -0.195 NA
ATOM      4  C   LIG    1        0.310   3.580   0.019  0.00  0.00    +0.193 A 
ATOM      5  N   LIG    1       -2.386   1.338   0.019  0.00  0.00    -0.195 NA
ATOM      6  C   LIG    1       -2.352   0.026   0.012  0.00  0.00    +0.195 A 
ATOM      7  N   LIG    1       -1.177  -0.665   0.004  0.00  0.00    -0.294 N 
ATOM      8  H   LIG    1       -1.187  -1.635  -0.001  0.00  0.00    +0.172 HD
ATOM      9  N   LIG    1        0.959   2.384   0.006  0.00  0.00    -0.321 N 
ATOM     10  H   LIG    1        1.919   2.248  -0.004  0.00  0.00    +0.169 HD
ATOM     11  C   LIG    1        0.002  -0.004   0.002  0.00  0.00    +0.278 A 
ATOM     12  O   LIG    1        1.059  -0.614  -0.011  0.00  0.00    -0.265 OA
ENDROOT
BRANCH   4  13
ATOM     13  N   LIG    1        0.920   4.814   0.022  0.00  0.00    -0.329 N 
ATOM     14  H   LIG    1        1.888   4.875   0.018  0.00  0.00    +0.145 HD
ATOM     15  H   LIG    1        0.383   5.621   0.028  0.00  0.00    +0.145 HD
ENDBRANCH   4  13
BRANCH   6  16
ATOM     16  N   LIG    1       -3.535  -0.671   0.014  0.00  0.00    -0.329 N 
ATOM     17  H   LIG    1       -3.527  -1.641   0.009  0.00  0.00    +0.145 HD
ATOM     18  H   LIG    1       -4.380  -0.193   0.020  0.00  0.00    +0.145 HD
ENDBRANCH   6  16
TORSDOF 2
