REMARK  Name = ZINC13526674
REMARK                            x       y       z     vdW  Elec       q    Type
REMARK                         _______ _______ _______ _____ _____    ______ ____
ROOT
ATOM      1  C   LIG    1       -0.015   1.380  -0.029  0.00  0.00    +0.103 A 
ATOM      2  C   LIG    1        1.198   1.723   0.478  0.00  0.00    +0.041 A 
ATOM      3  C   LIG    1        2.091   0.655   0.220  0.00  0.00    +0.002 A 
ATOM      4  C   LIG    1        3.449   0.445   0.503  0.00  0.00    +0.010 A 
ATOM      5  C   LIG    1        4.054  -0.716   0.120  0.00  0.00    +0.002 A 
ATOM      6  C   LIG    1        3.339  -1.699  -0.552  0.00  0.00    +0.025 A 
ATOM      7  C   LIG    1        2.000  -1.518  -0.846  0.00  0.00    +0.049 A 
ATOM      8  C   LIG    1        1.360  -0.336  -0.461  0.00  0.00    +0.068 A 
ATOM      9  N   LIG    1        0.072   0.128  -0.604  0.00  0.00    -0.349 N 
ATOM     10  H   LIG    1       -0.814  -0.326  -1.071  0.00  0.00    +0.166 HD
ENDROOT
BRANCH   1  16
ATOM     11  C   LIG    1       -5.954   0.066   1.597  0.00  0.00    +0.105 C 
ATOM     12  N   LIG    1       -4.873   0.536   0.720  0.00  0.00    -0.302 NA
ATOM     13  C   LIG    1       -4.660   1.981   0.875  0.00  0.00    +0.103 C 
ATOM     14  C   LIG    1       -3.658   2.462  -0.180  0.00  0.00    +0.123 C 
ATOM     15  N   LIG    1       -2.442   1.640  -0.079  0.00  0.00    -0.294 N 
ATOM     16  C   LIG    1       -1.226   2.213   0.020  0.00  0.00    +0.263 C 
ATOM     17  O   LIG    1       -1.130   3.419   0.150  0.00  0.00    -0.268 OA
ATOM     18  C   LIG    1       -2.589   0.177  -0.094  0.00  0.00    +0.123 C 
ATOM     19  C   LIG    1       -3.634  -0.214   0.963  0.00  0.00    +0.103 C 
ENDBRANCH   1  16
BRANCH   7  20
ATOM     20  N   LIG    1        1.288  -2.514  -1.523  0.00  0.00    -0.356 N 
ATOM     21  H   LIG    1        1.794  -3.443  -1.823  0.00  0.00    +0.142 HD
ATOM     22  H   LIG    1        0.223  -2.368  -1.754  0.00  0.00    +0.142 HD
ENDBRANCH   7  20
TORSDOF 2
