REMARK  Name = ZINC13411981
REMARK                            x       y       z     vdW  Elec       q    Type
REMARK                         _______ _______ _______ _____ _____    ______ ____
ROOT
ATOM      1  C   LIG    1       -0.061   0.053  -0.015  0.00  0.00    +0.016 A 
ATOM      2  C   LIG    1        1.204  -0.539   0.026  0.00  0.00    +0.072 A 
ATOM      3  C   LIG    1        2.362   0.255   0.011  0.00  0.00    +0.143 A 
ATOM      4  O   LIG    1        3.589  -0.305   0.050  0.00  0.00    -0.454 OA
ATOM      5  C   LIG    1        3.798  -1.637   0.107  0.00  0.00    +0.150 A 
ATOM      6  C   LIG    1        2.720  -2.538   0.128  0.00  0.00    +0.106 A 
ATOM      7  C   LIG    1        2.953  -3.919   0.188  0.00  0.00    +0.135 A 
ATOM      8  C   LIG    1        4.252  -4.391   0.225  0.00  0.00    +0.092 A 
ATOM      9  C   LIG    1        5.317  -3.498   0.204  0.00  0.00    +0.131 A 
ATOM     10  C   LIG    1        5.094  -2.131   0.146  0.00  0.00    +0.047 A 
ATOM     11  C   LIG    1        2.235   1.637  -0.046  0.00  0.00    +0.096 A 
ATOM     12  C   LIG    1        0.981   2.219  -0.087  0.00  0.00    +0.162 A 
ATOM     13  C   LIG    1        1.348  -2.006   0.088  0.00  0.00    +0.204 A 
ATOM     14  O   LIG    1        0.377  -2.742   0.104  0.00  0.00    -0.286 OA
ATOM     15  C   LIG    1       -0.170   1.427  -0.071  0.00  0.00    +0.163 A 
ENDROOT
BRANCH  10  16
ATOM     16  C   LIG    1        6.262  -1.180   0.124  0.00  0.00    +0.015 C 
ATOM     17  C   LIG    1        6.152  -0.264  -1.096  0.00  0.00    +0.020 C 
ATOM     18  C   LIG    1        7.567  -1.975   0.049  0.00  0.00    +0.020 C 
BRANCH  16  19
ATOM     19  C   LIG    1        6.254  -0.346   1.380  0.00  0.00    -0.023 C 
ATOM     20  C   LIG    1        5.315  -0.522   2.277  0.00  0.00    +0.005 C 
ENDBRANCH  16  19
ENDBRANCH  10  16
BRANCH   7  21
ATOM     21  O   LIG    1        1.910  -4.787   0.208  0.00  0.00    -0.506 OA
ATOM     22  H   LIG    1        1.621  -5.075  -0.669  0.00  0.00    +0.292 HD
ENDBRANCH   7  21
BRANCH   9  23
ATOM     23  O   LIG    1        6.590  -3.970   0.241  0.00  0.00    -0.495 OA
ATOM     24  C   LIG    1        6.754  -5.388   0.300  0.00  0.00    +0.277 C 
ENDBRANCH   9  23
BRANCH  12  25
ATOM     25  O   LIG    1        0.867   3.571  -0.143  0.00  0.00    -0.503 OA
ATOM     26  H   LIG    1        0.821   3.998   0.724  0.00  0.00    +0.292 HD
ENDBRANCH  12  25
BRANCH  15  27
ATOM     27  O   LIG    1       -1.398   2.010  -0.117  0.00  0.00    -0.503 OA
ATOM     28  H   LIG    1       -1.770   2.214   0.752  0.00  0.00    +0.292 HD
ENDBRANCH  15  27
BRANCH   1  29
ATOM     29  C   LIG    1       -1.299  -0.805   0.002  0.00  0.00    +0.067 C 
BRANCH  29  33
ATOM     30  C   LIG    1       -3.907  -0.353   0.972  0.00  0.00    +0.038 C 
ATOM     31  C   LIG    1       -2.846  -0.904   1.889  0.00  0.00    -0.079 C 
ATOM     32  C   LIG    1       -3.163  -1.163   3.339  0.00  0.00    +0.038 C 
ATOM     33  C   LIG    1       -1.647  -1.157   1.425  0.00  0.00    -0.023 C 
ENDBRANCH  29  33
ENDBRANCH   1  29
TORSDOF 8
