REMARK  Name = ZINC13132551
REMARK                            x       y       z     vdW  Elec       q    Type
REMARK                         _______ _______ _______ _____ _____    ______ ____
ROOT
ATOM      1  C   LIG    1       -0.017   1.392   0.010  0.00  0.00    +0.004 A 
ATOM      2  C   LIG    1        1.013   2.281   0.005  0.00  0.00    +0.009 A 
ATOM      3  C   LIG    1        2.402   2.023  -0.011  0.00  0.00    -0.007 A 
ATOM      4  C   LIG    1        3.159   3.201  -0.012  0.00  0.00    +0.058 A 
ATOM      5  C   LIG    1        4.537   3.131  -0.026  0.00  0.00    +0.163 A 
ATOM      6  C   LIG    1        5.189   1.893  -0.039  0.00  0.00    +0.201 A 
ATOM      7  C   LIG    1        4.462   0.716  -0.039  0.00  0.00    +0.174 A 
ATOM      8  C   LIG    1        3.061   0.768  -0.024  0.00  0.00    +0.078 A 
ATOM      9  C   LIG    1        2.454  -0.566  -0.025  0.00  0.00    +0.231 A 
ATOM     10  C   LIG    1        1.067  -0.874  -0.013  0.00  0.00    +0.164 A 
ATOM     11  O   LIG    1        3.223  -1.514  -0.039  0.00  0.00    -0.283 OA
ATOM     12  C   LIG    1        0.002  -0.004   0.002  0.00  0.00    +0.049 A 
ENDROOT
BRANCH   5  13
ATOM     13  O   LIG    1        5.268   4.275  -0.027  0.00  0.00    -0.503 OA
ATOM     14  H   LIG    1        5.489   4.602   0.856  0.00  0.00    +0.292 HD
ENDBRANCH   5  13
BRANCH   6  15
ATOM     15  O   LIG    1        6.548   1.847  -0.053  0.00  0.00    -0.501 OA
ATOM     16  H   LIG    1        6.950   1.828   0.826  0.00  0.00    +0.292 HD
ENDBRANCH   6  15
BRANCH   7  17
ATOM     17  O   LIG    1        5.102  -0.483  -0.052  0.00  0.00    -0.503 OA
ATOM     18  H   LIG    1        5.296  -0.835   0.827  0.00  0.00    +0.292 HD
ENDBRANCH   7  17
BRANCH  10  19
ATOM     19  O   LIG    1        0.754  -2.194  -0.017  0.00  0.00    -0.503 OA
ATOM     20  H   LIG    1       -0.197  -2.373  -0.008  0.00  0.00    +0.292 HD
ENDBRANCH  10  19
TORSDOF 4
