REMARK  Name = ZINC13519013
REMARK                            x       y       z     vdW  Elec       q    Type
REMARK                         _______ _______ _______ _____ _____    ______ ____
ROOT
ATOM      1  C   LIG    1        1.317   0.779  -0.006  0.00  0.00    +0.043 C 
ATOM      2  C   LIG    1       -0.019   1.526   0.010  0.00  0.00    +0.014 C 
ATOM      3  C   LIG    1        0.002  -0.004   0.002  0.00  0.00    -0.003 C 
ENDROOT
BRANCH   1   5
ATOM      4  C   LIG    1        1.972   1.622   2.302  0.00  0.00    +0.107 A 
ATOM      5  C   LIG    1        2.132   0.783   1.261  0.00  0.00    +0.062 A 
ATOM      6  N   LIG    1        3.148  -0.044   1.547  0.00  0.00    -0.241 NA
ATOM      7  C   LIG    1        3.620   0.246   2.728  0.00  0.00    +0.196 A 
ATOM      8  N   LIG    1        2.912   1.278   3.236  0.00  0.00    -0.351 N 
ATOM      9  H   LIG    1        3.049   1.710   4.127  0.00  0.00    +0.166 HD
ENDBRANCH   1   5
BRANCH   3  10
ATOM     10  C   LIG    1       -0.384  -0.723   1.296  0.00  0.00    -0.016 C 
BRANCH  10  11
ATOM     11  C   LIG    1       -1.655  -1.543   1.064  0.00  0.00    -0.086 C 
BRANCH  11  12
ATOM     12  N   LIG    1       -2.005  -2.248   2.310  0.00  0.00    +0.378 N 
ATOM     13  H   LIG    1       -1.245  -2.891   2.559  0.00  0.00    -0.090 HD
ATOM     14  H   LIG    1       -2.863  -2.783   2.179  0.00  0.00    -0.090 HD
ATOM     15  H   LIG    1       -2.136  -1.578   3.066  0.00  0.00    -0.090 HD
ENDBRANCH  11  12
ENDBRANCH  10  11
ENDBRANCH   3  10
TORSDOF 4
