REMARK  Name = ZINC13111963
REMARK                            x       y       z     vdW  Elec       q    Type
REMARK                         _______ _______ _______ _____ _____    ______ ____
ROOT
ATOM      1  C   LIG    1        3.739   1.808  -0.024  0.00  0.00    +0.027 A 
ATOM      2  C   LIG    1        4.921   1.077  -0.045  0.00  0.00    +0.017 A 
ATOM      3  C   LIG    1        6.108   1.751  -0.053  0.00  0.00    +0.018 A 
ATOM      4  C   LIG    1        6.087   3.141  -0.039  0.00  0.00    +0.031 A 
ATOM      5  S   LIG    1        4.336   3.490  -0.022  0.00  0.00    -0.087 S 
ENDROOT
BRANCH   1   8
ATOM      6  C   LIG    1       -0.016   1.354   0.009  0.00  0.00    +0.008 A 
ATOM      7  C   LIG    1        1.174   2.044   0.002  0.00  0.00    +0.016 A 
ATOM      8  C   LIG    1        2.353   1.320  -0.013  0.00  0.00    +0.026 A 
ATOM      9  S   LIG    1        1.751  -0.361  -0.017  0.00  0.00    -0.096 S 
ATOM     10  C   LIG    1        0.002  -0.004   0.002  0.00  0.00    +0.046 A 
ENDBRANCH   1   8
BRANCH   4  11
ATOM     11  C   LIG    1        7.173   4.047  -0.043  0.00  0.00    +0.126 C 
ATOM     12  N   LIG    1        6.950   5.337  -0.029  0.00  0.00    -0.254 NA
BRANCH  12  13
ATOM     13  C   LIG    1        8.000   6.212  -0.032  0.00  0.00    +0.064 A 
ATOM     14  C   LIG    1        9.099   5.993   0.804  0.00  0.00    +0.031 A 
ATOM     15  C   LIG    1       10.155   6.878   0.796  0.00  0.00    +0.047 A 
ATOM     16  C   LIG    1       10.130   7.986  -0.041  0.00  0.00    +0.117 A 
ATOM     17  C   LIG    1        9.041   8.208  -0.873  0.00  0.00    +0.047 A 
ATOM     18  C   LIG    1        7.982   7.326  -0.876  0.00  0.00    +0.031 A 
BRANCH  16  19
ATOM     19  O   LIG    1       11.174   8.856  -0.044  0.00  0.00    -0.507 OA
ATOM     20  H   LIG    1       11.867   8.636  -0.682  0.00  0.00    +0.292 HD
ENDBRANCH  16  19
ENDBRANCH  12  13
ENDBRANCH   4  11
TORSDOF 4
