REMARK  Name = ZINC13488964
REMARK                            x       y       z     vdW  Elec       q    Type
REMARK                         _______ _______ _______ _____ _____    ______ ____
ROOT
ATOM      1  C   LIG    1        1.503   9.533  -1.064  0.00  0.00    +0.241 C 
ATOM      2  N   LIG    1        1.923  10.220  -2.145  0.00  0.00    -0.281 N 
ATOM      3  H   LIG    1        2.383   9.759  -2.864  0.00  0.00    +0.155 HD
ATOM      4  O   LIG    1        0.996  10.123  -0.127  0.00  0.00    -0.270 OA
ENDROOT
BRANCH   2   5
ATOM      5  C   LIG    1        1.696  11.590  -2.230  0.00  0.00    +0.048 A 
ATOM      6  C   LIG    1        1.767  12.381  -1.090  0.00  0.00    +0.024 A 
ATOM      7  C   LIG    1        1.548  13.741  -1.177  0.00  0.00    +0.002 A 
ATOM      8  C   LIG    1        1.245  14.326  -2.397  0.00  0.00    +0.001 A 
ATOM      9  C   LIG    1        1.165  13.557  -3.537  0.00  0.00    +0.017 A 
ATOM     10  C   LIG    1        1.390  12.179  -3.466  0.00  0.00    +0.080 A 
BRANCH  10  11
ATOM     11  C   LIG    1        1.305  11.351  -4.681  0.00  0.00    +0.339 C 
ATOM     12  O   LIG    1        1.394  10.141  -4.600  0.00  0.00    -0.245 OA
BRANCH  11  13
ATOM     13  O   LIG    1        1.128  11.934  -5.884  0.00  0.00    -0.477 OA
ATOM     14  H   LIG    1        1.060  12.866  -5.947  0.00  0.00    +0.295 HD
ENDBRANCH  11  13
ENDBRANCH  10  11
ENDBRANCH   2   5
BRANCH   1  17
ATOM     15  C   LIG    1        0.201   8.061   0.985  0.00  0.00    +0.044 C 
ATOM     16  C   LIG    1        1.109   7.376  -0.003  0.00  0.00    -0.038 C 
ATOM     17  C   LIG    1        1.657   8.079  -1.016  0.00  0.00    +0.071 C 
BRANCH  16  18
ATOM     18  C   LIG    1        1.398   5.940   0.137  0.00  0.00    -0.021 A 
ATOM     19  C   LIG    1        2.711   5.516   0.421  0.00  0.00    +0.009 A 
ATOM     20  C   LIG    1        3.002   4.197   0.554  0.00  0.00    +0.009 A 
ATOM     21  C   LIG    1        1.986   3.233   0.408  0.00  0.00    -0.018 A 
ATOM     22  C   LIG    1        2.265   1.863   0.540  0.00  0.00    +0.008 A 
ATOM     23  C   LIG    1        1.263   0.953   0.393  0.00  0.00    +0.001 A 
ATOM     24  C   LIG    1       -0.039   1.358   0.106  0.00  0.00    +0.001 A 
ATOM     25  C   LIG    1       -0.348   2.677  -0.025  0.00  0.00    +0.008 A 
ATOM     26  C   LIG    1        0.660   3.647   0.121  0.00  0.00    -0.017 A 
ATOM     27  C   LIG    1        0.376   5.013  -0.014  0.00  0.00    +0.016 A 
ENDBRANCH  16  18
ENDBRANCH   1  17
TORSDOF 5
