REMARK  Name = ZINC13553652
REMARK                            x       y       z     vdW  Elec       q    Type
REMARK                         _______ _______ _______ _____ _____    ______ ____
ROOT
ATOM      1  C   LIG    1       -0.018   1.503   0.010  0.00  0.00    +0.046 C 
ATOM      2  C   LIG    1        0.002  -0.004   0.002  0.00  0.00    -0.025 A 
ATOM      3  C   LIG    1        0.006  -0.687  -1.196  0.00  0.00    +0.025 A 
ATOM      4  C   LIG    1        0.024  -2.074  -1.219  0.00  0.00    +0.042 A 
ATOM      5 CL   LIG    1        0.027  -2.915  -2.737  0.00  0.00    -0.084 Cl
ATOM      6  C   LIG    1        0.039  -2.787  -0.037  0.00  0.00    +0.032 A 
ATOM      7  C   LIG    1        0.036  -2.108   1.178  0.00  0.00    +0.032 A 
ATOM      8  C   LIG    1        0.048  -2.542   2.589  0.00  0.00    +0.152 A 
ATOM      9  C   LIG    1        0.052  -1.377   3.353  0.00  0.00    +0.219 A 
ATOM     10  N   LIG    1        0.030  -0.301   2.527  0.00  0.00    -0.324 N 
ATOM     11  H   LIG    1        0.020   0.622   2.822  0.00  0.00    +0.169 HD
ATOM     12  C   LIG    1        0.023  -0.705   1.202  0.00  0.00    +0.054 A 
ENDROOT
BRANCH   8  13
ATOM     13  N   LIG    1        0.067  -3.804   3.044  0.00  0.00    -0.166 NA
ATOM     14  N   LIG    1        0.076  -4.032   4.313  0.00  0.00    -0.255 N 
ATOM     15  H   LIG    1        0.069  -3.291   4.939  0.00  0.00    +0.191 HD
BRANCH  14  16
ATOM     16  C   LIG    1        0.095  -5.312   4.775  0.00  0.00    +0.172 C 
ATOM     17  N   LIG    1        0.104  -6.311   3.931  0.00  0.00    -0.277 NA
ATOM     18  H   LIG    1        0.118  -7.224   4.260  0.00  0.00    +0.189 HD
BRANCH  16  19
ATOM     19  S   LIG    1        0.107  -5.623   6.509  0.00  0.00    -0.105 S 
ATOM     20  H   LIG    1        0.094  -4.441   7.182  0.00  0.00    +0.110 HD
ENDBRANCH  16  19
ENDBRANCH  14  16
ENDBRANCH   8  13
BRANCH   9  21
ATOM     21  O   LIG    1        0.065  -1.327   4.703  0.00  0.00    -0.492 OA
ATOM     22  H   LIG    1       -0.815  -1.325   5.104  0.00  0.00    +0.294 HD
ENDBRANCH   9  21
TORSDOF 4
