REMARK  Name = ZINC13283420
REMARK                            x       y       z     vdW  Elec       q    Type
REMARK                         _______ _______ _______ _____ _____    ______ ____
ROOT
ATOM      1  C   LIG    1       -0.017   1.383   0.010  0.00  0.00    -0.040 A 
ATOM      2  C   LIG    1        0.002  -0.004   0.002  0.00  0.00    +0.023 A 
ATOM      3  C   LIG    1        1.218  -0.661  -0.013  0.00  0.00    +0.111 A 
ATOM      4  N   LIG    1        2.350   0.015  -0.020  0.00  0.00    -0.260 NA
ATOM      5  C   LIG    1        2.370   1.334  -0.013  0.00  0.00    +0.046 A 
ATOM      6  C   LIG    1        1.193   2.059   0.002  0.00  0.00    +0.027 A 
ENDROOT
BRANCH   1   7
ATOM      7  C   LIG    1       -1.322   2.136   0.020  0.00  0.00    +0.070 C 
BRANCH   7  11
ATOM      8  C   LIG    1       -2.536   2.827   4.057  0.00  0.00    +0.000 A 
ATOM      9  C   LIG    1       -1.741   3.752   3.406  0.00  0.00    +0.000 A 
ATOM     10  C   LIG    1       -1.347   3.528   2.100  0.00  0.00    +0.004 A 
ATOM     11  C   LIG    1       -1.750   2.380   1.444  0.00  0.00    -0.043 A 
ATOM     12  C   LIG    1       -2.550   1.458   2.093  0.00  0.00    +0.004 A 
ATOM     13  C   LIG    1       -2.938   1.679   3.401  0.00  0.00    +0.000 A 
ENDBRANCH   7  11
ENDBRANCH   1   7
BRANCH   5  14
ATOM     14  C   LIG    1        3.691   2.058  -0.021  0.00  0.00    +0.090 C 
BRANCH  14  15
ATOM     15  C   LIG    1        4.534   1.579   1.133  0.00  0.00    -0.042 A 
ATOM     16  C   LIG    1        4.460   2.219   2.356  0.00  0.00    +0.004 A 
ATOM     17  C   LIG    1        5.230   1.776   3.415  0.00  0.00    +0.000 A 
ATOM     18  C   LIG    1        6.081   0.700   3.249  0.00  0.00    +0.000 A 
ATOM     19  C   LIG    1        6.160   0.064   2.024  0.00  0.00    +0.000 A 
ATOM     20  C   LIG    1        5.386   0.503   0.966  0.00  0.00    +0.004 A 
ENDBRANCH  14  15
ENDBRANCH   5  14
TORSDOF 4
