REMARK  Name = ZINC13522765
REMARK                            x       y       z     vdW  Elec       q    Type
REMARK                         _______ _______ _______ _____ _____    ______ ____
ROOT
ATOM      1  N   LIG    1        3.686   1.489  -0.025  0.00  0.00    +0.386 N 
ATOM      2  H   LIG    1        3.744   2.117   0.876  0.00  0.00    -0.085 HD
ATOM      3  H   LIG    1        3.727   2.127  -0.920  0.00  0.00    -0.085 HD
ENDROOT
BRANCH   1   4
ATOM      4  C   LIG    1        2.424   0.737  -0.017  0.00  0.00    -0.063 C 
BRANCH   4   5
ATOM      5  C   LIG    1        1.248   1.716  -0.001  0.00  0.00    +0.084 C 
BRANCH   5   6
ATOM      6  N   LIG    1       -0.011   0.966   0.007  0.00  0.00    -0.331 N 
ATOM      7  H   LIG    1        0.004  -0.134   0.006  0.00  0.00    +0.147 HD
BRANCH   6  10
ATOM      8  C   LIG    1       -2.425   3.701   0.035  0.00  0.00    +0.024 A 
ATOM      9  C   LIG    1       -1.228   3.035   0.030  0.00  0.00    +0.045 A 
ATOM     10  C   LIG    1       -1.221   1.642   0.017  0.00  0.00    +0.119 A 
ATOM     11  N   LIG    1       -2.354   0.955   0.018  0.00  0.00    -0.239 NA
ATOM     12  C   LIG    1       -3.526   1.555   0.028  0.00  0.00    +0.131 A 
ATOM     13  C   LIG    1       -3.609   2.948   0.036  0.00  0.00    +0.070 A 
BRANCH  13  14
ATOM     14  C   LIG    1       -4.884   3.600   0.047  0.00  0.00    +0.101 C 
ATOM     15  N   LIG    1       -5.895   4.118   0.055  0.00  0.00    -0.191 NA
ENDBRANCH  13  14
ENDBRANCH   6  10
ENDBRANCH   5   6
ENDBRANCH   4   5
ENDBRANCH   1   4
BRANCH   1  16
ATOM     16  C   LIG    1        4.840   0.580  -0.041  0.00  0.00    +0.015 C 
BRANCH  16  17
ATOM     17  C   LIG    1        6.114   1.386  -0.049  0.00  0.00    +0.200 C 
ATOM     18  N   LIG    1        7.307   0.759  -0.064  0.00  0.00    -0.287 N 
ATOM     19  C   LIG    1        7.511  -0.701  -0.074  0.00  0.00    +0.109 C 
ATOM     20  C   LIG    1        8.913  -0.901  -0.701  0.00  0.00    +0.022 C 
ATOM     21  C   LIG    1        9.691   0.308  -0.117  0.00  0.00    +0.039 C 
ATOM     22  C   LIG    1        8.621   1.419  -0.079  0.00  0.00    +0.179 C 
ATOM     23  O   LIG    1        6.065   2.597  -0.042  0.00  0.00    -0.278 OA
BRANCH  22  24
ATOM     24  C   LIG    1        8.788   2.229   1.139  0.00  0.00    +0.085 C 
ATOM     25  N   LIG    1        8.917   2.855   2.079  0.00  0.00    -0.195 NA
ENDBRANCH  22  24
ENDBRANCH  16  17
ENDBRANCH   1  16
TORSDOF 8
