REMARK  Name = ZINC13529572
REMARK                            x       y       z     vdW  Elec       q    Type
REMARK                         _______ _______ _______ _____ _____    ______ ____
ROOT
ATOM      1  C   LIG    1       -0.199   1.234  -2.428  0.00  0.00    +0.037 C 
ATOM      2  S   LIG    1        1.117   0.337  -2.573  0.00  0.00    -0.042 S 
ENDROOT
BRANCH   1   3
ATOM      3  N   LIG    1       -0.670   1.545  -1.204  0.00  0.00    -0.319 N 
ATOM      4  C   LIG    1       -0.013   1.086   0.008  0.00  0.00    +0.117 C 
ATOM      5  C   LIG    1       -0.689   1.561   1.318  0.00  0.00    +0.089 C 
ATOM      6  S   LIG    1       -1.627   3.019   0.686  0.00  0.00    -0.140 S 
ATOM      7  C   LIG    1       -1.883   2.372  -1.025  0.00  0.00    +0.174 C 
ENDBRANCH   1   3
BRANCH   1   9
ATOM      8  C   LIG    1       -2.302   1.097  -3.733  0.00  0.00    -0.008 C 
ATOM      9  C   LIG    1       -0.911   1.730  -3.659  0.00  0.00    -0.025 C 
BRANCH   9  10
ATOM     10  N   LIG    1       -0.119   1.372  -4.848  0.00  0.00    +0.384 N 
ATOM     11  H   LIG    1        0.820   1.779  -4.763  0.00  0.00    -0.089 HD
ATOM     12  H   LIG    1       -0.564   1.738  -5.688  0.00  0.00    -0.089 HD
ATOM     13  H   LIG    1       -0.037   0.360  -4.922  0.00  0.00    -0.089 HD
ENDBRANCH   9  10
ENDBRANCH   1   9
TORSDOF 3
