REMARK  Name = ZINC13452167
REMARK                            x       y       z     vdW  Elec       q    Type
REMARK                         _______ _______ _______ _____ _____    ______ ____
ROOT
ATOM      1  C   LIG    1        2.845  -3.861  -0.558  0.00  0.00    +0.008 C 
ATOM      2  C   LIG    1        2.749  -2.639  -0.009  0.00  0.00    +0.009 C 
ENDROOT
BRANCH   1   6
ATOM      3  C   LIG    1       -0.555  -5.640  -2.380  0.00  0.00    +0.161 A 
ATOM      4  C   LIG    1       -0.340  -4.275  -2.499  0.00  0.00    +0.050 A 
ATOM      5  C   LIG    1        0.763  -3.693  -1.909  0.00  0.00    +0.012 A 
ATOM      6  C   LIG    1        1.666  -4.480  -1.189  0.00  0.00    -0.021 A 
ATOM      7  C   LIG    1        1.452  -5.856  -1.074  0.00  0.00    +0.057 A 
ATOM      8  C   LIG    1        0.341  -6.431  -1.663  0.00  0.00    +0.159 A 
BRANCH   3  10
ATOM      9  C   LIG    1       -2.574  -5.328  -3.596  0.00  0.00    +0.277 C 
ATOM     10  O   LIG    1       -1.643  -6.208  -2.963  0.00  0.00    -0.491 OA
ENDBRANCH   3  10
BRANCH   8  11
ATOM     11  O   LIG    1        0.127  -7.769  -1.549  0.00  0.00    -0.503 OA
ATOM     12  H   LIG    1        0.532  -8.294  -2.253  0.00  0.00    +0.292 HD
ENDBRANCH   8  11
ENDBRANCH   1   6
BRANCH   2  13
ATOM     13  C   LIG    1        1.428  -2.004   0.148  0.00  0.00    -0.018 A 
ATOM     14  C   LIG    1        0.315  -2.778   0.487  0.00  0.00    +0.057 A 
ATOM     15  C   LIG    1       -0.923  -2.179   0.634  0.00  0.00    +0.166 A 
ATOM     16  C   LIG    1       -1.059  -0.806   0.452  0.00  0.00    +0.204 A 
ATOM     17  C   LIG    1        0.046  -0.033   0.109  0.00  0.00    +0.166 A 
ATOM     18  C   LIG    1        1.287  -0.626  -0.040  0.00  0.00    +0.057 A 
BRANCH  15  19
ATOM     19  O   LIG    1       -2.007  -2.931   0.964  0.00  0.00    -0.491 OA
ATOM     20  C   LIG    1       -1.778  -4.315   1.234  0.00  0.00    +0.277 C 
ENDBRANCH  15  19
BRANCH  16  21
ATOM     21  O   LIG    1       -2.277  -0.219   0.603  0.00  0.00    -0.488 OA
ATOM     22  C   LIG    1       -3.105  -0.133  -0.559  0.00  0.00    +0.277 C 
ENDBRANCH  16  21
BRANCH  17  23
ATOM     23  O   LIG    1       -0.092   1.307  -0.074  0.00  0.00    -0.491 OA
ATOM     24  C   LIG    1        1.085   2.040  -0.419  0.00  0.00    +0.277 C 
ENDBRANCH  17  23
ENDBRANCH   2  13
TORSDOF 7
