REMARK  Name = ZINC13284403
REMARK                            x       y       z     vdW  Elec       q    Type
REMARK                         _______ _______ _______ _____ _____    ______ ____
ROOT
ATOM      1  C   LIG    1        0.309   1.948   0.195  0.00  0.00    +0.020 A 
ATOM      2  C   LIG    1        1.550   2.515   0.267  0.00  0.00    +0.013 A 
ATOM      3  C   LIG    1        2.672   1.667   0.214  0.00  0.00    +0.022 A 
ATOM      4  C   LIG    1        3.979   2.178   0.282  0.00  0.00    +0.051 A 
ATOM      5 CL   LIG    1        4.240   3.888   0.433  0.00  0.00    -0.083 Cl
ATOM      6  C   LIG    1        5.041   1.326   0.229  0.00  0.00    +0.026 A 
ATOM      7  C   LIG    1        4.850  -0.048   0.107  0.00  0.00    -0.019 A 
ATOM      8  C   LIG    1        3.595  -0.581   0.037  0.00  0.00    +0.144 A 
ATOM      9  C   LIG    1        2.471   0.270   0.090  0.00  0.00    +0.114 A 
ATOM     10  N   LIG    1        1.231  -0.221   0.026  0.00  0.00    -0.251 NA
ATOM     11  C   LIG    1        0.183   0.566   0.074  0.00  0.00    +0.111 A 
ENDROOT
BRANCH   8  12
ATOM     12  O   LIG    1        3.429  -1.924  -0.082  0.00  0.00    -0.504 OA
ATOM     13  H   LIG    1        3.365  -2.389   0.763  0.00  0.00    +0.292 HD
ENDBRANCH   8  12
BRANCH   7  14
ATOM     14  C   LIG    1        6.048  -0.961   0.049  0.00  0.00    -0.039 C 
BRANCH  14  15
ATOM     15  N   LIG    1        6.243  -1.426  -1.330  0.00  0.00    +0.385 N 
ATOM     16  H   LIG    1        5.391  -1.850  -1.667  0.00  0.00    -0.081 HD
BRANCH  15  17
ATOM     17  C   LIG    1        7.329  -2.415  -1.365  0.00  0.00    -0.050 C 
BRANCH  17  18
ATOM     18  C   LIG    1        6.902  -3.667  -0.595  0.00  0.00    +0.137 C 
BRANCH  18  19
ATOM     19  O   LIG    1        5.783  -4.269  -1.249  0.00  0.00    -0.397 OA
ATOM     20  H   LIG    1        5.458  -5.070  -0.815  0.00  0.00    +0.209 HD
ENDBRANCH  18  19
ENDBRANCH  17  18
ENDBRANCH  15  17
BRANCH  15  21
ATOM     21  C   LIG    1        6.594  -0.285  -2.187  0.00  0.00    -0.050 C 
BRANCH  21  22
ATOM     22  C   LIG    1        6.675  -0.747  -3.643  0.00  0.00    +0.137 C 
BRANCH  22  23
ATOM     23  O   LIG    1        5.382  -1.166  -4.083  0.00  0.00    -0.397 OA
ATOM     24  H   LIG    1        5.358  -1.473  -5.000  0.00  0.00    +0.209 HD
ENDBRANCH  22  23
ENDBRANCH  21  22
ENDBRANCH  15  21
ENDBRANCH  14  15
ENDBRANCH   7  14
TORSDOF 9
