REMARK  Name = ZINC13479100
REMARK                            x       y       z     vdW  Elec       q    Type
REMARK                         _______ _______ _______ _____ _____    ______ ____
ROOT
ATOM      1  C   LIG    1        4.086   2.078  -0.192  0.00  0.00    -0.048 C 
ATOM      2  N   LIG    1        3.507   0.975  -1.028  0.00  0.00    +0.382 N 
ATOM      3  H   LIG    1        3.973   0.975  -1.943  0.00  0.00    -0.086 HD
ATOM      4  H   LIG    1        3.678   0.079  -0.557  0.00  0.00    -0.086 HD
ATOM      5  C   LIG    1        2.030   1.137  -1.238  0.00  0.00    -0.048 C 
ATOM      6  C   LIG    1        1.286   1.562  -0.002  0.00  0.00    +0.129 C 
ATOM      7  C   LIG    1        1.148   3.099  -0.017  0.00  0.00    +0.172 C 
ATOM      8  C   LIG    1        2.377   3.767   0.396  0.00  0.00    +0.172 C 
ATOM      9  C   LIG    1        3.559   3.443  -0.542  0.00  0.00    +0.129 C 
ENDROOT
BRANCH   6  10
ATOM     10  O   LIG    1       -0.011   0.963   0.007  0.00  0.00    -0.391 OA
ATOM     11  H   LIG    1        0.002  -0.004   0.002  0.00  0.00    +0.210 HD
ENDBRANCH   6  10
BRANCH   7  12
ATOM     12  O   LIG    1        0.093   3.478   0.869  0.00  0.00    -0.387 OA
ATOM     13  H   LIG    1       -0.769   3.107   0.636  0.00  0.00    +0.210 HD
ENDBRANCH   7  12
BRANCH   8  14
ATOM     14  O   LIG    1        2.158   5.179   0.395  0.00  0.00    -0.387 OA
ATOM     15  H   LIG    1        2.918   5.695   0.698  0.00  0.00    +0.210 HD
ENDBRANCH   8  14
BRANCH   9  16
ATOM     16  O   LIG    1        4.593   4.415  -0.370  0.00  0.00    -0.391 OA
ATOM     17  H   LIG    1        5.372   4.261  -0.921  0.00  0.00    +0.210 HD
ENDBRANCH   9  16
TORSDOF 4
