REMARK  Name = ZINC13487233
REMARK                            x       y       z     vdW  Elec       q    Type
REMARK                         _______ _______ _______ _____ _____    ______ ____
ROOT
ATOM      1  C   LIG    1       -2.288   2.671   0.027  0.00  0.00    -0.041 C 
ATOM      2  C   LIG    1       -1.265   2.096   0.019  0.00  0.00    -0.059 C 
ENDROOT
BRANCH   1   8
ATOM      3  C   LIG    1       -4.630   6.891   0.061  0.00  0.00    +0.065 C 
ATOM      4  C   LIG    1       -4.673   5.384   0.053  0.00  0.00    +0.040 A 
ATOM      5  C   LIG    1       -5.895   4.737   0.054  0.00  0.00    +0.023 A 
ATOM      6  C   LIG    1       -5.932   3.349   0.047  0.00  0.00    +0.004 A 
ATOM      7  C   LIG    1       -4.735   2.656   0.033  0.00  0.00    +0.037 A 
ATOM      8  C   LIG    1       -3.536   3.373   0.037  0.00  0.00    +0.114 A 
ATOM      9  N   LIG    1       -3.546   4.703   0.044  0.00  0.00    -0.244 NA
ENDBRANCH   1   8
BRANCH   2  10
ATOM     10  C   LIG    1       -0.017   1.394   0.010  0.00  0.00    +0.029 A 
ATOM     11  C   LIG    1        0.002  -0.004   0.002  0.00  0.00    +0.017 A 
ATOM     12  C   LIG    1        1.206  -0.676  -0.013  0.00  0.00    +0.005 A 
ATOM     13  C   LIG    1        2.397   0.028  -0.021  0.00  0.00    +0.046 A 
ATOM     14  C   LIG    1        2.389   1.416  -0.014  0.00  0.00    +0.121 A 
ATOM     15  C   LIG    1        1.186   2.103   0.002  0.00  0.00    +0.062 A 
BRANCH  14  16
ATOM     16  O   LIG    1        3.562   2.102  -0.022  0.00  0.00    -0.495 OA
ATOM     17  C   LIG    1        4.764   1.331  -0.038  0.00  0.00    +0.277 C 
ENDBRANCH  14  16
ENDBRANCH   2  10
TORSDOF 3
