REMARK  Name = ZINC13140305
REMARK                            x       y       z     vdW  Elec       q    Type
REMARK                         _______ _______ _______ _____ _____    ______ ____
ROOT
ATOM      1  C   LIG    1        0.660  -2.479   4.596  0.00  0.00    +0.166 C 
ENDROOT
BRANCH   1   2
ATOM      2  C   LIG    1        2.014  -2.797   4.017  0.00  0.00    -0.007 A 
ATOM      3  C   LIG    1        2.542  -4.068   4.147  0.00  0.00    +0.007 A 
ATOM      4  C   LIG    1        3.784  -4.359   3.616  0.00  0.00    +0.000 A 
ATOM      5  C   LIG    1        4.499  -3.379   2.954  0.00  0.00    +0.000 A 
ATOM      6  C   LIG    1        3.972  -2.108   2.822  0.00  0.00    +0.000 A 
ATOM      7  C   LIG    1        2.727  -1.818   3.349  0.00  0.00    +0.007 A 
ENDBRANCH   1   2
BRANCH   1   8
ATOM      8  C   LIG    1       -0.366  -3.421   4.020  0.00  0.00    -0.007 A 
ATOM      9  C   LIG    1       -1.254  -4.071   4.856  0.00  0.00    +0.007 A 
ATOM     10  C   LIG    1       -2.195  -4.935   4.328  0.00  0.00    +0.000 A 
ATOM     11  C   LIG    1       -2.248  -5.148   2.963  0.00  0.00    +0.000 A 
ATOM     12  C   LIG    1       -1.361  -4.497   2.126  0.00  0.00    +0.000 A 
ATOM     13  C   LIG    1       -0.423  -3.630   2.655  0.00  0.00    +0.007 A 
ENDBRANCH   1   8
BRANCH   1  14
ATOM     14  C   LIG    1        0.282  -1.038   4.248  0.00  0.00    +0.325 C 
BRANCH  14  15
ATOM     15  C   LIG    1       -1.033  -0.693   4.899  0.00  0.00    +0.350 C 
ATOM     16  O   LIG    1       -2.010  -0.453   4.210  0.00  0.00    -0.247 OA
BRANCH  15  17
ATOM     17  O   LIG    1       -1.120  -0.654   6.114  0.00  0.00    -0.478 OA
ATOM     18  H   LIG    1       -0.369  -0.838   6.644  0.00  0.00    +0.295 HD
ENDBRANCH  15  17
ENDBRANCH  14  15
BRANCH  14  19
ATOM     19  O   LIG    1        0.161  -0.906   2.830  0.00  0.00    -0.444 OA
BRANCH  19  26
ATOM     20  C   LIG    1        1.538   3.601   3.535  0.00  0.00    +0.066 C 
ATOM     21  C   LIG    1        1.113   2.485   2.614  0.00  0.00    +0.045 A 
ATOM     22  C   LIG    1        1.022   2.700   1.248  0.00  0.00    +0.046 A 
ATOM     23  C   LIG    1        0.628   1.646   0.438  0.00  0.00    +0.045 A 
ATOM     24  C   LIG    1        0.514   1.832  -1.053  0.00  0.00    +0.066 C 
ATOM     25  N   LIG    1        0.353   0.476   0.990  0.00  0.00    -0.200 NA
ATOM     26  C   LIG    1        0.450   0.305   2.299  0.00  0.00    +0.319 A 
ATOM     27  N   LIG    1        0.829   1.288   3.100  0.00  0.00    -0.200 NA
ENDBRANCH  19  26
ENDBRANCH  14  19
ENDBRANCH   1  14
BRANCH   1  28
ATOM     28  O   LIG    1        0.702  -2.631   6.016  0.00  0.00    -0.359 OA
BRANCH  28  29
ATOM     29  C   LIG    1        1.719  -1.857   6.654  0.00  0.00    +0.166 C 
BRANCH  29  30
ATOM     30  C   LIG    1        1.621  -2.035   8.170  0.00  0.00    +0.063 C 
BRANCH  30  31
ATOM     31  C   LIG    1        2.693  -1.218   8.843  0.00  0.00    -0.045 A 
ATOM     32  C   LIG    1        3.936  -1.774   9.085  0.00  0.00    +0.004 A 
ATOM     33  C   LIG    1        4.920  -1.024   9.702  0.00  0.00    +0.000 A 
ATOM     34  C   LIG    1        4.662   0.281  10.077  0.00  0.00    +0.000 A 
ATOM     35  C   LIG    1        3.419   0.837   9.834  0.00  0.00    +0.000 A 
ATOM     36  C   LIG    1        2.437   0.089   9.213  0.00  0.00    +0.004 A 
ENDBRANCH  30  31
ENDBRANCH  29  30
ENDBRANCH  28  29
ENDBRANCH   1  28
TORSDOF 11
