REMARK  Name = ZINC13493756
REMARK                            x       y       z     vdW  Elec       q    Type
REMARK                         _______ _______ _______ _____ _____    ______ ____
ROOT
ATOM      1  N   LIG    1       -2.762  -4.053   0.007  0.00  0.00    -0.299 N 
ATOM      2  H   LIG    1       -1.941  -4.570  -0.004  0.00  0.00    +0.150 HD
ATOM      3  C   LIG    1       -3.954  -4.681   0.015  0.00  0.00    +0.300 C 
ATOM      4  N   LIG    1       -4.007  -6.028   0.008  0.00  0.00    -0.297 N 
ATOM      5  H   LIG    1       -3.186  -6.545  -0.003  0.00  0.00    +0.151 HD
ATOM      6  O   LIG    1       -4.983  -4.033   0.028  0.00  0.00    -0.253 OA
ENDROOT
BRANCH   4   7
ATOM      7  C   LIG    1       -5.303  -6.711   0.017  0.00  0.00    +0.074 C 
ATOM      8  C   LIG    1       -5.799  -6.845   1.458  0.00  0.00    +0.022 C 
ATOM      9  C   LIG    1       -7.152  -7.558   1.467  0.00  0.00    +0.002 C 
ATOM     10  C   LIG    1       -7.000  -8.949   0.848  0.00  0.00    +0.000 C 
ATOM     11  C   LIG    1       -6.504  -8.815  -0.593  0.00  0.00    +0.002 C 
ATOM     12  C   LIG    1       -5.151  -8.102  -0.602  0.00  0.00    +0.022 C 
ENDBRANCH   4   7
BRANCH   1  13
ATOM     13  C   LIG    1       -2.705  -2.589   0.014  0.00  0.00    +0.117 C 
BRANCH  13  14
ATOM     14  C   LIG    1       -1.244  -2.135   0.003  0.00  0.00    +0.139 C 
BRANCH  14  15
ATOM     15  C   LIG    1       -1.185  -0.630   0.010  0.00  0.00    +0.308 C 
ATOM     16  O   LIG    1       -2.208   0.015   0.023  0.00  0.00    -0.251 OA
BRANCH  15  18
ATOM     17  C   LIG    1       -0.017   1.425   0.010  0.00  0.00    +0.280 C 
ATOM     18  O   LIG    1        0.002  -0.004   0.002  0.00  0.00    -0.468 OA
ENDBRANCH  15  18
ENDBRANCH  14  15
ENDBRANCH  13  14
ENDBRANCH   1  13
TORSDOF 5
