REMARK  Name = ZINC13493184
REMARK                            x       y       z     vdW  Elec       q    Type
REMARK                         _______ _______ _______ _____ _____    ______ ____
ROOT
ATOM      1  C   LIG    1        7.937  -3.087  -3.912  0.00  0.00    +0.149 C 
ATOM      2  N   LIG    1        7.071  -2.588  -2.841  0.00  0.00    -0.349 N 
ATOM      3  C   LIG    1        5.911  -1.936  -3.019  0.00  0.00    +0.097 A 
ATOM      4  C   LIG    1        5.386  -1.629  -1.773  0.00  0.00    +0.036 A 
ATOM      5  C   LIG    1        6.294  -2.124  -0.807  0.00  0.00    +0.038 A 
ATOM      6  C   LIG    1        7.319  -2.716  -1.490  0.00  0.00    +0.042 A 
ENDROOT
BRANCH   4   7
ATOM      7  C   LIG    1        4.131  -0.919  -1.507  0.00  0.00    +0.169 C 
ATOM      8  O   LIG    1        3.441  -0.539  -2.430  0.00  0.00    -0.292 OA
BRANCH   7   9
ATOM      9  C   LIG    1        3.697  -0.662  -0.087  0.00  0.00    +0.114 C 
BRANCH   9  10
ATOM     10  C   LIG    1        2.384   0.078  -0.089  0.00  0.00    -0.040 A 
ATOM     11  C   LIG    1        1.194  -0.626  -0.080  0.00  0.00    +0.004 A 
ATOM     12  C   LIG    1       -0.010   0.053  -0.082  0.00  0.00    +0.000 A 
ATOM     13  C   LIG    1       -0.025   1.435  -0.093  0.00  0.00    +0.000 A 
ATOM     14  C   LIG    1        1.165   2.139  -0.102  0.00  0.00    +0.000 A 
ATOM     15  C   LIG    1        2.370   1.460  -0.100  0.00  0.00    +0.004 A 
ENDBRANCH   9  10
ENDBRANCH   7   9
ENDBRANCH   4   7
BRANCH   6  16
ATOM     16  C   LIG    1        8.483  -3.365  -0.892  0.00  0.00    +0.031 C 
ATOM     17  C   LIG    1        8.560  -3.513   0.453  0.00  0.00    +0.071 C 
BRANCH  17  18
ATOM     18  C   LIG    1        9.734  -4.042   1.041  0.00  0.00    +0.259 C 
ATOM     19  N   LIG    1        9.811  -4.189   2.379  0.00  0.00    -0.194 N 
ATOM     20  H   LIG    1        9.061  -3.932   2.939  0.00  0.00    +0.183 HD
ATOM     21  O   LIG    1       10.675  -4.365   0.339  0.00  0.00    -0.269 OA
BRANCH  19  22
ATOM     22  O   LIG    1       10.985  -4.718   2.967  0.00  0.00    -0.295 OA
ATOM     23  H   LIG    1       10.946  -4.785   3.931  0.00  0.00    +0.241 HD
ENDBRANCH  19  22
ENDBRANCH  17  18
ENDBRANCH   6  16
TORSDOF 6
