REMARK  Name = ZINC13456778
REMARK                            x       y       z     vdW  Elec       q    Type
REMARK                         _______ _______ _______ _____ _____    ______ ____
ROOT
ATOM      1  C   LIG    1       -1.242  -2.103   0.003  0.00  0.00    +0.008 C 
ATOM      2  C   LIG    1       -1.263  -0.761   0.011  0.00  0.00    +0.009 C 
ENDROOT
BRANCH   1   6
ATOM      3  C   LIG    1       -4.885  -4.282   0.029  0.00  0.00    +0.120 A 
ATOM      4  C   LIG    1       -3.672  -4.960   0.012  0.00  0.00    +0.046 A 
ATOM      5  C   LIG    1       -2.487  -4.257   0.004  0.00  0.00    +0.011 A 
ATOM      6  C   LIG    1       -2.506  -2.860   0.012  0.00  0.00    -0.025 A 
ATOM      7  C   LIG    1       -3.729  -2.182   0.033  0.00  0.00    +0.011 A 
ATOM      8  C   LIG    1       -4.909  -2.894   0.036  0.00  0.00    +0.046 A 
BRANCH   3  10
ATOM      9  C   LIG    1       -7.261  -4.220   0.054  0.00  0.00    +0.277 C 
ATOM     10  O   LIG    1       -6.051  -4.980   0.037  0.00  0.00    -0.495 OA
ENDBRANCH   3  10
ENDBRANCH   1   6
BRANCH   2  11
ATOM     11  C   LIG    1        0.002  -0.004   0.002  0.00  0.00    -0.018 A 
ATOM     12  C   LIG    1       -0.017   1.393   0.010  0.00  0.00    +0.053 A 
ATOM     13  C   LIG    1        1.174   2.099   0.002  0.00  0.00    +0.124 A 
ATOM     14  C   LIG    1        2.385   1.421  -0.013  0.00  0.00    +0.091 A 
ATOM     15  C   LIG    1        2.409   0.034  -0.021  0.00  0.00    +0.124 A 
ATOM     16  C   LIG    1        1.224  -0.681  -0.013  0.00  0.00    +0.053 A 
BRANCH  13  17
ATOM     17  O   LIG    1        1.157   3.458   0.009  0.00  0.00    -0.495 OA
ATOM     18  C   LIG    1        2.422   4.123   0.001  0.00  0.00    +0.277 C 
ENDBRANCH  13  17
BRANCH  15  19
ATOM     19  O   LIG    1        3.598  -0.624  -0.036  0.00  0.00    -0.495 OA
ATOM     20  C   LIG    1        4.782   0.176  -0.043  0.00  0.00    +0.277 C 
ENDBRANCH  15  19
ENDBRANCH   2  11
TORSDOF 5
