REMARK  Name = ZINC13444094
REMARK                            x       y       z     vdW  Elec       q    Type
REMARK                         _______ _______ _______ _____ _____    ______ ____
ROOT
ATOM      1  C   LIG    1       -0.763   1.595  -1.195  0.00  0.00    -0.043 A 
ATOM      2  C   LIG    1       -0.933   0.786  -2.311  0.00  0.00    +0.009 A 
ATOM      3  C   LIG    1       -1.633   1.292  -3.392  0.00  0.00    +0.067 A 
ATOM      4  C   LIG    1       -2.130   2.587  -3.330  0.00  0.00    +0.214 A 
ATOM      5  N   LIG    1       -1.943   3.330  -2.252  0.00  0.00    -0.221 NA
ATOM      6  C   LIG    1       -1.284   2.874  -1.203  0.00  0.00    +0.116 A 
ENDROOT
BRANCH   1  10
ATOM      7  C   LIG    1       -1.598   0.584   1.779  0.00  0.00    -0.095 C 
ATOM      8  N   LIG    1       -0.627   1.582   1.240  0.00  0.00    +0.382 N 
ATOM      9  H   LIG    1       -1.119   2.463   1.052  0.00  0.00    -0.081 HD
ATOM     10  C   LIG    1       -0.013   1.086   0.008  0.00  0.00    -0.037 C 
ATOM     11  C   LIG    1        1.428   1.630  -0.003  0.00  0.00    -0.013 C 
ATOM     12  C   LIG    1        1.569   2.424   1.316  0.00  0.00    -0.020 C 
ATOM     13  C   LIG    1        0.457   1.816   2.207  0.00  0.00    -0.078 C 
ENDBRANCH   1  10
BRANCH   4  14
ATOM     14  O   LIG    1       -2.814   3.096  -4.386  0.00  0.00    -0.480 OA
ATOM     15  C   LIG    1       -3.299   4.434  -4.260  0.00  0.00    +0.279 C 
ENDBRANCH   4  14
TORSDOF 2
