REMARK  Name = ZINC13512214
REMARK                            x       y       z     vdW  Elec       q    Type
REMARK                         _______ _______ _______ _____ _____    ______ ____
ROOT
ATOM      1  C   LIG    1       -0.017   1.378   0.010  0.00  0.00    +0.004 A 
ATOM      2  C   LIG    1        1.169   2.089   0.002  0.00  0.00    +0.004 A 
ATOM      3  C   LIG    1        2.379   1.420  -0.013  0.00  0.00    +0.049 A 
ATOM      4  C   LIG    1        2.405   0.035  -0.021  0.00  0.00    +0.158 A 
ATOM      5  C   LIG    1        1.211  -0.680  -0.013  0.00  0.00    +0.158 A 
ATOM      6  C   LIG    1        0.002  -0.004   0.002  0.00  0.00    +0.049 A 
ENDROOT
BRANCH   4   7
ATOM      7  O   LIG    1        3.594  -0.625  -0.037  0.00  0.00    -0.503 OA
ATOM      8  H   LIG    1        3.947  -0.820   0.842  0.00  0.00    +0.292 HD
ENDBRANCH   4   7
BRANCH   5   9
ATOM      9  O   LIG    1        1.232  -2.040  -0.021  0.00  0.00    -0.503 OA
ATOM     10  H   LIG    1        1.246  -2.438   0.860  0.00  0.00    +0.292 HD
ENDBRANCH   5   9
TORSDOF 2
