REMARK  Name = ZINC13435956
REMARK                            x       y       z     vdW  Elec       q    Type
REMARK                         _______ _______ _______ _____ _____    ______ ____
ROOT
ATOM      1  C   LIG    1        3.076   2.400  -1.274  0.00  0.00    +0.005 A 
ATOM      2  C   LIG    1        3.776   2.712  -0.093  0.00  0.00    -0.010 A 
ATOM      3  C   LIG    1        5.050   3.302  -0.138  0.00  0.00    +0.012 A 
ATOM      4  C   LIG    1        5.700   3.591   1.024  0.00  0.00    -0.046 A 
ATOM      5  C   LIG    1        7.067   4.224   0.972  0.00  0.00    +0.044 C 
ATOM      6  C   LIG    1        5.120   3.311   2.258  0.00  0.00    -0.040 A 
ATOM      7  C   LIG    1        3.885   2.739   2.337  0.00  0.00    +0.013 A 
ATOM      8  C   LIG    1        3.189   2.429   1.163  0.00  0.00    +0.000 A 
ATOM      9  C   LIG    1        1.859   1.821   1.204  0.00  0.00    +0.111 A 
ATOM     10  C   LIG    1        1.220   1.531  -0.001  0.00  0.00    +0.173 A 
ATOM     11  C   LIG    1        1.841   1.830  -1.221  0.00  0.00    +0.163 A 
ENDROOT
BRANCH   9  12
ATOM     12  C   LIG    1        1.212   1.517   2.487  0.00  0.00    +0.341 C 
ATOM     13  O   LIG    1        1.385   0.435   3.014  0.00  0.00    -0.245 OA
BRANCH  12  14
ATOM     14  O   LIG    1        0.426   2.438   3.081  0.00  0.00    -0.477 OA
ATOM     15  H   LIG    1        0.293   3.271   2.675  0.00  0.00    +0.295 HD
ENDBRANCH  12  14
ENDBRANCH   9  12
BRANCH  10  16
ATOM     16  O   LIG    1       -0.011   0.963   0.007  0.00  0.00    -0.503 OA
ATOM     17  H   LIG    1        0.002  -0.004   0.002  0.00  0.00    +0.292 HD
ENDBRANCH  10  16
BRANCH  11  18
ATOM     18  O   LIG    1        1.194   1.542  -2.382  0.00  0.00    -0.503 OA
ATOM     19  H   LIG    1        0.637   2.261  -2.710  0.00  0.00    +0.292 HD
ENDBRANCH  11  18
BRANCH   1  20
ATOM     20  C   LIG    1        3.701   2.702  -2.611  0.00  0.00    +0.039 C 
BRANCH  20  22
ATOM     21  C   LIG    1        3.942   4.420  -4.409  0.00  0.00    +0.004 C 
ATOM     22  C   LIG    1        3.308   4.113  -3.051  0.00  0.00    +0.001 C 
ENDBRANCH  20  22
ENDBRANCH   1  20
BRANCH   6  23
ATOM     23  C   LIG    1        5.868   3.644   3.523  0.00  0.00    +0.070 C 
BRANCH  23  24
ATOM     24  C   LIG    1        5.618   5.084   3.891  0.00  0.00    -0.043 A 
ATOM     25  C   LIG    1        6.457   6.074   3.415  0.00  0.00    +0.004 A 
ATOM     26  C   LIG    1        6.224   7.396   3.748  0.00  0.00    +0.000 A 
ATOM     27  C   LIG    1        5.159   7.726   4.565  0.00  0.00    +0.000 A 
ATOM     28  C   LIG    1        4.323   6.734   5.045  0.00  0.00    +0.000 A 
ATOM     29  C   LIG    1        4.552   5.414   4.708  0.00  0.00    +0.004 A 
ENDBRANCH  23  24
ENDBRANCH   6  23
TORSDOF 8
