REMARK  Name = ZINC13125486
REMARK                            x       y       z     vdW  Elec       q    Type
REMARK                         _______ _______ _______ _____ _____    ______ ____
ROOT
ATOM      1  C   LIG    1        0.052   1.447  -0.501  0.00  0.00    +0.017 A 
ATOM      2  C   LIG    1        1.230   2.148  -0.351  0.00  0.00    +0.027 A 
ATOM      3  C   LIG    1        2.434   1.463  -0.221  0.00  0.00    +0.047 A 
ATOM      4  C   LIG    1        2.433   0.059  -0.245  0.00  0.00    +0.008 A 
ATOM      5  C   LIG    1        3.842  -0.350  -0.086  0.00  0.00    +0.002 A 
ATOM      6  C   LIG    1        4.573   0.813   0.020  0.00  0.00    +0.091 A 
ATOM      7  C   LIG    1        1.237  -0.636  -0.397  0.00  0.00    +0.025 A 
ATOM      8  N   LIG    1        3.740   1.880  -0.060  0.00  0.00    -0.360 N 
ATOM      9  H   LIG    1        4.022   2.806  -0.012  0.00  0.00    +0.165 HD
ATOM     10  C   LIG    1        0.054   0.060  -0.525  0.00  0.00    +0.019 A 
ATOM     11 BR   LIG    1       -1.574  -0.880  -0.732  0.00  0.00    -0.050 Br
ENDROOT
BRANCH   5  12
ATOM     12  C   LIG    1        4.359  -1.717  -0.048  0.00  0.00    +0.038 C 
ATOM     13  C   LIG    1        5.608  -1.960   0.438  0.00  0.00    +0.100 C 
ATOM     14  C   LIG    1        6.350  -3.228   0.411  0.00  0.00    +0.285 C 
ATOM     15  O   LIG    1        5.969  -4.290  -0.056  0.00  0.00    -0.267 OA
ATOM     16  N   LIG    1        7.531  -2.985   1.002  0.00  0.00    -0.126 NA
ATOM     17  C   LIG    1        7.603  -1.733   1.386  0.00  0.00    +0.276 C 
ATOM     18  N   LIG    1        6.470  -1.055   1.069  0.00  0.00    -0.267 N 
ATOM     19  H   LIG    1        6.291  -0.118   1.248  0.00  0.00    +0.156 HD
BRANCH  17  20
ATOM     20  O   LIG    1        8.667  -1.187   2.011  0.00  0.00    -0.483 OA
ATOM     21  H   LIG    1        9.419  -1.713   2.201  0.00  0.00    +0.295 HD
ENDBRANCH  17  20
ENDBRANCH   5  12
TORSDOF 2
