REMARK  Name = ZINC13209604
REMARK                            x       y       z     vdW  Elec       q    Type
REMARK                         _______ _______ _______ _____ _____    ______ ____
ROOT
ATOM      1  C   LIG    1       -0.018   1.503   0.010  0.00  0.00    +0.065 C 
ATOM      2  C   LIG    1        0.002  -0.004   0.002  0.00  0.00    +0.033 A 
ATOM      3  C   LIG    1        0.008  -0.801  -1.084  0.00  0.00    +0.034 A 
ATOM      4  N   LIG    1        0.027  -2.075  -0.663  0.00  0.00    -0.350 N 
ATOM      5  H   LIG    1        0.035  -2.856  -1.239  0.00  0.00    +0.166 HD
ATOM      6  C   LIG    1        0.033  -2.097   0.641  0.00  0.00    +0.171 A 
ATOM      7  N   LIG    1        0.024  -0.826   1.097  0.00  0.00    -0.350 N 
ATOM      8  H   LIG    1        0.030  -0.547   2.026  0.00  0.00    +0.166 HD
ENDROOT
BRANCH   3   9
ATOM      9  C   LIG    1       -0.005  -0.342  -2.519  0.00  0.00    +0.035 C 
BRANCH   9  10
ATOM     10  C   LIG    1        1.427  -0.047  -2.973  0.00  0.00    -0.080 C 
BRANCH  10  11
ATOM     11  N   LIG    1        1.414   0.400  -4.372  0.00  0.00    +0.378 N 
ATOM     12  H   LIG    1        2.358   0.594  -4.671  0.00  0.00    -0.090 HD
ATOM     13  H   LIG    1        0.857   1.237  -4.453  0.00  0.00    -0.090 HD
ATOM     14  H   LIG    1        1.019  -0.324  -4.953  0.00  0.00    -0.090 HD
ENDBRANCH  10  11
ENDBRANCH   9  10
ENDBRANCH   3   9
TORSDOF 3
