REMARK  Name = ZINC13514509
REMARK                            x       y       z     vdW  Elec       q    Type
REMARK                         _______ _______ _______ _____ _____    ______ ____
ROOT
ATOM      1  C   LIG    1        2.381   1.421  -0.013  0.00  0.00    +0.001 A 
ATOM      2  C   LIG    1        1.161   2.086   0.002  0.00  0.00    +0.002 A 
ATOM      3  C   LIG    1       -0.017   1.393   0.010  0.00  0.00    +0.028 A 
ATOM      4  C   LIG    1        0.002  -0.004   0.002  0.00  0.00    +0.080 A 
ATOM      5  C   LIG    1        1.245  -0.677  -0.013  0.00  0.00    +0.065 A 
ATOM      6  C   LIG    1        1.238  -2.146  -0.021  0.00  0.00    +0.260 A 
ATOM      7  N   LIG    1        0.035  -2.766  -0.012  0.00  0.00    -0.295 N 
ATOM      8  C   LIG    1       -1.120  -2.039   0.003  0.00  0.00    +0.194 A 
ATOM      9  H   LIG    1       -0.018  -3.865  -0.017  0.00  0.00    +0.172 HD
ATOM     10  O   LIG    1        2.275  -2.782  -0.034  0.00  0.00    -0.267 OA
ATOM     11  N   LIG    1       -1.141  -0.730   0.009  0.00  0.00    -0.216 NA
ATOM     12  C   LIG    1        2.432   0.054  -0.021  0.00  0.00    +0.015 A 
ENDROOT
BRANCH   8  13
ATOM     13  N   LIG    1       -2.316  -2.712   0.011  0.00  0.00    -0.329 N 
ATOM     14  H   LIG    1       -2.328  -3.812   0.005  0.00  0.00    +0.145 HD
ATOM     15  H   LIG    1       -3.262  -2.151   0.023  0.00  0.00    +0.145 HD
ENDBRANCH   8  13
TORSDOF 1
