REMARK  Name = ZINC13473173
REMARK                            x       y       z     vdW  Elec       q    Type
REMARK                         _______ _______ _______ _____ _____    ______ ____
ROOT
ATOM      1  C   LIG    1        2.818  -2.324   0.046  0.00  0.00    +0.040 A 
ATOM      2  C   LIG    1        1.427  -2.073   0.032  0.00  0.00    +0.039 A 
ATOM      3  C   LIG    1        1.266  -0.732  -0.178  0.00  0.00    +0.042 A 
ATOM      4  N   LIG    1        2.514  -0.157  -0.284  0.00  0.00    -0.349 N 
ATOM      5  C   LIG    1        2.777   1.267  -0.507  0.00  0.00    +0.149 C 
ATOM      6  C   LIG    1        3.453  -1.110  -0.150  0.00  0.00    +0.097 A 
ENDROOT
BRANCH   1   7
ATOM      7  C   LIG    1        3.469  -3.631   0.239  0.00  0.00    +0.195 C 
ATOM      8  O   LIG    1        4.678  -3.696   0.360  0.00  0.00    -0.287 OA
BRANCH   7  13
ATOM      9  C   LIG    1        0.296  -8.429   0.416  0.00  0.00    +0.044 C 
ATOM     10  C   LIG    1        1.127  -7.172   0.370  0.00  0.00    -0.050 A 
ATOM     11  C   LIG    1        2.333  -7.118   1.047  0.00  0.00    +0.004 A 
ATOM     12  C   LIG    1        3.098  -5.971   1.009  0.00  0.00    +0.012 A 
ATOM     13  C   LIG    1        2.654  -4.864   0.284  0.00  0.00    +0.022 A 
ATOM     14  C   LIG    1        1.434  -4.923  -0.393  0.00  0.00    +0.012 A 
ATOM     15  C   LIG    1        0.682  -6.078  -0.351  0.00  0.00    +0.004 A 
ENDBRANCH   7  13
ENDBRANCH   1   7
BRANCH   3  16
ATOM     16  C   LIG    1       -0.011  -0.027  -0.267  0.00  0.00    +0.031 C 
ATOM     17  C   LIG    1       -1.169  -0.691  -0.035  0.00  0.00    +0.071 C 
BRANCH  17  18
ATOM     18  C   LIG    1       -2.397   0.015  -0.008  0.00  0.00    +0.259 C 
ATOM     19  N   LIG    1       -3.549  -0.646   0.224  0.00  0.00    -0.194 N 
ATOM     20  H   LIG    1       -3.537  -1.604   0.372  0.00  0.00    +0.183 HD
ATOM     21  O   LIG    1       -2.412   1.218  -0.194  0.00  0.00    -0.269 OA
BRANCH  19  22
ATOM     22  O   LIG    1       -4.776   0.060   0.250  0.00  0.00    -0.295 OA
ATOM     23  H   LIG    1       -5.547  -0.498   0.423  0.00  0.00    +0.241 HD
ENDBRANCH  19  22
ENDBRANCH  17  18
ENDBRANCH   3  16
TORSDOF 5
