REMARK  Name = ZINC13494220
REMARK                            x       y       z     vdW  Elec       q    Type
REMARK                         _______ _______ _______ _____ _____    ______ ____
ROOT
ATOM      1  C   LIG    1        3.657  -1.988  -0.010  0.00  0.00    +0.129 A 
ATOM      2  C   LIG    1        2.493  -2.744  -0.046  0.00  0.00    +0.048 A 
ATOM      3  C   LIG    1        2.562  -4.121  -0.019  0.00  0.00    +0.031 A 
ATOM      4  C   LIG    1        3.804  -4.754   0.043  0.00  0.00    +0.064 A 
ATOM      5  C   LIG    1        4.971  -3.991   0.078  0.00  0.00    +0.031 A 
ATOM      6  C   LIG    1        4.895  -2.615   0.046  0.00  0.00    +0.048 A 
ENDROOT
BRANCH   4   7
ATOM      7  N   LIG    1        3.876  -6.125   0.070  0.00  0.00    -0.256 NA
ATOM      8  C   LIG    1        4.731  -6.741  -0.676  0.00  0.00    +0.133 C 
BRANCH   8   9
ATOM      9  C   LIG    1        4.811  -8.245  -0.646  0.00  0.00    +0.249 C 
ATOM     10  C   LIG    1        4.499  -8.805  -2.011  0.00  0.00    +0.012 A 
ATOM     11  C   LIG    1        5.081  -8.664  -3.249  0.00  0.00    +0.008 A 
ATOM     12  C   LIG    1        4.547  -9.325  -4.343  0.00  0.00    +0.000 A 
ATOM     13  C   LIG    1        3.430 -10.128  -4.195  0.00  0.00    +0.001 A 
ATOM     14  C   LIG    1        2.838 -10.277  -2.958  0.00  0.00    +0.015 A 
ATOM     15  C   LIG    1        3.370  -9.614  -1.851  0.00  0.00    +0.066 A 
ATOM     16  C   LIG    1        2.983  -9.565  -0.430  0.00  0.00    +0.341 C 
ATOM     17  O   LIG    1        2.040 -10.156   0.057  0.00  0.00    -0.245 OA
ATOM     18  O   LIG    1        3.827  -8.770   0.249  0.00  0.00    -0.447 OA
ENDBRANCH   8   9
ENDBRANCH   4   7
BRANCH   1  19
ATOM     19  O   LIG    1        3.586  -0.632  -0.036  0.00  0.00    -0.456 OA
BRANCH  19  23
ATOM     20  C   LIG    1        3.335   1.363   3.566  0.00  0.00    +0.000 A 
ATOM     21  C   LIG    1        3.418  -0.017   3.546  0.00  0.00    +0.004 A 
ATOM     22  C   LIG    1        3.502  -0.687   2.341  0.00  0.00    +0.046 A 
ATOM     23  C   LIG    1        3.503   0.025   1.150  0.00  0.00    +0.128 A 
ATOM     24  C   LIG    1        3.420   1.410   1.174  0.00  0.00    +0.046 A 
ATOM     25  C   LIG    1        3.336   2.076   2.381  0.00  0.00    +0.004 A 
ENDBRANCH  19  23
ENDBRANCH   1  19
TORSDOF 4
