REMARK  Name = ZINC13328045
REMARK                            x       y       z     vdW  Elec       q    Type
REMARK                         _______ _______ _______ _____ _____    ______ ____
ROOT
ATOM      1  C   UNK    1        3.518   0.759   0.843  0.00  0.00    -0.011 C 
ATOM      2  C   UNK    1        2.258   0.636  -0.016  0.00  0.00    -0.043 C 
ATOM      3  N   UNK    1        1.319  -0.337   0.546  0.00  0.00    +0.388 N 
ATOM      4  H   UNK    1        1.587  -1.288   0.270  0.00  0.00    -0.085 HD
ATOM      5  H   UNK    1        1.308  -0.268   1.570  0.00  0.00    -0.085 HD
ATOM      6  C   UNK    1        0.002  -0.004   0.002  0.00  0.00    -0.014 C 
ATOM      7  C   UNK    1       -0.019   1.540   0.011  0.00  0.00    +0.130 C 
ATOM      8  C   UNK    1        1.465   1.961  -0.001  0.00  0.00    +0.127 C 
ENDROOT
BRANCH   7   9
ATOM      9  O   UNK    1       -0.662   2.021   1.192  0.00  0.00    -0.391 OA
ATOM     10  H   UNK    1       -0.704   2.985   1.252  0.00  0.00    +0.210 HD
ENDBRANCH   7   9
BRANCH   8  11
ATOM     11  O   UNK    1        1.755   2.725  -1.173  0.00  0.00    -0.391 OA
ATOM     12  H   UNK    1        1.251   3.548  -1.240  0.00  0.00    +0.210 HD
ENDBRANCH   8  11
BRANCH   6  13
ATOM     13  C   UNK    1       -1.124  -0.558   0.878  0.00  0.00    +0.143 C 
BRANCH  13  14
ATOM     14  O   UNK    1       -1.159  -1.982   0.764  0.00  0.00    -0.397 OA
ATOM     15  H   UNK    1       -1.851  -2.402   1.294  0.00  0.00    +0.209 HD
ENDBRANCH  13  14
ENDBRANCH   6  13
TORSDOF 4
