REMARK  Name = ZINC13409856
REMARK                            x       y       z     vdW  Elec       q    Type
REMARK                         _______ _______ _______ _____ _____    ______ ____
ROOT
ATOM      1  C   LIG    1       -0.017   1.379   0.010  0.00  0.00    +0.016 A 
ATOM      2  C   LIG    1        1.175   2.084   0.002  0.00  0.00    +0.007 A 
ATOM      3  C   LIG    1        2.373   1.407  -0.013  0.00  0.00    -0.008 A 
ATOM      4  C   LIG    1        3.813   1.866  -0.025  0.00  0.00    +0.159 C 
ATOM      5  C   LIG    1        4.609   0.578  -0.040  0.00  0.00    +0.231 C 
ATOM      6  O   LIG    1        5.818   0.479  -0.052  0.00  0.00    -0.274 OA
ATOM      7  N   LIG    1        3.726  -0.434  -0.036  0.00  0.00    -0.284 N 
ATOM      8  H   LIG    1        3.977  -1.371  -0.043  0.00  0.00    +0.155 HD
ATOM      9  C   LIG    1        2.405   0.017  -0.021  0.00  0.00    +0.039 A 
ATOM     10  C   LIG    1        1.203  -0.685  -0.013  0.00  0.00    +0.039 A 
ATOM     11  C   LIG    1        0.002  -0.004   0.002  0.00  0.00    +0.020 A 
ATOM     12 BR   LIG    1       -1.625  -0.967   0.012  0.00  0.00    -0.050 Br
ENDROOT
BRANCH   4  13
ATOM     13  C   LIG    1        4.098   2.677  -1.262  0.00  0.00    +0.105 C 
ATOM     14  C   LIG    1        5.377   3.378  -1.571  0.00  0.00    +0.210 C 
ATOM     15  C   LIG    1        5.128   4.015  -2.892  0.00  0.00    +0.049 A 
ATOM     16  C   LIG    1        5.888   4.801  -3.735  0.00  0.00    +0.015 A 
ATOM     17  C   LIG    1        5.346   5.249  -4.936  0.00  0.00    +0.016 A 
ATOM     18  C   LIG    1        4.054   4.908  -5.280  0.00  0.00    +0.020 A 
ATOM     19 BR   LIG    1        3.327   5.522  -6.914  0.00  0.00    -0.050 Br
ATOM     20  C   LIG    1        3.282   4.117  -4.436  0.00  0.00    +0.043 A 
ATOM     21  C   LIG    1        3.809   3.662  -3.233  0.00  0.00    +0.076 A 
ATOM     22  O   LIG    1        6.387   3.419  -0.900  0.00  0.00    -0.285 OA
ATOM     23  N   LIG    1        3.279   2.880  -2.239  0.00  0.00    -0.247 NA
ENDBRANCH   4  13
TORSDOF 1
