REMARK  Name = ZINC13468414
REMARK                            x       y       z     vdW  Elec       q    Type
REMARK                         _______ _______ _______ _____ _____    ______ ____
ROOT
ATOM      1  N   LIG    1        3.614  -1.864  -0.934  0.00  0.00    +0.389 N 
ATOM      2  H   LIG    1        2.889  -2.482  -0.600  0.00  0.00    -0.080 HD
ATOM      3  C   LIG    1        3.278  -1.409  -2.289  0.00  0.00    -0.058 C 
ATOM      4  C   LIG    1        3.060  -2.625  -3.196  0.00  0.00    +0.091 C 
ATOM      5  N   LIG    1        4.254  -3.482  -3.121  0.00  0.00    -0.289 N 
ATOM      6  C   LIG    1        4.867  -3.915  -4.240  0.00  0.00    +0.302 C 
ATOM      7  N   LIG    1        6.015  -4.614  -4.152  0.00  0.00    -0.296 N 
ATOM      8  H   LIG    1        6.362  -4.870  -3.283  0.00  0.00    +0.151 HD
ATOM      9  O   LIG    1        4.384  -3.674  -5.330  0.00  0.00    -0.253 OA
ATOM     10  C   LIG    1        4.758  -3.853  -1.790  0.00  0.00    +0.091 C 
ATOM     11  C   LIG    1        4.896  -2.579  -0.950  0.00  0.00    -0.058 C 
ENDROOT
BRANCH   7  12
ATOM     12  C   LIG    1        6.741  -4.989  -5.368  0.00  0.00    +0.074 C 
ATOM     13  C   LIG    1        6.162  -6.291  -5.927  0.00  0.00    +0.022 C 
ATOM     14  C   LIG    1        6.920  -6.682  -7.197  0.00  0.00    +0.002 C 
ATOM     15  C   LIG    1        8.400  -6.882  -6.867  0.00  0.00    +0.000 C 
ATOM     16  C   LIG    1        8.979  -5.580  -6.309  0.00  0.00    +0.002 C 
ATOM     17  C   LIG    1        8.221  -5.189  -5.038  0.00  0.00    +0.022 C 
ENDBRANCH   7  12
BRANCH   1  18
ATOM     18  C   LIG    1        3.714  -0.702  -0.041  0.00  0.00    -0.007 C 
BRANCH  18  22
ATOM     19  C   LIG    1       -0.014   1.383   0.007  0.00  0.00    +0.000 A 
ATOM     20  C   LIG    1        1.174   2.091  -0.003  0.00  0.00    +0.000 A 
ATOM     21  C   LIG    1        2.380   1.416  -0.018  0.00  0.00    +0.002 A 
ATOM     22  C   LIG    1        2.399   0.034  -0.023  0.00  0.00    -0.057 A 
ATOM     23  C   LIG    1        1.211  -0.674  -0.013  0.00  0.00    +0.002 A 
ATOM     24  C   LIG    1        0.005   0.001   0.001  0.00  0.00    +0.000 A 
ENDBRANCH  18  22
BRANCH  18  25
ATOM     25  C   LIG    1        4.048  -1.168   1.353  0.00  0.00    -0.057 A 
ATOM     26  C   LIG    1        3.460  -2.312   1.859  0.00  0.00    +0.002 A 
ATOM     27  C   LIG    1        3.766  -2.739   3.137  0.00  0.00    +0.000 A 
ATOM     28  C   LIG    1        4.660  -2.022   3.910  0.00  0.00    +0.000 A 
ATOM     29  C   LIG    1        5.249  -0.878   3.404  0.00  0.00    +0.000 A 
ATOM     30  C   LIG    1        4.946  -0.454   2.124  0.00  0.00    +0.002 A 
ENDBRANCH  18  25
ENDBRANCH   1  18
TORSDOF 4
