REMARK  Name = ZINC13536503
REMARK                            x       y       z     vdW  Elec       q    Type
REMARK                         _______ _______ _______ _____ _____    ______ ____
ROOT
ATOM      1  C   LIG    1       -3.929  -0.227  -2.288  0.00  0.00    +0.161 C 
ENDROOT
BRANCH   1   2
ATOM      2  N   LIG    1       -4.920   0.347  -1.375  0.00  0.00    -0.302 N 
ATOM      3  H   LIG    1       -5.022   1.309  -1.312  0.00  0.00    +0.150 HD
ATOM      4  C   LIG    1       -5.691  -0.463  -0.623  0.00  0.00    +0.234 C 
ATOM      5  O   LIG    1       -5.628  -1.666  -0.766  0.00  0.00    -0.274 OA
BRANCH   4   6
ATOM      6  C   LIG    1       -6.633   0.126   0.396  0.00  0.00    +0.161 C 
BRANCH   6   7
ATOM      7  N   LIG    1       -7.642  -0.871   0.763  0.00  0.00    -0.304 N 
ATOM      8  H   LIG    1       -7.446  -1.817   0.667  0.00  0.00    +0.149 HD
ATOM      9  C   LIG    1       -8.841  -0.475   1.233  0.00  0.00    +0.214 C 
ATOM     10  O   LIG    1       -9.085   0.707   1.353  0.00  0.00    -0.276 OA
BRANCH   9  11
ATOM     11  C   LIG    1       -9.879  -1.501   1.610  0.00  0.00    +0.098 C 
BRANCH  11  12
ATOM     12  C   LIG    1      -11.139  -0.792   2.111  0.00  0.00    -0.008 C 
ATOM     13  C   LIG    1      -10.821  -0.042   3.406  0.00  0.00    +0.008 C 
ATOM     14  C   LIG    1      -12.235  -1.826   2.375  0.00  0.00    +0.008 C 
ENDBRANCH  11  12
ENDBRANCH   9  11
ENDBRANCH   6   7
BRANCH   6  15
ATOM     15  C   LIG    1       -5.845   0.536   1.642  0.00  0.00    +0.012 C 
ATOM     16  C   LIG    1       -5.211  -0.704   2.276  0.00  0.00    +0.009 C 
ATOM     17  C   LIG    1       -6.789   1.197   2.648  0.00  0.00    +0.009 C 
ENDBRANCH   6  15
ENDBRANCH   4   6
ENDBRANCH   1   2
BRANCH   1  20
ATOM     18  N   LIG    1       -1.802   0.465  -3.345  0.00  0.00    -0.308 N 
ATOM     19  H   LIG    1       -1.769  -0.404  -3.774  0.00  0.00    +0.149 HD
ATOM     20  C   LIG    1       -2.830   0.776  -2.531  0.00  0.00    +0.234 C 
ATOM     21  O   LIG    1       -2.871   1.862  -1.993  0.00  0.00    -0.274 OA
BRANCH  18  22
ATOM     22  C   LIG    1       -0.733   1.439  -3.580  0.00  0.00    +0.102 C 
BRANCH  22  23
ATOM     23  C   LIG    1       -0.069   1.152  -4.928  0.00  0.00    +0.145 C 
BRANCH  23  24
ATOM     24  O   LIG    1        0.483  -0.166  -4.915  0.00  0.00    -0.389 OA
ATOM     25  H   LIG    1       -0.169  -0.864  -4.764  0.00  0.00    +0.210 HD
ENDBRANCH  23  24
BRANCH  23  26
ATOM     26  C   LIG    1       -1.111   1.258  -6.043  0.00  0.00    +0.153 C 
BRANCH  26  27
ATOM     27  C   LIG    1       -0.434   1.096  -7.380  0.00  0.00    +0.310 C 
ATOM     28  O   LIG    1        0.759   0.915  -7.435  0.00  0.00    -0.251 OA
BRANCH  27  29
ATOM     29  O   LIG    1       -1.157   1.154  -8.509  0.00  0.00    -0.465 OA
BRANCH  29  31
ATOM     30  C   LIG    1       -1.423   1.085 -10.929  0.00  0.00    +0.048 C 
ATOM     31  C   LIG    1       -0.439   0.990  -9.761  0.00  0.00    +0.229 C 
ENDBRANCH  29  31
ENDBRANCH  27  29
ENDBRANCH  26  27
ENDBRANCH  23  26
ENDBRANCH  22  23
BRANCH  22  32
ATOM     32  C   LIG    1        0.309   1.333  -2.465  0.00  0.00    +0.028 C 
BRANCH  32  33
ATOM     33  C   LIG    1       -0.326   1.742  -1.134  0.00  0.00    -0.015 C 
ATOM     34  C   LIG    1        0.678   1.517  -0.001  0.00  0.00    +0.007 C 
ATOM     35  C   LIG    1       -0.713   3.221  -1.186  0.00  0.00    +0.007 C 
ENDBRANCH  32  33
ENDBRANCH  22  32
ENDBRANCH  18  22
ENDBRANCH   1  20
BRANCH   1  36
ATOM     36  C   LIG    1       -4.602  -0.577  -3.617  0.00  0.00    +0.012 C 
ATOM     37  C   LIG    1       -5.195   0.690  -4.238  0.00  0.00    +0.009 C 
ATOM     38  C   LIG    1       -5.717  -1.595  -3.371  0.00  0.00    +0.009 C 
ENDBRANCH   1  36
TORSDOF 17
