REMARK  Name = ZINC13000352
REMARK                            x       y       z     vdW  Elec       q    Type
REMARK                         _______ _______ _______ _____ _____    ______ ____
ROOT
ATOM      1  N   LIG    1       -0.011   0.966   0.007  0.00  0.00    -0.284 N 
ATOM      2  H   LIG    1       -0.097   0.000   0.045  0.00  0.00    +0.155 HD
ATOM      3  C   LIG    1       -1.114   1.740  -0.007  0.00  0.00    +0.222 C 
ATOM      4  O   LIG    1       -1.009   2.943  -0.127  0.00  0.00    -0.275 OA
ENDROOT
BRANCH   1   6
ATOM      5  C   LIG    1        2.344   0.993   0.629  0.00  0.00    +0.117 A 
ATOM      6  C   LIG    1        1.254   1.553  -0.037  0.00  0.00    +0.055 A 
ATOM      7  C   LIG    1        1.486   2.718  -0.736  0.00  0.00    +0.032 A 
ATOM      8  C   LIG    1        2.735   3.247  -0.746  0.00  0.00    +0.048 A 
ATOM      9  S   LIG    1        3.649   2.138   0.224  0.00  0.00    -0.088 S 
BRANCH   5  10
ATOM     10  C   LIG    1        2.400  -0.180   1.419  0.00  0.00    +0.347 C 
ATOM     11  O   LIG    1        1.396  -0.848   1.589  0.00  0.00    -0.244 OA
BRANCH  10  13
ATOM     12  C   LIG    1        3.549  -1.751   2.770  0.00  0.00    +0.280 C 
ATOM     13  O   LIG    1        3.565  -0.557   1.985  0.00  0.00    -0.464 OA
ENDBRANCH  10  13
ENDBRANCH   5  10
ENDBRANCH   1   6
BRANCH   3  14
ATOM     14  C   LIG    1       -2.478   1.112   0.124  0.00  0.00    +0.131 C 
BRANCH  14  15
ATOM     15  C   LIG    1       -3.533   2.187   0.078  0.00  0.00    -0.031 A 
ATOM     16  C   LIG    1       -4.023   2.714   1.233  0.00  0.00    +0.005 A 
ATOM     17  C   LIG    1       -4.999   3.708   1.211  0.00  0.00    +0.001 A 
ATOM     18  C   LIG    1       -5.489   4.182   0.033  0.00  0.00    +0.008 A 
ATOM     19  C   LIG    1       -5.007   3.663  -1.180  0.00  0.00    -0.018 A 
ATOM     20  C   LIG    1       -5.489   4.127  -2.416  0.00  0.00    +0.008 A 
ATOM     21  C   LIG    1       -4.999   3.600  -3.571  0.00  0.00    +0.001 A 
ATOM     22  C   LIG    1       -4.023   2.606  -3.549  0.00  0.00    +0.001 A 
ATOM     23  C   LIG    1       -3.531   2.132  -2.371  0.00  0.00    +0.009 A 
ATOM     24  C   LIG    1       -4.011   2.655  -1.158  0.00  0.00    -0.014 A 
ENDBRANCH  14  15
ENDBRANCH   3  14
TORSDOF 5
