REMARK  Name = ZINC13527964
REMARK                            x       y       z     vdW  Elec       q    Type
REMARK                         _______ _______ _______ _____ _____    ______ ____
ROOT
ATOM      1  C   LIG    1        2.470  -0.097   0.790  0.00  0.00    +0.155 C 
ATOM      2  C   LIG    1        2.499   1.352   0.343  0.00  0.00    +0.046 A 
ATOM      3  C   LIG    1        1.396   2.050  -0.000  0.00  0.00    -0.015 A 
ATOM      4  C   LIG    1       -0.019   1.529   0.010  0.00  0.00    +0.069 C 
ATOM      5  C   LIG    1        0.002  -0.004   0.002  0.00  0.00    +0.169 C 
ATOM      6  C   LIG    1       -1.279  -0.533   0.614  0.00  0.00    +0.244 C 
ATOM      7  O   LIG    1       -2.407  -0.376   0.198  0.00  0.00    -0.273 OA
ATOM      8  N   LIG    1       -0.907  -1.214   1.717  0.00  0.00    -0.220 N 
ATOM      9  C   LIG    1        0.421  -1.175   1.899  0.00  0.00    +0.313 C 
ATOM     10  O   LIG    1        0.997  -1.734   2.811  0.00  0.00    -0.252 OA
ATOM     11  C   LIG    1        1.843   3.380  -0.372  0.00  0.00    +0.003 A 
ATOM     12  C   LIG    1        1.160   4.518  -0.812  0.00  0.00    +0.010 A 
ATOM     13  C   LIG    1        1.917   5.633  -1.074  0.00  0.00    +0.001 A 
ATOM     14  C   LIG    1        3.292   5.643  -0.914  0.00  0.00    +0.002 A 
ATOM     15  C   LIG    1        3.994   4.530  -0.482  0.00  0.00    +0.026 A 
ATOM     16  C   LIG    1        3.252   3.383  -0.209  0.00  0.00    +0.047 A 
ATOM     17  N   LIG    1        3.612   2.140   0.224  0.00  0.00    -0.356 N 
ATOM     18  H   LIG    1        4.520   1.857   0.417  0.00  0.00    +0.166 HD
ATOM     19  N   LIG    1        1.054  -0.452   0.941  0.00  0.00    -0.261 N 
ENDROOT
BRANCH   1  23
ATOM     20  C   LIG    1        4.499  -0.527   4.527  0.00  0.00    +0.120 A 
ATOM     21  C   LIG    1        5.120  -0.920   3.350  0.00  0.00    +0.046 A 
ATOM     22  C   LIG    1        4.462  -0.780   2.143  0.00  0.00    +0.009 A 
ATOM     23  C   LIG    1        3.186  -0.248   2.108  0.00  0.00    -0.021 A 
ATOM     24  C   LIG    1        2.567   0.149   3.279  0.00  0.00    +0.009 A 
ATOM     25  C   LIG    1        3.219   0.006   4.489  0.00  0.00    +0.046 A 
BRANCH  20  27
ATOM     26  C   LIG    1        4.444  -0.239   6.886  0.00  0.00    +0.277 C 
ATOM     27  O   LIG    1        5.144  -0.665   5.715  0.00  0.00    -0.495 OA
ENDBRANCH  20  27
ENDBRANCH   1  23
BRANCH   8  28
ATOM     28  C   LIG    1       -1.839  -1.912   2.606  0.00  0.00    +0.153 C 
BRANCH  28  29
ATOM     29  C   LIG    1       -2.016  -3.332   2.134  0.00  0.00    -0.030 A 
ATOM     30  C   LIG    1       -3.017  -3.640   1.232  0.00  0.00    +0.005 A 
ATOM     31  C   LIG    1       -3.177  -4.942   0.795  0.00  0.00    +0.000 A 
ATOM     32  C   LIG    1       -2.342  -5.937   1.268  0.00  0.00    +0.000 A 
ATOM     33  C   LIG    1       -1.345  -5.630   2.174  0.00  0.00    +0.000 A 
ATOM     34  C   LIG    1       -1.182  -4.327   2.607  0.00  0.00    +0.005 A 
ENDBRANCH  28  29
ENDBRANCH   8  28
TORSDOF 4
