REMARK  Name = ZINC13553349
REMARK                            x       y       z     vdW  Elec       q    Type
REMARK                         _______ _______ _______ _____ _____    ______ ____
ROOT
ATOM      1  C   LIG    1       -2.432   3.519   3.508  0.00  0.00    -0.022 A 
ATOM      2  C   LIG    1       -2.067   3.685   2.227  0.00  0.00    +0.116 A 
ATOM      3  N   LIG    1       -1.974   2.469   1.607  0.00  0.00    -0.218 N 
ATOM      4  C   LIG    1       -2.276   1.463   2.501  0.00  0.00    +0.073 A 
ATOM      5  C   LIG    1       -2.328   0.077   2.397  0.00  0.00    +0.032 A 
ATOM      6  C   LIG    1       -2.671  -0.683   3.494  0.00  0.00    +0.048 A 
ATOM      7  C   LIG    1       -2.968  -0.077   4.712  0.00  0.00    +0.121 A 
ATOM      8  C   LIG    1       -2.922   1.298   4.835  0.00  0.00    +0.056 A 
ATOM      9  C   LIG    1       -2.576   2.078   3.730  0.00  0.00    +0.008 A 
ENDROOT
BRANCH   3  10
ATOM     10  S   LIG    1       -1.554   2.238   0.022  0.00  0.00    +0.084 S 
ATOM     11  O   LIG    1       -2.519   1.353  -0.529  0.00  0.00    -0.148 OA
ATOM     12  O   LIG    1       -1.304   3.526  -0.523  0.00  0.00    -0.148 OA
BRANCH  10  13
ATOM     13  C   LIG    1       -0.017   1.378   0.010  0.00  0.00    +0.111 A 
ATOM     14  C   LIG    1        1.171   2.086   0.002  0.00  0.00    +0.029 A 
ATOM     15  C   LIG    1        2.377   1.411  -0.014  0.00  0.00    +0.002 A 
ATOM     16  C   LIG    1        2.396   0.029  -0.022  0.00  0.00    +0.000 A 
ATOM     17  C   LIG    1        1.208  -0.679  -0.014  0.00  0.00    +0.002 A 
ATOM     18  C   LIG    1        0.002  -0.004   0.002  0.00  0.00    +0.029 A 
ENDBRANCH  10  13
ENDBRANCH   3  10
BRANCH   7  19
ATOM     19  O   LIG    1       -3.305  -0.842   5.784  0.00  0.00    -0.495 OA
ATOM     20  C   LIG    1       -3.333  -2.257   5.588  0.00  0.00    +0.277 C 
ENDBRANCH   7  19
BRANCH   1  21
ATOM     21  C   LIG    1       -2.647   4.609   4.527  0.00  0.00    +0.019 C 
BRANCH  21  22
ATOM     22  C   LIG    1       -1.365   4.811   5.335  0.00  0.00    -0.075 C 
BRANCH  22  24
ATOM     23  C   LIG    1       -2.562   5.464   7.336  0.00  0.00    -0.097 C 
ATOM     24  N   LIG    1       -1.585   5.896   6.315  0.00  0.00    +0.376 N 
ATOM     25  H   LIG    1       -1.956   6.718   5.824  0.00  0.00    -0.083 HD
ATOM     26  C   LIG    1       -0.306   6.260   6.961  0.00  0.00    -0.097 C 
ENDBRANCH  22  24
ENDBRANCH  21  22
ENDBRANCH   1  21
TORSDOF 6
