REMARK  Name = ZINC13473570
REMARK                            x       y       z     vdW  Elec       q    Type
REMARK                         _______ _______ _______ _____ _____    ______ ____
ROOT
ATOM      1  C   LIG    1        0.203  -0.841  -1.237  0.00  0.00    +0.375 C 
ATOM      2  N   LIG    1        0.078  -0.248  -2.397  0.00  0.00    -0.037 NA
ENDROOT
BRANCH   2   3
ATOM      3  C   LIG    1        0.199   1.108  -2.486  0.00  0.00    +0.178 A 
ATOM      4  C   LIG    1       -0.648   1.940  -1.746  0.00  0.00    +0.055 A 
ATOM      5  C   LIG    1       -0.519   3.309  -1.841  0.00  0.00    +0.006 A 
ATOM      6  C   LIG    1        0.445   3.862  -2.665  0.00  0.00    +0.020 A 
ATOM      7  C   LIG    1        1.288   3.046  -3.401  0.00  0.00    +0.045 A 
ATOM      8 CL   LIG    1        2.494   3.751  -4.432  0.00  0.00    -0.083 Cl
ATOM      9  C   LIG    1        1.175   1.673  -3.313  0.00  0.00    +0.075 A 
ENDBRANCH   2   3
BRANCH   1  11
ATOM     10  C   LIG    1       -0.719   0.144   0.965  0.00  0.00    +0.100 C 
ATOM     11  C   LIG    1        0.410  -0.039  -0.017  0.00  0.00    +0.244 C 
ATOM     12  O   LIG    1        1.488   0.472   0.197  0.00  0.00    -0.284 OA
ENDBRANCH   1  11
BRANCH   1  13
ATOM     13  N   LIG    1        0.142  -2.219  -1.156  0.00  0.00    -0.136 N 
ATOM     14  H   LIG    1        0.235  -2.659  -0.297  0.00  0.00    +0.323 HD
BRANCH  13  15
ATOM     15  N   LIG    1       -0.054  -2.981  -2.316  0.00  0.00    -0.196 N 
ATOM     16  H   LIG    1       -0.147  -2.541  -3.175  0.00  0.00    +0.194 HD
BRANCH  15  17
ATOM     17  C   LIG    1       -0.116  -4.375  -2.234  0.00  0.00    +0.065 A 
ATOM     18  C   LIG    1        0.011  -5.006  -1.003  0.00  0.00    +0.027 A 
ATOM     19  C   LIG    1       -0.050  -6.383  -0.925  0.00  0.00    +0.017 A 
ATOM     20  C   LIG    1       -0.238  -7.135  -2.071  0.00  0.00    +0.018 A 
ATOM     21 BR   LIG    1       -0.321  -9.021  -1.961  0.00  0.00    -0.050 Br
ATOM     22  C   LIG    1       -0.365  -6.509  -3.299  0.00  0.00    +0.017 A 
ATOM     23  C   LIG    1       -0.310  -5.131  -3.382  0.00  0.00    +0.027 A 
ENDBRANCH  15  17
ENDBRANCH  13  15
ENDBRANCH   1  13
TORSDOF 5
