REMARK  Name = ZINC13524440
REMARK                            x       y       z     vdW  Elec       q    Type
REMARK                         _______ _______ _______ _____ _____    ______ ____
ROOT
ATOM      1  C   LIG    1        2.036  -0.291  -1.235  0.00  0.00    +0.120 A 
ATOM      2  C   LIG    1        2.785   0.004  -0.105  0.00  0.00    +0.053 A 
ATOM      3  C   LIG    1        4.151  -0.301  -0.101  0.00  0.00    +0.005 A 
ATOM      4  C   LIG    1        4.702  -0.895  -1.247  0.00  0.00    +0.030 A 
ATOM      5  C   LIG    1        3.887  -1.154  -2.325  0.00  0.00    +0.113 A 
ATOM      6  N   LIG    1        2.599  -0.858  -2.293  0.00  0.00    -0.240 NA
ENDROOT
BRANCH   3   7
ATOM      7  C   LIG    1        4.988  -0.006   1.076  0.00  0.00    +0.075 A 
ATOM      8  C   LIG    1        6.218   0.624   1.081  0.00  0.00    +0.098 A 
ATOM      9  N   LIG    1        6.637   0.694   2.358  0.00  0.00    -0.221 NA
ATOM     10  C   LIG    1        5.742   0.145   3.147  0.00  0.00    +0.167 A 
ATOM     11  N   LIG    1        4.696  -0.299   2.397  0.00  0.00    -0.332 N 
ATOM     12  H   LIG    1        3.898  -0.741   2.726  0.00  0.00    +0.168 HD
BRANCH   8  13
ATOM     13  C   LIG    1        6.945   1.131  -0.106  0.00  0.00    +0.003 A 
ATOM     14  C   LIG    1        6.259   1.825  -1.103  0.00  0.00    +0.013 A 
ATOM     15  C   LIG    1        6.941   2.296  -2.206  0.00  0.00    +0.039 A 
ATOM     16  C   LIG    1        8.304   2.079  -2.325  0.00  0.00    +0.123 A 
ATOM     17  F   LIG    1        8.967   2.541  -3.408  0.00  0.00    -0.205 F 
ATOM     18  C   LIG    1        8.990   1.389  -1.338  0.00  0.00    +0.039 A 
ATOM     19  C   LIG    1        8.318   0.920  -0.228  0.00  0.00    +0.013 A 
ENDBRANCH   8  13
BRANCH  10  20
ATOM     20  S   LIG    1        5.870   0.012   4.899  0.00  0.00    -0.091 S 
ATOM     21  C   LIG    1        7.465   0.787   5.282  0.00  0.00    +0.093 C 
ENDBRANCH  10  20
ENDBRANCH   3   7
BRANCH   1  22
ATOM     22  N   LIG    1        0.677   0.005  -1.256  0.00  0.00    -0.322 N 
ATOM     23  H   LIG    1        0.148  -0.203  -2.042  0.00  0.00    +0.148 HD
BRANCH  22  25
ATOM     24  C   LIG    1        0.228   2.148  -0.166  0.00  0.00    +0.033 C 
ATOM     25  C   LIG    1        0.046   0.630  -0.091  0.00  0.00    +0.099 C 
BRANCH  25  26
ATOM     26  C   LIG    1       -1.425   0.301  -0.080  0.00  0.00    -0.028 A 
ATOM     27  C   LIG    1       -2.139   0.289  -1.263  0.00  0.00    +0.005 A 
ATOM     28  C   LIG    1       -3.488  -0.013  -1.253  0.00  0.00    +0.000 A 
ATOM     29  C   LIG    1       -4.122  -0.303  -0.059  0.00  0.00    +0.000 A 
ATOM     30  C   LIG    1       -3.408  -0.292   1.124  0.00  0.00    +0.000 A 
ATOM     31  C   LIG    1       -2.058   0.006   1.113  0.00  0.00    +0.005 A 
ENDBRANCH  25  26
ENDBRANCH  22  25
ENDBRANCH   1  22
TORSDOF 6
