REMARK  Name = ZINC13516897
REMARK                            x       y       z     vdW  Elec       q    Type
REMARK                         _______ _______ _______ _____ _____    ______ ____
ROOT
ATOM      1  C   LIG    1       -0.018   1.457   0.010  0.00  0.00    +0.034 A 
ATOM      2  C   LIG    1        1.264   1.861   0.000  0.00  0.00    +0.085 A 
ATOM      3  N   LIG    1        2.091   0.767  -0.014  0.00  0.00    -0.346 N 
ATOM      4  H   LIG    1        3.061   0.803  -0.023  0.00  0.00    +0.167 HD
ATOM      5  C   LIG    1        1.352  -0.380  -0.013  0.00  0.00    +0.149 A 
ATOM      6  N   LIG    1        1.667  -1.684  -0.022  0.00  0.00    -0.179 NA
ATOM      7  C   LIG    1        0.738  -2.608  -0.018  0.00  0.00    +0.298 A 
ATOM      8  N   LIG    1       -0.589  -2.302  -0.004  0.00  0.00    -0.276 N 
ATOM      9  H   LIG    1       -1.249  -3.013  -0.002  0.00  0.00    +0.173 HD
ATOM     10  C   LIG    1       -0.990  -1.010   0.006  0.00  0.00    +0.263 A 
ATOM     11  O   LIG    1       -2.174  -0.722   0.019  0.00  0.00    -0.267 OA
ATOM     12  C   LIG    1        0.002  -0.004   0.002  0.00  0.00    +0.083 A 
ENDROOT
BRANCH   7  13
ATOM     13  O   LIG    1        1.108  -3.906  -0.029  0.00  0.00    -0.480 OA
ATOM     14  H   LIG    1        2.016  -4.134  -0.039  0.00  0.00    +0.295 HD
ENDBRANCH   7  13
TORSDOF 1
