REMARK  Name = ZINC13551648
REMARK                            x       y       z     vdW  Elec       q    Type
REMARK                         _______ _______ _______ _____ _____    ______ ____
ROOT
ATOM      1  C   LIG    1        0.224   1.009  -1.018  0.00  0.00    +0.004 A 
ATOM      2  C   LIG    1        1.308   1.829  -0.786  0.00  0.00    +0.008 A 
ATOM      3  C   LIG    1        2.493   1.292  -0.270  0.00  0.00    -0.020 A 
ATOM      4  C   LIG    1        2.570  -0.076   0.008  0.00  0.00    +0.053 A 
ATOM      5  C   LIG    1        1.474  -0.888  -0.229  0.00  0.00    +0.122 A 
ATOM      6  C   LIG    1        0.303  -0.344  -0.742  0.00  0.00    +0.046 A 
ENDROOT
BRANCH   3   7
ATOM      7  C   LIG    1        3.651   2.163  -0.021  0.00  0.00    +0.028 C 
ATOM      8  C   LIG    1        4.732   1.680   0.640  0.00  0.00    +0.080 C 
ATOM      9  C   LIG    1        6.058   2.297   0.856  0.00  0.00    +0.258 C 
ATOM     10  N   LIG    1        6.935   1.589   1.548  0.00  0.00    -0.243 N 
ATOM     11  H   LIG    1        7.817   1.957   1.712  0.00  0.00    +0.159 HD
ATOM     12  C   LIG    1        6.630   0.367   2.030  0.00  0.00    +0.283 C 
ATOM     13  O   LIG    1        7.333  -0.386   2.677  0.00  0.00    -0.262 OA
ATOM     14  O   LIG    1        6.329   3.400   0.419  0.00  0.00    -0.269 OA
ATOM     15  S   LIG    1        4.943   0.126   1.498  0.00  0.00    -0.026 S 
ENDBRANCH   3   7
BRANCH   5  16
ATOM     16  O   LIG    1        1.544  -2.218   0.040  0.00  0.00    -0.487 OA
BRANCH  16  17
ATOM     17  C   LIG    1        0.377  -2.997  -0.230  0.00  0.00    +0.266 C 
BRANCH  17  18
ATOM     18  C   LIG    1        0.640  -4.437   0.127  0.00  0.00    +0.008 A 
ATOM     19  C   LIG    1        1.873  -4.810   0.630  0.00  0.00    +0.010 A 
ATOM     20  C   LIG    1        2.115  -6.131   0.957  0.00  0.00    +0.020 A 
ATOM     21  C   LIG    1        1.124  -7.080   0.781  0.00  0.00    +0.042 A 
ATOM     22 CL   LIG    1        1.428  -8.739   1.192  0.00  0.00    -0.083 Cl
ATOM     23  C   LIG    1       -0.109  -6.708   0.278  0.00  0.00    +0.040 A 
ATOM     24  C   LIG    1       -0.353  -5.385  -0.044  0.00  0.00    +0.049 A 
ATOM     25 CL   LIG    1       -1.903  -4.914  -0.668  0.00  0.00    -0.083 Cl
ENDBRANCH  17  18
ENDBRANCH  16  17
ENDBRANCH   5  16
TORSDOF 4
