REMARK  Name = ZINC13549069
REMARK                            x       y       z     vdW  Elec       q    Type
REMARK                         _______ _______ _______ _____ _____    ______ ____
ROOT
ATOM      1  C   LIG    1       -3.387   2.487   0.032  0.00  0.00    +0.138 A 
ATOM      2  C   LIG    1       -2.751   3.750   0.035  0.00  0.00    +0.050 A 
ATOM      3  C   LIG    1       -1.410   3.533   0.034  0.00  0.00    +0.050 A 
ATOM      4  C   LIG    1       -1.227   2.075   0.019  0.00  0.00    +0.130 A 
ATOM      5  O   LIG    1       -2.458   1.517   0.022  0.00  0.00    -0.455 OA
ENDROOT
BRANCH   4   6
ATOM      6  C   LIG    1       -0.017   1.398   0.010  0.00  0.00    +0.066 C 
ATOM      7  C   LIG    1        0.002  -0.004   0.002  0.00  0.00    +0.082 C 
ATOM      8  C   LIG    1        1.173  -0.935  -0.020  0.00  0.00    +0.258 C 
ATOM      9  N   LIG    1        0.888  -2.228  -0.019  0.00  0.00    -0.243 N 
ATOM     10  H   LIG    1        1.605  -2.880  -0.030  0.00  0.00    +0.159 HD
ATOM     11  C   LIG    1       -0.395  -2.641  -0.010  0.00  0.00    +0.283 C 
ATOM     12  O   LIG    1       -0.816  -3.780  -0.012  0.00  0.00    -0.262 OA
ATOM     13  O   LIG    1        2.317  -0.529  -0.035  0.00  0.00    -0.269 OA
ATOM     14  S   LIG    1       -1.327  -1.121   0.008  0.00  0.00    -0.026 S 
ENDBRANCH   4   6
BRANCH   1  19
ATOM     15  C   LIG    1       -6.995   2.726   0.974  0.00  0.00    +0.001 A 
ATOM     16  C   LIG    1       -7.571   1.864   0.052  0.00  0.00    +0.002 A 
ATOM     17  C   LIG    1       -6.785   1.203  -0.880  0.00  0.00    +0.033 A 
ATOM     18  C   LIG    1       -5.423   1.401  -0.899  0.00  0.00    +0.132 A 
ATOM     19  C   LIG    1       -4.832   2.270   0.037  0.00  0.00    +0.047 A 
ATOM     20  C   LIG    1       -5.645   2.933   0.976  0.00  0.00    +0.014 A 
BRANCH  18  21
ATOM     21  N   LIG    1       -4.582   0.700  -1.897  0.00  0.00    +0.007 N 
ATOM     22  O   LIG    1       -5.138  -0.112  -2.771  0.00  0.00    -0.130 OA
BRANCH  21  23
ATOM     23  O   LIG    1       -3.279   0.889  -1.909  0.00  0.00    -0.396 OA
ATOM     24  H   LIG    1       -2.884   1.467  -1.286  0.00  0.00    +0.329 HD
ENDBRANCH  21  23
ENDBRANCH  18  21
ENDBRANCH   1  19
TORSDOF 4
