REMARK  Name = ZINC13519041
REMARK                            x       y       z     vdW  Elec       q    Type
REMARK                         _______ _______ _______ _____ _____    ______ ____
ROOT
ATOM      1  C   LIG    1       -1.476   4.326   2.538  0.00  0.00    +0.098 C 
ENDROOT
BRANCH   1   2
ATOM      2  C   LIG    1       -2.923   3.908   2.489  0.00  0.00    +0.308 C 
ATOM      3  O   LIG    1       -3.338   3.280   1.545  0.00  0.00    -0.251 OA
BRANCH   2   4
ATOM      4  O   LIG    1       -3.749   4.234   3.495  0.00  0.00    -0.480 OA
ATOM      5  H   LIG    1       -3.427   4.721   4.228  0.00  0.00    +0.295 HD
ENDBRANCH   2   4
ENDBRANCH   1   2
BRANCH   1   6
ATOM      6  C   LIG    1       -0.759   3.833   1.279  0.00  0.00    +0.015 C 
BRANCH   6   7
ATOM      7  C   LIG    1       -0.739   2.303   1.271  0.00  0.00    +0.011 C 
BRANCH   7   8
ATOM      8  C   LIG    1       -0.022   1.810   0.012  0.00  0.00    +0.065 C 
BRANCH   8   9
ATOM      9  S   LIG    1        0.002  -0.004   0.002  0.00  0.00    -0.178 S 
ATOM     10  H   LIG    1        0.648  -0.315  -1.136  0.00  0.00    +0.102 HD
ENDBRANCH   8   9
ENDBRANCH   7   8
ENDBRANCH   6   7
ENDBRANCH   1   6
BRANCH   1  11
ATOM     11  C   LIG    1       -1.388   5.852   2.610  0.00  0.00    +0.026 C 
BRANCH  11  12
ATOM     12  C   LIG    1       -1.994   6.336   3.929  0.00  0.00    +0.121 C 
BRANCH  12  13
ATOM     13  C   LIG    1       -1.907   7.839   3.999  0.00  0.00    +0.305 C 
ATOM     14  O   LIG    1       -1.411   8.459   3.088  0.00  0.00    -0.251 OA
BRANCH  13  15
ATOM     15  O   LIG    1       -2.380   8.489   5.074  0.00  0.00    -0.481 OA
ATOM     16  H   LIG    1       -2.765   8.008   5.781  0.00  0.00    +0.295 HD
ENDBRANCH  13  15
ENDBRANCH  12  13
ENDBRANCH  11  12
ENDBRANCH   1  11
TORSDOF 10
