REMARK  Name = ZINC13517187
REMARK                            x       y       z     vdW  Elec       q    Type
REMARK                         _______ _______ _______ _____ _____    ______ ____
ROOT
ATOM      1  C   LIG    1       -0.016   1.326   0.009  0.00  0.00    +0.224 A 
ATOM      2  N   LIG    1        1.210   1.797   0.000  0.00  0.00    -0.227 NA
ATOM      3  C   LIG    1        2.062   0.746  -0.014  0.00  0.00    +0.167 A 
ATOM      4  C   LIG    1        1.258  -0.416  -0.012  0.00  0.00    +0.167 A 
ATOM      5  N   LIG    1        1.873  -1.656  -0.024  0.00  0.00    -0.291 N 
ATOM      6  C   LIG    1        3.217  -1.741  -0.037  0.00  0.00    +0.328 A 
ATOM      7  N   LIG    1        3.994  -0.644  -0.038  0.00  0.00    -0.277 N 
ATOM      8  H   LIG    1        4.959  -0.745  -0.048  0.00  0.00    +0.173 HD
ATOM      9  O   LIG    1        3.741  -2.838  -0.047  0.00  0.00    -0.247 OA
ATOM     10  H   LIG    1        1.336  -2.464  -0.024  0.00  0.00    +0.172 HD
ATOM     11  C   LIG    1        3.451   0.605  -0.028  0.00  0.00    +0.224 A 
ATOM     12  N   LIG    1        0.002  -0.004   0.002  0.00  0.00    -0.216 NA
ENDROOT
BRANCH  11  13
ATOM     13  O   LIG    1        4.245   1.691  -0.030  0.00  0.00    -0.492 OA
ATOM     14  H   LIG    1        3.866   2.548  -0.023  0.00  0.00    +0.294 HD
ENDBRANCH  11  13
TORSDOF 1
