REMARK  Name = ZINC13511092
REMARK                            x       y       z     vdW  Elec       q    Type
REMARK                         _______ _______ _______ _____ _____    ______ ____
ROOT
ATOM      1  C   LIG    1        3.120   2.396   1.194  0.00  0.00    +0.004 A 
ATOM      2  C   LIG    1        3.743   2.696   0.000  0.00  0.00    +0.013 A 
ATOM      3  C   LIG    1        3.107   2.414  -1.209  0.00  0.00    +0.042 A 
ATOM      4  C   LIG    1        1.840   1.829  -1.205  0.00  0.00    +0.058 A 
ATOM      5  C   LIG    1        1.223   1.532  -0.001  0.00  0.00    +0.118 A 
ATOM      6  C   LIG    1        1.862   1.822   1.197  0.00  0.00    +0.045 A 
ENDROOT
BRANCH   3   7
ATOM      7  C   LIG    1        3.772   2.734  -2.490  0.00  0.00    +0.267 C 
ATOM      8  N   LIG    1        4.995   3.299  -2.492  0.00  0.00    -0.193 N 
ATOM      9  H   LIG    1        5.440   3.495  -1.652  0.00  0.00    +0.183 HD
ATOM     10  O   LIG    1        3.215   2.487  -3.542  0.00  0.00    -0.268 OA
BRANCH   8  11
ATOM     11  O   LIG    1        5.632   3.605  -3.719  0.00  0.00    -0.295 OA
ATOM     12  H   LIG    1        6.506   4.007  -3.619  0.00  0.00    +0.241 HD
ENDBRANCH   8  11
ENDBRANCH   3   7
BRANCH   5  13
ATOM     13  O   LIG    1       -0.011   0.963   0.007  0.00  0.00    -0.507 OA
ATOM     14  H   LIG    1        0.002  -0.004   0.002  0.00  0.00    +0.292 HD
ENDBRANCH   5  13
TORSDOF 3
