REMARK  Name = ZINC13507607
REMARK                            x       y       z     vdW  Elec       q    Type
REMARK                         _______ _______ _______ _____ _____    ______ ____
ROOT
ATOM      1  N   LIG    1       -2.082  -0.162   1.273  0.00  0.00    -0.304 N 
ATOM      2  H   LIG    1       -1.545   0.006   2.063  0.00  0.00    +0.149 HD
ATOM      3  C   LIG    1       -3.424  -0.053   1.334  0.00  0.00    +0.231 C 
ATOM      4  O   LIG    1       -4.095  -0.264   0.346  0.00  0.00    -0.274 OA
ENDROOT
BRANCH   3   5
ATOM      5  C   LIG    1       -4.090   0.329   2.630  0.00  0.00    +0.200 C 
BRANCH   5   6
ATOM      6  N   LIG    1       -5.542   0.379   2.437  0.00  0.00    -0.308 N 
ATOM      7  H   LIG    1       -5.922   0.179   1.567  0.00  0.00    +0.149 HD
ATOM      8  C   LIG    1       -6.348   0.702   3.467  0.00  0.00    +0.199 C 
ATOM      9  O   LIG    1       -5.872   0.952   4.554  0.00  0.00    -0.278 OA
BRANCH   8  10
ATOM     10  C   LIG    1       -7.841   0.753   3.268  0.00  0.00    +0.013 C 
BRANCH  10  11
ATOM     11  N   LIG    1       -8.513   0.647   4.570  0.00  0.00    +0.386 N 
ATOM     12  H   LIG    1       -8.226   1.414   5.160  0.00  0.00    -0.089 HD
ATOM     13  H   LIG    1       -8.261  -0.227   5.008  0.00  0.00    -0.089 HD
ATOM     14  H   LIG    1       -9.512   0.681   4.437  0.00  0.00    -0.089 HD
ENDBRANCH  10  11
BRANCH  10  15
ATOM     15  C   LIG    1       -8.222   2.078   2.604  0.00  0.00    +0.004 C 
BRANCH  15  16
ATOM     16  C   LIG    1       -9.719   2.078   2.289  0.00  0.00    +0.119 C 
BRANCH  16  17
ATOM     17  C   LIG    1      -10.094   3.383   1.635  0.00  0.00    +0.305 C 
ATOM     18  O   LIG    1       -9.243   4.234   1.439  0.00  0.00    -0.251 OA
BRANCH  17  19
ATOM     19  O   LIG    1      -11.249   3.588   1.302  0.00  0.00    -0.481 OA
ATOM     20  H   LIG    1      -11.903   2.934   1.452  0.00  0.00    +0.295 HD
ENDBRANCH  17  19
ENDBRANCH  16  17
ENDBRANCH  15  16
ENDBRANCH  10  15
ENDBRANCH   8  10
ENDBRANCH   5   6
ENDBRANCH   3   5
BRANCH   1  21
ATOM     21  C   LIG    1       -1.433  -0.534   0.013  0.00  0.00    +0.140 C 
BRANCH  21  22
ATOM     22  C   LIG    1       -1.416  -2.035  -0.119  0.00  0.00    +0.168 C 
ATOM     23  O   LIG    1       -1.639  -2.728   0.844  0.00  0.00    -0.294 OA
BRANCH  22  24
ATOM     24  C   LIG    1       -1.120  -2.670  -1.453  0.00  0.00    +0.184 C 
ATOM     25 CL   LIG    1       -1.172  -4.465  -1.288  0.00  0.00    -0.117 Cl
ENDBRANCH  22  24
ENDBRANCH  21  22
BRANCH  21  26
ATOM     26  C   LIG    1        0.002  -0.004   0.002  0.00  0.00    +0.033 C 
BRANCH  26  27
ATOM     27  C   LIG    1       -0.019   1.526   0.010  0.00  0.00    +0.039 C 
BRANCH  27  28
ATOM     28  C   LIG    1        1.417   2.055  -0.000  0.00  0.00    +0.196 C 
BRANCH  28  29
ATOM     29  N   LIG    1        1.397   3.520   0.008  0.00  0.00    -0.279 N 
ATOM     30  H   LIG    1        0.550   3.994   0.018  0.00  0.00    +0.258 HD
BRANCH  29  31
ATOM     31  C   LIG    1        2.572   4.220   0.000  0.00  0.00    +0.341 C 
ATOM     32  N   LIG    1        2.554   5.552   0.007  0.00  0.00    -0.292 N 
ATOM     33  H   LIG    1        3.387   6.048   0.002  0.00  0.00    +0.255 HD
ATOM     34  H   LIG    1        1.707   6.026   0.018  0.00  0.00    +0.255 HD
BRANCH  31  35
ATOM     35  N   LIG    1        3.734   3.570  -0.014  0.00  0.00    -0.292 N 
ATOM     36  H   LIG    1        4.568   4.066  -0.020  0.00  0.00    +0.255 HD
ATOM     37  H   LIG    1        3.748   2.600  -0.020  0.00  0.00    +0.255 HD
ENDBRANCH  31  35
ENDBRANCH  29  31
ENDBRANCH  28  29
ENDBRANCH  27  28
ENDBRANCH  26  27
ENDBRANCH  21  26
ENDBRANCH   1  21
TORSDOF 17
