REMARK  Name = ZINC13453673
REMARK                            x       y       z     vdW  Elec       q    Type
REMARK                         _______ _______ _______ _____ _____    ______ ____
ROOT
ATOM      1  C   LIG    1       -0.729   1.579   1.267  0.00  0.00    +0.125 C 
ENDROOT
BRANCH   1   2
ATOM      2  O   LIG    1       -0.647   3.004   1.334  0.00  0.00    -0.391 OA
ATOM      3  H   LIG    1        0.258   3.345   1.368  0.00  0.00    +0.210 HD
ENDBRANCH   1   2
BRANCH   1   4
ATOM      4  C   LIG    1       -0.064   0.971   2.503  0.00  0.00    -0.052 C 
BRANCH   4   5
ATOM      5  N   LIG    1       -0.821   1.373   3.702  0.00  0.00    +0.380 N 
ATOM      6  H   LIG    1       -0.796   2.396   3.789  0.00  0.00    -0.090 HD
ATOM      7  H   LIG    1       -0.404   0.959   4.534  0.00  0.00    -0.090 HD
ATOM      8  H   LIG    1       -1.790   1.070   3.621  0.00  0.00    -0.090 HD
ENDBRANCH   4   5
ENDBRANCH   1   4
BRANCH   1   9
ATOM      9  C   LIG    1       -0.013   1.086   0.008  0.00  0.00    +0.214 C 
BRANCH   9  10
ATOM     10  O   LIG    1       -0.704   1.559  -1.150  0.00  0.00    -0.300 OA
BRANCH  10  11
ATOM     11  N   LIG    1       -0.100   1.143  -2.415  0.00  0.00    -0.215 NA
ATOM     12  H   LIG    1       -0.622   1.501  -3.201  0.00  0.00    +0.150 HD
ATOM     13  H   LIG    1       -0.017   0.138  -2.463  0.00  0.00    +0.150 HD
ENDBRANCH  10  11
ENDBRANCH   9  10
ENDBRANCH   1   9
TORSDOF 6
