REMARK  Name = ZINC13537284
REMARK                            x       y       z     vdW  Elec       q    Type
REMARK                         _______ _______ _______ _____ _____    ______ ____
ROOT
ATOM      1  N   LIG    1        1.372  -0.174  -2.990  0.00  0.00    -0.291 N 
ATOM      2  C   LIG    1        2.020   1.120  -2.822  0.00  0.00    +0.114 C 
ATOM      3  C   LIG    1        3.494   0.996  -2.438  0.00  0.00    +0.073 C 
ATOM      4  C   LIG    1        4.149  -0.021  -3.340  0.00  0.00    +0.033 A 
ATOM      5  C   LIG    1        3.426  -1.069  -3.869  0.00  0.00    +0.065 A 
ATOM      6  C   LIG    1        4.341  -1.845  -4.680  0.00  0.00    +0.012 A 
ATOM      7  C   LIG    1        4.192  -2.999  -5.450  0.00  0.00    +0.011 A 
ATOM      8  C   LIG    1        5.318  -3.466  -6.104  0.00  0.00    +0.001 A 
ATOM      9  C   LIG    1        6.541  -2.824  -6.005  0.00  0.00    +0.002 A 
ATOM     10  C   LIG    1        6.712  -1.678  -5.248  0.00  0.00    +0.026 A 
ATOM     11  C   LIG    1        5.594  -1.187  -4.578  0.00  0.00    +0.050 A 
ATOM     12  N   LIG    1        5.428  -0.098  -3.762  0.00  0.00    -0.346 N 
ATOM     13  C   LIG    1        6.488   0.847  -3.401  0.00  0.00    +0.149 C 
ATOM     14  C   LIG    1        1.999  -1.230  -3.561  0.00  0.00    +0.249 C 
ATOM     15  O   LIG    1        1.407  -2.262  -3.812  0.00  0.00    -0.270 OA
ENDROOT
BRANCH   1  16
ATOM     16  C   LIG    1       -0.005  -0.342  -2.519  0.00  0.00    +0.165 C 
BRANCH  16  19
ATOM     17  C   LIG    1       -0.018   1.503   0.010  0.00  0.00    +0.065 C 
ATOM     18  C   LIG    1        0.002  -0.004   0.002  0.00  0.00    +0.037 A 
ATOM     19  C   LIG    1        0.008  -0.801  -1.084  0.00  0.00    +0.079 A 
ATOM     20  N   LIG    1        0.027  -2.075  -0.663  0.00  0.00    -0.239 NA
ATOM     21  C   LIG    1        0.033  -2.097   0.641  0.00  0.00    +0.197 A 
ATOM     22  N   LIG    1        0.024  -0.826   1.097  0.00  0.00    -0.348 N 
ATOM     23  H   LIG    1        0.030  -0.547   2.026  0.00  0.00    +0.166 HD
ENDBRANCH  16  19
ENDBRANCH   1  16
TORSDOF 2
