REMARK  Name = ZINC13281694
REMARK                            x       y       z     vdW  Elec       q    Type
REMARK                         _______ _______ _______ _____ _____    ______ ____
ROOT
ATOM      1  C   LIG    1        0.002  -0.004   0.002  0.00  0.00    +0.064 A 
ATOM      2  N   LIG    1       -0.015   1.340   0.009  0.00  0.00    -0.339 N 
ATOM      3  H   LIG    1       -0.859   1.924   0.021  0.00  0.00    +0.167 HD
ATOM      4  C   LIG    1        1.218   1.789   0.000  0.00  0.00    +0.116 A 
ATOM      5  N   LIG    1        2.069   0.722  -0.014  0.00  0.00    -0.345 N 
ATOM      6  H   LIG    1        3.068   0.760  -0.023  0.00  0.00    +0.167 HD
ATOM      7  C   LIG    1        1.301  -0.408  -0.013  0.00  0.00    +0.110 A 
ENDROOT
BRANCH   1  11
ATOM      8  C   LIG    1       -3.405  -2.548   0.019  0.00  0.00    +0.000 A 
ATOM      9  C   LIG    1       -3.571  -1.175   0.030  0.00  0.00    +0.001 A 
ATOM     10  C   LIG    1       -2.468  -0.344   0.024  0.00  0.00    +0.010 A 
ATOM     11  C   LIG    1       -1.187  -0.892   0.009  0.00  0.00    -0.000 A 
ATOM     12  C   LIG    1       -1.026  -2.276  -0.007  0.00  0.00    +0.010 A 
ATOM     13  C   LIG    1       -2.135  -3.097   0.004  0.00  0.00    +0.001 A 
ENDBRANCH   1  11
BRANCH   4  14
ATOM     14  C   LIG    1        1.619   3.213   0.004  0.00  0.00    +0.015 A 
ATOM     15  C   LIG    1        2.971   3.560  -0.002  0.00  0.00    +0.011 A 
ATOM     16  C   LIG    1        3.338   4.890  -0.004  0.00  0.00    +0.001 A 
ATOM     17  C   LIG    1        2.370   5.878   0.012  0.00  0.00    +0.000 A 
ATOM     18  C   LIG    1        1.029   5.541   0.023  0.00  0.00    +0.001 A 
ATOM     19  C   LIG    1        0.648   4.215   0.019  0.00  0.00    +0.011 A 
ENDBRANCH   4  14
TORSDOF 2
