REMARK  Name = ZINC13489140
REMARK                            x       y       z     vdW  Elec       q    Type
REMARK                         _______ _______ _______ _____ _____    ______ ____
ROOT
ATOM      1  C   LIG    1       -2.373   3.659   0.032  0.00  0.00    +0.075 A 
ATOM      2  C   LIG    1       -3.607   3.037   0.035  0.00  0.00    +0.056 A 
ATOM      3  C   LIG    1       -3.658   1.631   0.028  0.00  0.00    +0.076 A 
ATOM      4  C   LIG    1       -2.432   0.918   0.019  0.00  0.00    +0.040 A 
ATOM      5  C   LIG    1       -1.218   1.641   0.017  0.00  0.00    +0.129 A 
ATOM      6  C   LIG    1       -2.461  -0.484   0.012  0.00  0.00    +0.015 A 
ATOM      7  C   LIG    1       -3.682  -1.103   0.015  0.00  0.00    +0.020 A 
ATOM      8  C   LIG    1       -4.848  -0.344   0.025  0.00  0.00    +0.111 A 
ATOM      9  N   LIG    1       -4.816   0.969   0.031  0.00  0.00    -0.255 NA
ATOM     10  N   LIG    1       -1.236   2.959   0.029  0.00  0.00    -0.232 NA
ENDROOT
BRANCH   1  14
ATOM     11  C   LIG    1       -2.192   7.907   0.052  0.00  0.00    +0.120 A 
ATOM     12  C   LIG    1       -1.019   7.164   0.043  0.00  0.00    +0.046 A 
ATOM     13  C   LIG    1       -1.074   5.787   0.036  0.00  0.00    +0.013 A 
ATOM     14  C   LIG    1       -2.310   5.140   0.039  0.00  0.00    +0.001 A 
ATOM     15  C   LIG    1       -3.486   5.889   0.042  0.00  0.00    +0.013 A 
ATOM     16  C   LIG    1       -3.424   7.266   0.054  0.00  0.00    +0.046 A 
BRANCH  11  18
ATOM     17  C   LIG    1       -3.379   9.967   0.067  0.00  0.00    +0.277 C 
ATOM     18  O   LIG    1       -2.134   9.264   0.058  0.00  0.00    -0.495 OA
ENDBRANCH  11  18
ENDBRANCH   1  14
BRANCH   5  19
ATOM     19  N   LIG    1       -0.011   0.966   0.007  0.00  0.00    -0.330 N 
ATOM     20  H   LIG    1        0.004  -0.134   0.006  0.00  0.00    +0.147 HD
BRANCH  19  21
ATOM     21  C   LIG    1        1.248   1.716  -0.001  0.00  0.00    +0.083 C 
BRANCH  21  22
ATOM     22  C   LIG    1        2.424   0.737  -0.017  0.00  0.00    -0.068 C 
BRANCH  22  23
ATOM     23  N   LIG    1        3.686   1.489  -0.025  0.00  0.00    +0.379 N 
ATOM     24  H   LIG    1        3.727   2.127  -0.920  0.00  0.00    -0.090 HD
ATOM     25  H   LIG    1        3.744   2.117   0.876  0.00  0.00    -0.090 HD
ATOM     26  H   LIG    1        4.532   0.786  -0.037  0.00  0.00    -0.090 HD
ENDBRANCH  22  23
ENDBRANCH  21  22
ENDBRANCH  19  21
ENDBRANCH   5  19
TORSDOF 6
