REMARK  Name = ZINC13489630
REMARK                            x       y       z     vdW  Elec       q    Type
REMARK                         _______ _______ _______ _____ _____    ______ ____
ROOT
ATOM      1  C   LIG    1        3.699  -0.689  -0.038  0.00  0.00    +0.094 A 
ATOM      2  C   LIG    1        3.721  -2.081  -0.052  0.00  0.00    +0.045 A 
ATOM      3  C   LIG    1        4.971  -2.704  -0.068  0.00  0.00    +0.064 A 
ATOM      4  C   LIG    1        5.436  -4.088  -0.084  0.00  0.00    +0.147 A 
ATOM      5  N   LIG    1        6.744  -4.063  -0.093  0.00  0.00    -0.157 NA
ATOM      6  N   LIG    1        7.199  -2.741  -0.085  0.00  0.00    -0.257 N 
ATOM      7  H   LIG    1        8.130  -2.468  -0.089  0.00  0.00    +0.191 HD
ATOM      8  C   LIG    1        6.127  -1.892  -0.069  0.00  0.00    +0.180 A 
ATOM      9  N   LIG    1        5.993  -0.572  -0.056  0.00  0.00    -0.129 NA
ATOM     10  N   LIG    1        4.840  -0.005  -0.046  0.00  0.00    -0.147 NA
ENDROOT
BRANCH   1  14
ATOM     11  C   LIG    1       -0.017   1.379   0.010  0.00  0.00    +0.000 A 
ATOM     12  C   LIG    1        1.169   2.092   0.002  0.00  0.00    +0.001 A 
ATOM     13  C   LIG    1        2.377   1.426  -0.013  0.00  0.00    +0.010 A 
ATOM     14  C   LIG    1        2.402   0.033  -0.021  0.00  0.00    +0.002 A 
ATOM     15  C   LIG    1        1.205  -0.680  -0.013  0.00  0.00    +0.010 A 
ATOM     16  C   LIG    1        0.002  -0.004   0.002  0.00  0.00    +0.001 A 
ENDBRANCH   1  14
BRANCH   4  17
ATOM     17  N   LIG    1        4.632  -5.231  -0.087  0.00  0.00    -0.341 N 
ATOM     18  H   LIG    1        5.040  -6.111  -0.098  0.00  0.00    +0.144 HD
ATOM     19  H   LIG    1        3.666  -5.144  -0.079  0.00  0.00    +0.144 HD
ENDBRANCH   4  17
TORSDOF 2
