REMARK  Name = ZINC13488071
REMARK                            x       y       z     vdW  Elec       q    Type
REMARK                         _______ _______ _______ _____ _____    ______ ____
ROOT
ATOM      1  C   LIG    1        3.711   2.040  -0.023  0.00  0.00    +0.010 C 
ATOM      2  C   LIG    1        2.377   1.338  -0.014  0.00  0.00    +0.017 C 
ATOM      3  C   LIG    1        2.314  -0.038  -0.020  0.00  0.00    +0.087 C 
ATOM      4  N   LIG    1        1.150  -0.745  -0.013  0.00  0.00    -0.301 NA
ATOM      5  H   LIG    1        1.136  -1.772  -0.018  0.00  0.00    +0.123 HD
ATOM      6  C   LIG    1        0.002  -0.004   0.002  0.00  0.00    +0.126 C 
ATOM      7  C   LIG    1       -0.017   1.384   0.010  0.00  0.00    +0.053 C 
ATOM      8  C   LIG    1        1.191   2.075   0.002  0.00  0.00    +0.057 C 
ENDROOT
BRANCH   6   9
ATOM      9  N   LIG    1       -1.197  -0.709   0.009  0.00  0.00    -0.283 NA
ATOM     10  C   LIG    1       -0.955  -2.160  -0.023  0.00  0.00    +0.091 C 
ATOM     11  C   LIG    1       -2.253  -2.876   0.353  0.00  0.00    +0.051 C 
ATOM     12  C   LIG    1       -3.393  -2.345  -0.478  0.00  0.00    -0.042 A 
ATOM     13  C   LIG    1       -4.562  -3.087  -0.548  0.00  0.00    +0.004 A 
ATOM     14  C   LIG    1       -5.633  -2.632  -1.291  0.00  0.00    +0.000 A 
ATOM     15  C   LIG    1       -5.540  -1.431  -1.968  0.00  0.00    +0.000 A 
ATOM     16  C   LIG    1       -4.376  -0.693  -1.901  0.00  0.00    +0.005 A 
ATOM     17  C   LIG    1       -3.298  -1.149  -1.156  0.00  0.00    -0.030 A 
ATOM     18  C   LIG    1       -2.047  -0.310  -1.116  0.00  0.00    +0.121 C 
ENDBRANCH   6   9
BRANCH   8  19
ATOM     19  N   LIG    1        1.216   3.467   0.009  0.00  0.00    -0.327 NA
ATOM     20  H   LIG    1        2.065   3.936   0.003  0.00  0.00    +0.118 HD
ATOM     21  H   LIG    1        0.385   3.967   0.019  0.00  0.00    +0.118 HD
ENDBRANCH   8  19
TORSDOF 2
