REMARK  Name = ZINC13492315
REMARK                            x       y       z     vdW  Elec       q    Type
REMARK                         _______ _______ _______ _____ _____    ______ ____
ROOT
ATOM      1  C   LIG    1       -2.214   1.766   0.699  0.00  0.00    +0.085 C 
ATOM      2  C   LIG    1       -0.777   1.604   1.245  0.00  0.00    +0.028 C 
ATOM      3  C   LIG    1       -0.013   1.086   0.008  0.00  0.00    +0.041 C 
ATOM      4  C   LIG    1       -0.785   1.607  -1.185  0.00  0.00    -0.001 A 
ATOM      5  C   LIG    1       -0.410   1.730  -2.517  0.00  0.00    +0.120 A 
ATOM      6  C   LIG    1       -1.302   2.243  -3.446  0.00  0.00    +0.046 A 
ATOM      7  C   LIG    1       -2.565   2.633  -3.045  0.00  0.00    +0.004 A 
ATOM      8  C   LIG    1       -2.937   2.511  -1.720  0.00  0.00    +0.005 A 
ATOM      9  C   LIG    1       -2.050   1.998  -0.788  0.00  0.00    -0.024 A 
ENDROOT
BRANCH   1  10
ATOM     10  N   LIG    1       -2.872   2.921   1.325  0.00  0.00    -0.299 NA
ATOM     11  H   LIG    1       -2.552   3.835   0.802  0.00  0.00    +0.123 HD
BRANCH  10  12
ATOM     12  C   LIG    1       -4.334   2.799   1.249  0.00  0.00    +0.171 C 
BRANCH  12  14
ATOM     13  C   LIG    1       -5.455   4.906   2.392  0.00  0.00    +0.005 C 
ATOM     14  C   LIG    1       -4.957   3.971   1.885  0.00  0.00    -0.090 C 
ENDBRANCH  12  14
ENDBRANCH  10  12
ENDBRANCH   1  10
BRANCH   5  15
ATOM     15  O   LIG    1        0.833   1.346  -2.910  0.00  0.00    -0.506 OA
ATOM     16  H   LIG    1        1.131   1.443  -3.964  0.00  0.00    +0.292 HD
ENDBRANCH   5  15
TORSDOF 4
