REMARK  Name = ZINC13521891
REMARK                            x       y       z     vdW  Elec       q    Type
REMARK                         _______ _______ _______ _____ _____    ______ ____
ROOT
ATOM      1  C   LIG    1       -3.532  -0.927   0.014  0.00  0.00    +0.272 C 
ATOM      2  N   LIG    1       -3.444  -2.272   0.006  0.00  0.00    -0.259 N 
ATOM      3  H   LIG    1       -2.574  -2.700  -0.000  0.00  0.00    +0.157 HD
ATOM      4  O   LIG    1       -4.622  -0.389   0.022  0.00  0.00    -0.268 OA
ENDROOT
BRANCH   1   8
ATOM      5  C   LIG    1       -0.017   1.383   0.010  0.00  0.00    +0.023 A 
ATOM      6  C   LIG    1       -1.231   2.047   0.019  0.00  0.00    +0.049 A 
ATOM      7  C   LIG    1       -2.400   1.290   0.021  0.00  0.00    +0.147 A 
ATOM      8  C   LIG    1       -2.303  -0.106   0.012  0.00  0.00    +0.167 A 
ATOM      9  N   LIG    1       -1.114  -0.698   0.004  0.00  0.00    -0.247 NA
ATOM     10  C   LIG    1        0.002  -0.004   0.002  0.00  0.00    +0.112 A 
BRANCH   7  11
ATOM     11  O   LIG    1       -3.614   1.897   0.030  0.00  0.00    -0.504 OA
ATOM     12  H   LIG    1       -3.669   2.833   0.035  0.00  0.00    +0.292 HD
ENDBRANCH   7  11
ENDBRANCH   1   8
BRANCH   2  13
ATOM     13  C   LIG    1       -4.598  -3.043   0.007  0.00  0.00    +0.165 A 
ATOM     14  N   LIG    1       -5.851  -2.641   0.010  0.00  0.00    -0.233 NA
ATOM     15  C   LIG    1       -6.846  -3.508   0.010  0.00  0.00    +0.120 A 
ATOM     16  C   LIG    1       -6.518  -4.823   0.008  0.00  0.00    +0.068 A 
ATOM     17  S   LIG    1       -4.735  -4.721  -0.001  0.00  0.00    -0.061 S 
ENDBRANCH   2  13
TORSDOF 3
