REMARK  Name = ZINC13531836
REMARK                            x       y       z     vdW  Elec       q    Type
REMARK                         _______ _______ _______ _____ _____    ______ ____
ROOT
ATOM      1  N   LIG    1        3.088   6.086  -0.226  0.00  0.00    -0.268 N 
ATOM      2  H   LIG    1        3.959   5.688  -0.377  0.00  0.00    +0.156 HD
ATOM      3  C   LIG    1        2.024   5.301   0.035  0.00  0.00    +0.308 C 
ATOM      4  N   LIG    1        2.147   3.960  -0.014  0.00  0.00    -0.268 N 
ATOM      5  H   LIG    1        3.019   3.558  -0.155  0.00  0.00    +0.156 HD
ATOM      6  O   LIG    1        0.952   5.803   0.315  0.00  0.00    -0.252 OA
ENDROOT
BRANCH   1  12
ATOM      7  C   LIG    1        1.817   9.473   0.439  0.00  0.00    +0.002 A 
ATOM      8  C   LIG    1        2.634  10.226  -0.385  0.00  0.00    +0.001 A 
ATOM      9  C   LIG    1        3.601   9.608  -1.156  0.00  0.00    +0.017 A 
ATOM     10  C   LIG    1        3.754   8.236  -1.106  0.00  0.00    +0.039 A 
ATOM     11 BR   LIG    1        5.077   7.391  -2.162  0.00  0.00    -0.048 Br
ATOM     12  C   LIG    1        2.936   7.477  -0.279  0.00  0.00    +0.049 A 
ATOM     13  C   LIG    1        1.962   8.100   0.490  0.00  0.00    +0.024 A 
ENDBRANCH   1  12
BRANCH   4  14
ATOM     14  C   LIG    1        1.024   3.151   0.136  0.00  0.00    +0.050 A 
ATOM     15  C   LIG    1        0.062   3.464   1.087  0.00  0.00    +0.044 A 
ATOM     16  C   LIG    1       -1.052   2.660   1.234  0.00  0.00    +0.043 A 
ATOM     17 CL   LIG    1       -2.251   3.058   2.424  0.00  0.00    -0.083 Cl
ATOM     18  C   LIG    1       -1.221   1.540   0.432  0.00  0.00    +0.021 A 
ATOM     19  C   LIG    1       -0.274   1.212  -0.512  0.00  0.00    +0.018 A 
ATOM     20  C   LIG    1        0.859   2.016  -0.673  0.00  0.00    +0.080 A 
BRANCH  20  21
ATOM     21  C   LIG    1        1.873   1.674  -1.685  0.00  0.00    +0.339 C 
ATOM     22  O   LIG    1        2.832   2.401  -1.854  0.00  0.00    -0.245 OA
BRANCH  21  23
ATOM     23  O   LIG    1        1.736   0.555  -2.425  0.00  0.00    -0.477 OA
ATOM     24  H   LIG    1        0.996  -0.005  -2.294  0.00  0.00    +0.295 HD
ENDBRANCH  21  23
ENDBRANCH  20  21
ENDBRANCH   4  14
TORSDOF 4
