REMARK  Name = ZINC13482310
REMARK                            x       y       z     vdW  Elec       q    Type
REMARK                         _______ _______ _______ _____ _____    ______ ____
ROOT
ATOM      1  CA  THR A  1       -0.585   1.619   1.345  0.00  0.00    -0.014 C 
ATOM      2  N   THR A  1        0.012   2.959   1.439  0.00  0.00    +0.389 N 
ATOM      3  H1  THR A  1       -0.517   3.620   0.859  0.00  0.00    -0.085 HD
ATOM      4  H2  THR A  1        0.006   3.279   2.415  0.00  0.00    -0.085 HD
ATOM      5  CA  THR A  1        1.390   2.859   0.953  0.00  0.00    -0.014 C 
ATOM      6  CB  THR A  1        1.426   1.653  -0.003  0.00  0.00    +0.130 C 
ATOM      7  CG2 THR A  1       -0.013   1.086   0.008  0.00  0.00    +0.130 C 
ENDROOT
BRANCH   6   8
ATOM      8  OG1 THR A  1        1.783   2.074  -1.321  0.00  0.00    -0.391 OA
ATOM      9  HG1 THR A  1        1.779   1.363  -1.976  0.00  0.00    +0.210 HD
ENDBRANCH   6   8
BRANCH   7  10
ATOM     10  OG1 THR A  1       -0.761   1.586  -1.102  0.00  0.00    -0.391 OA
ATOM     11  HG1 THR A  1       -0.418   1.312  -1.963  0.00  0.00    +0.210 HD
ENDBRANCH   7  10
BRANCH   1  12
ATOM     12  C   THR A  1       -2.112   1.692   1.288  0.00  0.00    +0.143 C 
BRANCH  12  13
ATOM     13  O   THR A  1       -2.619   2.074   2.568  0.00  0.00    -0.397 OA
ATOM     14  H   THR A  1       -3.583   2.140   2.606  0.00  0.00    +0.209 HD
ENDBRANCH  12  13
ENDBRANCH   1  12
BRANCH   5  15
ATOM     15  C   THR A  1        2.341   2.622   2.128  0.00  0.00    +0.143 C 
BRANCH  15  16
ATOM     16  O   THR A  1        2.389   3.793   2.946  0.00  0.00    -0.397 OA
ATOM     17  H   THR A  1        2.975   3.714   3.711  0.00  0.00    +0.209 HD
ENDBRANCH  15  16
ENDBRANCH   5  15
TORSDOF 6
