REMARK  Name = ZINC13472839
REMARK                            x       y       z     vdW  Elec       q    Type
REMARK                         _______ _______ _______ _____ _____    ______ ____
ROOT
ATOM      1  C   LIG    1        2.478   1.071  -0.015  0.00  0.00    +0.021 A 
ATOM      2  C   LIG    1        3.727   1.591  -0.024  0.00  0.00    +0.028 A 
ATOM      3  C   LIG    1        4.867   0.690  -0.038  0.00  0.00    +0.031 A 
ATOM      4  C   LIG    1        6.251   1.013  -0.049  0.00  0.00    +0.129 A 
ATOM      5  C   LIG    1        7.200   0.020  -0.061  0.00  0.00    +0.091 A 
ATOM      6  C   LIG    1        6.839  -1.325  -0.063  0.00  0.00    +0.121 A 
ATOM      7  C   LIG    1        5.497  -1.671  -0.053  0.00  0.00    +0.061 A 
ATOM      8  C   LIG    1        4.536  -0.682  -0.041  0.00  0.00    +0.027 A 
ATOM      9  S   LIG    1        2.762  -0.689  -0.018  0.00  0.00    -0.088 S 
ENDROOT
BRANCH   1  16
ATOM     10  C   LIG    1       -0.013   1.076   0.008  0.00  0.00    +0.013 A 
ATOM     11  C   LIG    1       -1.216   1.750   0.017  0.00  0.00    +0.049 A 
ATOM     12  C   LIG    1       -1.237   3.137   0.029  0.00  0.00    +0.152 A 
ATOM     13  C   LIG    1       -0.045   3.854   0.022  0.00  0.00    +0.165 A 
ATOM     14  F   LIG    1       -0.070   5.205   0.029  0.00  0.00    -0.202 F 
ATOM     15  C   LIG    1        1.163   3.187   0.008  0.00  0.00    +0.051 A 
ATOM     16  C   LIG    1        1.186   1.790   0.000  0.00  0.00    -0.008 A 
BRANCH  12  17
ATOM     17  O   LIG    1       -2.425   3.797   0.043  0.00  0.00    -0.504 OA
ATOM     18  H   LIG    1       -2.777   3.992  -0.837  0.00  0.00    +0.292 HD
ENDBRANCH  12  17
ENDBRANCH   1  16
BRANCH   4  19
ATOM     19  O   LIG    1        6.638   2.315  -0.046  0.00  0.00    -0.506 OA
ATOM     20  H   LIG    1        6.758   2.688   0.838  0.00  0.00    +0.292 HD
ENDBRANCH   4  19
BRANCH   6  21
ATOM     21  O   LIG    1        7.795  -2.291  -0.075  0.00  0.00    -0.507 OA
ATOM     22  H   LIG    1        8.079  -2.574   0.805  0.00  0.00    +0.292 HD
ENDBRANCH   6  21
TORSDOF 4
