REMARK  Name = ZINC13124254
REMARK                            x       y       z     vdW  Elec       q    Type
REMARK                         _______ _______ _______ _____ _____    ______ ____
ROOT
ATOM      1  C   LIG    1        3.422  -1.650  -2.483  0.00  0.00    +0.079 C 
ATOM      2  C   LIG    1        4.075  -2.100  -3.631  0.00  0.00    +0.030 C 
ATOM      3  C   LIG    1        4.130  -1.282  -4.783  0.00  0.00    +0.016 C 
ATOM      4  C   LIG    1        4.765  -1.721  -5.896  0.00  0.00    +0.051 C 
ATOM      5  C   LIG    1        5.373  -2.994  -5.911  0.00  0.00    +0.182 C 
ATOM      6  C   LIG    1        5.324  -3.813  -4.773  0.00  0.00    +0.096 C 
ATOM      7  O   LIG    1        5.945  -3.385  -6.921  0.00  0.00    -0.288 OA
ATOM      8  C   LIG    1        4.692  -3.377  -3.645  0.00  0.00    +0.129 C 
ENDROOT
BRANCH   1   9
ATOM      9  N   LIG    1        2.839  -0.440  -2.473  0.00  0.00    -0.346 N 
ATOM     10  H   LIG    1        2.872   0.121  -3.264  0.00  0.00    +0.146 HD
BRANCH   9  14
ATOM     11  C   LIG    1       -0.019   1.526   0.010  0.00  0.00    +0.000 C 
ATOM     12  C   LIG    1        1.417   2.055  -0.000  0.00  0.00    +0.002 C 
ATOM     13  C   LIG    1        2.133   1.562  -1.259  0.00  0.00    +0.022 C 
ATOM     14  C   LIG    1        2.154   0.032  -1.268  0.00  0.00    +0.070 C 
ATOM     15  C   LIG    1        0.718  -0.497  -1.257  0.00  0.00    +0.022 C 
ATOM     16  C   LIG    1        0.002  -0.004   0.002  0.00  0.00    +0.002 C 
ENDBRANCH   9  14
ENDBRANCH   1   9
BRANCH   8  17
ATOM     17  O   LIG    1        4.649  -4.165  -2.543  0.00  0.00    -0.506 OA
ATOM     18  H   LIG    1        5.096  -5.015  -2.649  0.00  0.00    +0.292 HD
ENDBRANCH   8  17
TORSDOF 3
