REMARK  Name = ZINC13284595
REMARK                            x       y       z     vdW  Elec       q    Type
REMARK                         _______ _______ _______ _____ _____    ______ ____
ROOT
ATOM      1  C   LIG    1       -0.326   1.329   0.599  0.00  0.00    +0.105 C 
ATOM      2  N   LIG    1       -0.260  -0.117   0.349  0.00  0.00    -0.302 NA
ATOM      3  C   LIG    1       -1.590  -0.660   0.049  0.00  0.00    +0.112 C 
ATOM      4  C   LIG    1       -1.450  -2.120  -0.410  0.00  0.00    +0.160 C 
ATOM      5  C   LIG    1       -0.507  -2.148  -1.625  0.00  0.00    +0.131 C 
ATOM      6  N   LIG    1        0.777  -1.541  -1.253  0.00  0.00    -0.286 NA
ATOM      7  C   LIG    1        1.636  -1.363  -2.432  0.00  0.00    +0.106 C 
ATOM      8  C   LIG    1        1.470  -2.301  -0.207  0.00  0.00    +0.131 C 
ATOM      9  C   LIG    1        0.626  -2.282   1.078  0.00  0.00    +0.160 C 
ATOM     10  C   LIG    1       -0.736  -2.864   0.713  0.00  0.00    +0.173 C 
ATOM     11  O   LIG    1       -1.207  -3.829   1.266  0.00  0.00    -0.295 OA
ATOM     12  C   LIG    1        0.386  -0.814   1.467  0.00  0.00    +0.112 C 
ENDROOT
BRANCH   5  13
ATOM     13  C   LIG    1       -1.123  -1.369  -2.758  0.00  0.00    +0.060 A 
ATOM     14  C   LIG    1       -1.400  -2.007  -3.953  0.00  0.00    +0.025 A 
ATOM     15  C   LIG    1       -1.968  -1.282  -4.990  0.00  0.00    +0.003 A 
ATOM     16  C   LIG    1       -2.236   0.063  -4.785  0.00  0.00    +0.020 A 
ATOM     17  C   LIG    1       -1.932   0.632  -3.563  0.00  0.00    +0.111 A 
ATOM     18  N   LIG    1       -1.397  -0.090  -2.597  0.00  0.00    -0.258 NA
ENDBRANCH   5  13
BRANCH   8  19
ATOM     19  C   LIG    1        2.814  -1.674   0.064  0.00  0.00    +0.060 A 
ATOM     20  C   LIG    1        3.967  -2.377  -0.227  0.00  0.00    +0.025 A 
ATOM     21  C   LIG    1        5.198  -1.792   0.026  0.00  0.00    +0.003 A 
ATOM     22  C   LIG    1        5.223  -0.514   0.565  0.00  0.00    +0.020 A 
ATOM     23  C   LIG    1        4.028   0.128   0.830  0.00  0.00    +0.111 A 
ATOM     24  N   LIG    1        2.875  -0.458   0.571  0.00  0.00    -0.258 NA
ENDBRANCH   8  19
BRANCH   4  25
ATOM     25  C   LIG    1       -2.790  -2.736  -0.721  0.00  0.00    +0.324 C 
ATOM     26  O   LIG    1       -3.019  -3.155  -1.830  0.00  0.00    -0.250 OA
BRANCH  25  27
ATOM     27  O   LIG    1       -3.728  -2.818   0.235  0.00  0.00    -0.467 OA
ATOM     28  C   LIG    1       -4.975  -3.413  -0.129  0.00  0.00    +0.280 C 
ENDBRANCH  25  27
ENDBRANCH   4  25
BRANCH   9  29
ATOM     29  C   LIG    1        1.291  -3.050   2.191  0.00  0.00    +0.324 C 
ATOM     30  O   LIG    1        2.359  -3.583   2.003  0.00  0.00    -0.250 OA
BRANCH  29  31
ATOM     31  O   LIG    1        0.697  -3.142   3.391  0.00  0.00    -0.467 OA
ATOM     32  C   LIG    1        1.385  -3.886   4.399  0.00  0.00    +0.280 C 
ENDBRANCH  29  31
ENDBRANCH   9  29
TORSDOF 6
