REMARK  Name = ZINC13475931
REMARK                            x       y       z     vdW  Elec       q    Type
REMARK                         _______ _______ _______ _____ _____    ______ ____
ROOT
ATOM      1  C   LIG    1        2.431   5.674   0.010  0.00  0.00    +0.136 A 
ATOM      2  C   LIG    1        3.538   6.475   0.004  0.00  0.00    +0.050 A 
ATOM      3  C   LIG    1        3.088   7.798   0.015  0.00  0.00    +0.050 A 
ATOM      4  C   LIG    1        1.705   7.749   0.029  0.00  0.00    +0.130 A 
ATOM      5  O   LIG    1        1.334   6.451   0.019  0.00  0.00    -0.455 OA
ENDROOT
BRANCH   4   6
ATOM      6  C   LIG    1        0.836   8.861   0.044  0.00  0.00    +0.066 C 
ATOM      7  C   LIG    1       -0.516   8.670   0.056  0.00  0.00    +0.077 C 
ATOM      8  C   LIG    1       -1.603   9.662   0.079  0.00  0.00    +0.217 C 
ATOM      9  N   LIG    1       -2.839   9.191   0.084  0.00  0.00    -0.165 NA
ATOM     10  C   LIG    1       -3.086   7.865   0.078  0.00  0.00    +0.139 C 
ATOM     11  S   LIG    1       -4.600   7.065   0.088  0.00  0.00    -0.026 S 
ATOM     12  S   LIG    1       -1.452   7.147   0.056  0.00  0.00    -0.060 S 
BRANCH   8  13
ATOM     13  O   LIG    1       -1.376  10.859   0.091  0.00  0.00    -0.493 OA
ATOM     14  H   LIG    1       -0.492  11.168   0.087  0.00  0.00    +0.294 HD
ENDBRANCH   8  13
ENDBRANCH   4   6
BRANCH   1  17
ATOM     15  C   LIG    1        3.661   2.123  -0.022  0.00  0.00    +0.001 A 
ATOM     16  C   LIG    1        3.652   3.503  -0.014  0.00  0.00    +0.011 A 
ATOM     17  C   LIG    1        2.439   4.198   0.001  0.00  0.00    +0.018 A 
ATOM     18  C   LIG    1        1.236   3.492   0.009  0.00  0.00    +0.026 A 
ATOM     19  C   LIG    1        1.253   2.099   0.001  0.00  0.00    +0.060 A 
ATOM     20  C   LIG    1        2.474   1.418  -0.008  0.00  0.00    +0.015 A 
BRANCH  19  21
ATOM     21  C   LIG    1       -0.016   1.343   0.009  0.00  0.00    +0.337 C 
ATOM     22  O   LIG    1       -1.076   1.936   0.018  0.00  0.00    -0.245 OA
BRANCH  21  23
ATOM     23  O   LIG    1        0.002  -0.004   0.002  0.00  0.00    -0.477 OA
ATOM     24  H   LIG    1        0.820  -0.462  -0.004  0.00  0.00    +0.295 HD
ENDBRANCH  21  23
ENDBRANCH  19  21
ENDBRANCH   1  17
TORSDOF 5
