REMARK  Name = ZINC13553310
REMARK                            x       y       z     vdW  Elec       q    Type
REMARK                         _______ _______ _______ _____ _____    ______ ____
ROOT
ATOM      1  O   LIG    1       -0.074   5.608   0.033  0.00  0.00    -0.492 OA
ENDROOT
BRANCH   1   5
ATOM      2  C   LIG    1       -0.018   1.479   0.010  0.00  0.00    -0.018 A 
ATOM      3  C   LIG    1       -1.234   2.161   0.020  0.00  0.00    +0.012 A 
ATOM      4  C   LIG    1       -1.249   3.540   0.033  0.00  0.00    +0.046 A 
ATOM      5  C   LIG    1       -0.056   4.249   0.025  0.00  0.00    +0.121 A 
ATOM      6  C   LIG    1        1.157   3.573   0.010  0.00  0.00    +0.046 A 
ATOM      7  C   LIG    1        1.179   2.194   0.003  0.00  0.00    +0.012 A 
BRANCH   2  11
ATOM      8  C   LIG    1        0.040  -2.772  -0.014  0.00  0.00    +0.000 A 
ATOM      9  C   LIG    1       -1.169  -2.100   0.002  0.00  0.00    +0.001 A 
ATOM     10  C   LIG    1       -1.194  -0.720   0.010  0.00  0.00    +0.008 A 
ATOM     11  C   LIG    1        0.002  -0.004   0.002  0.00  0.00    -0.018 A 
ATOM     12  C   LIG    1        1.217  -0.687  -0.019  0.00  0.00    +0.008 A 
ATOM     13  C   LIG    1        1.230  -2.067  -0.022  0.00  0.00    +0.001 A 
ENDBRANCH   2  11
ENDBRANCH   1   5
BRANCH   1  14
ATOM     14  C   LIG    1       -1.356   6.239   0.048  0.00  0.00    +0.229 C 
BRANCH  14  15
ATOM     15  C   LIG    1       -1.176   7.758   0.054  0.00  0.00    +0.041 C 
BRANCH  15  16
ATOM     16  C   LIG    1       -2.549   8.434   0.071  0.00  0.00    +0.003 C 
BRANCH  16  17
ATOM     17  C   LIG    1       -2.369   9.954   0.077  0.00  0.00    +0.001 C 
BRANCH  17  18
ATOM     18  C   LIG    1       -3.741  10.630   0.094  0.00  0.00    +0.009 C 
BRANCH  18  19
ATOM     19  C   LIG    1       -3.561  12.149   0.100  0.00  0.00    +0.098 C 
BRANCH  19  20
ATOM     20  C   LIG    1       -4.913  12.815   0.116  0.00  0.00    +0.235 C 
ATOM     21  N   LIG    1       -5.002  14.160   0.124  0.00  0.00    -0.197 N 
ATOM     22  H   LIG    1       -4.196  14.699   0.119  0.00  0.00    +0.182 HD
ATOM     23  O   LIG    1       -5.921  12.141   0.123  0.00  0.00    -0.274 OA
BRANCH  21  24
ATOM     24  O   LIG    1       -6.272  14.785   0.140  0.00  0.00    -0.295 OA
ATOM     25  H   LIG    1       -6.235  15.752   0.144  0.00  0.00    +0.241 HD
ENDBRANCH  21  24
ENDBRANCH  19  20
ENDBRANCH  18  19
ENDBRANCH  17  18
ENDBRANCH  16  17
ENDBRANCH  15  16
ENDBRANCH  14  15
ENDBRANCH   1  14
TORSDOF 10
