REMARK  Name = ZINC13528267
REMARK                            x       y       z     vdW  Elec       q    Type
REMARK                         _______ _______ _______ _____ _____    ______ ____
ROOT
ATOM      1  C   LIG    1       -0.729   1.579   1.267  0.00  0.00    -0.065 C 
ENDROOT
BRANCH   1   2
ATOM      2  N   LIG    1       -2.075   0.983   1.316  0.00  0.00    +0.381 N 
ATOM      3  H   LIG    1       -2.588   1.236   0.463  0.00  0.00    -0.090 HD
ATOM      4  H   LIG    1       -2.583   1.334   2.126  0.00  0.00    -0.090 HD
ATOM      5  H   LIG    1       -2.006  -0.032   1.373  0.00  0.00    -0.090 HD
ENDBRANCH   1   2
BRANCH   1   6
ATOM      6  C   LIG    1        0.079   1.179   2.503  0.00  0.00    -0.004 C 
BRANCH   6   7
ATOM      7  C   LIG    1       -0.570   1.778   3.752  0.00  0.00    +0.119 C 
BRANCH   7   8
ATOM      8  C   LIG    1        0.225   1.383   4.970  0.00  0.00    +0.305 C 
ATOM      9  O   LIG    1        1.210   0.694   4.851  0.00  0.00    -0.251 OA
BRANCH   8  10
ATOM     10  O   LIG    1       -0.161   1.798   6.187  0.00  0.00    -0.481 OA
ATOM     11  H   LIG    1       -0.924   2.333   6.279  0.00  0.00    +0.295 HD
ENDBRANCH   8  10
ENDBRANCH   7   8
ENDBRANCH   6   7
ENDBRANCH   1   6
BRANCH   1  12
ATOM     12  C   LIG    1       -0.013   1.086   0.008  0.00  0.00    +0.049 C 
BRANCH  12  13
ATOM     13  S   LIG    1       -0.890   1.687  -1.462  0.00  0.00    -0.180 S 
ATOM     14  H   LIG    1       -0.176   1.195  -2.490  0.00  0.00    +0.102 HD
ENDBRANCH  12  13
ENDBRANCH   1  12
TORSDOF 7
