REMARK  Name = ZINC13473197
REMARK                            x       y       z     vdW  Elec       q    Type
REMARK                         _______ _______ _______ _____ _____    ______ ____
ROOT
ATOM      1  C   LIG    1       -2.197  -3.139   0.006  0.00  0.00    -0.005 A 
ATOM      2  C   LIG    1       -1.161  -2.104   0.002  0.00  0.00    +0.038 A 
ATOM      3  C   LIG    1        0.070  -2.785  -0.014  0.00  0.00    +0.050 A 
ATOM      4  N   LIG    1       -0.212  -4.135  -0.018  0.00  0.00    -0.349 N 
ATOM      5  H   LIG    1        0.450  -4.843  -0.029  0.00  0.00    +0.166 HD
ATOM      6  C   LIG    1        1.255  -2.058  -0.021  0.00  0.00    +0.030 A 
ATOM      7  C   LIG    1        1.218  -0.681  -0.019  0.00  0.00    +0.050 A 
ATOM      8  C   LIG    1        0.002  -0.004   0.002  0.00  0.00    +0.151 A 
ATOM      9  C   LIG    1       -1.186  -0.708   0.010  0.00  0.00    +0.172 A 
ATOM     10  C   LIG    1       -1.567  -4.326  -0.006  0.00  0.00    +0.082 A 
ATOM     11  I   LIG    1       -2.519  -6.192  -0.008  0.00  0.00    -0.024 I 
ENDROOT
BRANCH   8  12
ATOM     12  O   LIG    1       -0.016   1.356   0.009  0.00  0.00    -0.493 OA
ATOM     13  C   LIG    1        1.248   2.022   0.001  0.00  0.00    +0.277 C 
ENDBRANCH   8  12
BRANCH   9  14
ATOM     14  N   LIG    1       -2.479   0.013   0.025  0.00  0.00    +0.010 N 
ATOM     15  O   LIG    1       -3.020   0.315  -1.023  0.00  0.00    -0.130 OA
BRANCH  14  16
ATOM     16  O   LIG    1       -3.001   0.305   1.087  0.00  0.00    -0.396 OA
ATOM     17  H   LIG    1       -2.584   0.072   1.893  0.00  0.00    +0.329 HD
ENDBRANCH  14  16
ENDBRANCH   9  14
BRANCH   1  18
ATOM     18  C   LIG    1       -3.687  -2.916   0.022  0.00  0.00    +0.057 C 
BRANCH  18  19
ATOM     19  C   LIG    1       -4.206  -2.832  -1.415  0.00  0.00    +0.109 C 
BRANCH  19  22
ATOM     20  C   LIG    1       -7.823  -2.284  -2.543  0.00  0.00    +0.109 C 
ATOM     21  C   LIG    1       -6.332  -2.508  -2.559  0.00  0.00    +0.210 C 
ATOM     22  N   LIG    1       -5.654  -2.614  -1.399  0.00  0.00    -0.315 N 
ATOM     23  H   LIG    1       -6.126  -2.547  -0.554  0.00  0.00    +0.149 HD
ATOM     24  O   LIG    1       -5.743  -2.591  -3.615  0.00  0.00    -0.276 OA
ENDBRANCH  19  22
ENDBRANCH  18  19
ENDBRANCH   1  18
TORSDOF 6
