REMARK  Name = ZINC13491250
REMARK                            x       y       z     vdW  Elec       q    Type
REMARK                         _______ _______ _______ _____ _____    ______ ____
ROOT
ATOM      1  C   LIG    1       -0.198   1.219   4.892  0.00  0.00    -0.004 C 
ATOM      2  C   LIG    1        0.302   2.083   5.764  0.00  0.00    -0.042 C 
ATOM      3  C   LIG    1        1.137   1.739   6.974  0.00  0.00    +0.040 C 
ATOM      4  C   LIG    1        1.459   3.083   7.640  0.00  0.00    +0.040 C 
ATOM      5  C   LIG    1        0.794   4.147   6.800  0.00  0.00    -0.039 A 
ATOM      6  C   LIG    1        0.763   5.521   6.954  0.00  0.00    +0.008 A 
ATOM      7  C   LIG    1        0.082   6.311   6.048  0.00  0.00    +0.046 A 
ATOM      8  C   LIG    1       -0.579   5.728   4.976  0.00  0.00    +0.121 A 
ATOM      9  C   LIG    1       -0.556   4.355   4.813  0.00  0.00    +0.054 A 
ATOM     10  C   LIG    1        0.134   3.552   5.728  0.00  0.00    -0.015 A 
ENDROOT
BRANCH   8  11
ATOM     11  O   LIG    1       -1.249   6.507   4.086  0.00  0.00    -0.495 OA
ATOM     12  C   LIG    1       -1.231   7.917   4.316  0.00  0.00    +0.277 C 
ENDBRANCH   8  11
BRANCH   1  13
ATOM     13  C   LIG    1       -1.180   1.686   3.848  0.00  0.00    +0.132 C 
BRANCH  13  15
ATOM     14  C   LIG    1       -3.275   0.929   2.861  0.00  0.00    +0.213 C 
ATOM     15  N   LIG    1       -2.273   0.718   3.738  0.00  0.00    -0.312 N 
ATOM     16  H   LIG    1       -2.277  -0.075   4.297  0.00  0.00    +0.149 HD
ATOM     17  O   LIG    1       -3.270   1.920   2.162  0.00  0.00    -0.276 OA
BRANCH  14  19
ATOM     18  C   LIG    1       -5.396   0.407   1.688  0.00  0.00    +0.013 C 
ATOM     19  C   LIG    1       -4.400  -0.067   2.748  0.00  0.00    +0.092 C 
ENDBRANCH  14  19
ENDBRANCH  13  15
ENDBRANCH   1  13
TORSDOF 4
