REMARK  Name = ZINC13523229
REMARK                            x       y       z     vdW  Elec       q    Type
REMARK                         _______ _______ _______ _____ _____    ______ ____
ROOT
ATOM      1  C   LIG    1        1.871  -2.268  -2.087  0.00  0.00    -0.095 C 
ATOM      2  N   LIG    1        2.055  -1.103  -1.162  0.00  0.00    +0.382 N 
ATOM      3  H   LIG    1        3.007  -0.733  -1.271  0.00  0.00    -0.081 HD
ATOM      4  C   LIG    1        1.829  -1.510   0.228  0.00  0.00    -0.054 C 
ATOM      5  C   LIG    1        2.349  -0.364   1.110  0.00  0.00    +0.092 C 
ATOM      6  C   LIG    1        1.525   0.895   0.824  0.00  0.00    +0.030 C 
ATOM      7  C   LIG    1        1.542   1.193  -0.678  0.00  0.00    -0.007 C 
ATOM      8  C   LIG    1        0.287  -1.536   0.346  0.00  0.00    -0.016 C 
ATOM      9  C   LIG    1       -0.210  -0.577  -0.755  0.00  0.00    -0.017 C 
ATOM     10  C   LIG    1        1.076  -0.058  -1.439  0.00  0.00    -0.068 C 
ENDROOT
BRANCH   6  11
ATOM     11  C   LIG    1        2.116   2.062   1.573  0.00  0.00    -0.042 A 
ATOM     12  C   LIG    1        3.283   2.651   1.124  0.00  0.00    +0.005 A 
ATOM     13  C   LIG    1        3.826   3.721   1.810  0.00  0.00    +0.022 A 
ATOM     14  C   LIG    1        3.201   4.203   2.947  0.00  0.00    +0.059 A 
ATOM     15 CL   LIG    1        3.883   5.546   3.810  0.00  0.00    -0.082 Cl
ATOM     16  C   LIG    1        2.032   3.612   3.396  0.00  0.00    +0.060 A 
ATOM     17 CL   LIG    1        1.247   4.216   4.822  0.00  0.00    -0.082 Cl
ATOM     18  C   LIG    1        1.487   2.545   2.705  0.00  0.00    +0.025 A 
ENDBRANCH   6  11
BRANCH   5  19
ATOM     19  C   LIG    1        3.799  -0.101   0.793  0.00  0.00    +0.309 C 
ATOM     20  O   LIG    1        4.146   0.067  -0.352  0.00  0.00    -0.251 OA
BRANCH  19  21
ATOM     21  O   LIG    1        4.704  -0.054   1.783  0.00  0.00    -0.468 OA
ATOM     22  C   LIG    1        6.082   0.203   1.404  0.00  0.00    +0.280 C 
ENDBRANCH  19  21
ENDBRANCH   5  19
TORSDOF 3
