REMARK  Name = ZINC13488294
REMARK                            x       y       z     vdW  Elec       q    Type
REMARK                         _______ _______ _______ _____ _____    ______ ____
ROOT
ATOM      1  N   THR A  1       -1.083   3.518   0.026  0.00  0.00    -0.296 N 
ATOM      2  H   THR A  1       -1.077   4.013  -0.808  0.00  0.00    +0.150 HD
ATOM      3  C   UNK A  0       -0.863   4.158   1.192  0.00  0.00    +0.246 C 
ATOM      4  O   UNK A  0       -0.871   3.538   2.237  0.00  0.00    -0.270 OA
ENDROOT
BRANCH   3   5
ATOM      5  C   UNK A  0       -0.613   5.615   1.198  0.00  0.00    +0.051 A 
ATOM      6  C   UNK A  0       -0.598   6.329  -0.001  0.00  0.00    +0.014 A 
ATOM      7  C   UNK A  0       -0.368   7.689   0.013  0.00  0.00    +0.001 A 
ATOM      8  C   UNK A  0       -0.143   8.345   1.211  0.00  0.00    +0.001 A 
ATOM      9  C   UNK A  0       -0.151   7.643   2.402  0.00  0.00    +0.016 A 
ATOM     10  C   UNK A  0       -0.385   6.282   2.404  0.00  0.00    +0.030 A 
ATOM     11 BR   UNK A  0       -0.395   5.324   4.034  0.00  0.00    -0.050 Br
ENDBRANCH   3   5
BRANCH   1  12
ATOM     12  CA  THR A  1       -1.331   2.074   0.020  0.00  0.00    +0.210 C 
BRANCH  12  14
ATOM     13  CG2 THR A  1       -3.413   2.539  -1.282  0.00  0.00    +0.040 C 
ATOM     14  CB  THR A  1       -2.134   1.700  -1.228  0.00  0.00    +0.143 C 
BRANCH  14  15
ATOM     15  OG1 THR A  1       -1.349   1.954  -2.394  0.00  0.00    -0.390 OA
ATOM     16  HG1 THR A  1       -1.796   1.740  -3.224  0.00  0.00    +0.210 HD
ENDBRANCH  14  15
ENDBRANCH  12  14
BRANCH  12  17
ATOM     17  C   THR A  1       -0.016   1.338   0.009  0.00  0.00    +0.328 C 
ATOM     18  O   THR A  1        1.022   1.956   0.003  0.00  0.00    -0.249 OA
BRANCH  17  19
ATOM     19  OXT THR A  1        0.002  -0.004   0.002  0.00  0.00    -0.479 OA
ATOM     20  HXT THR A  1       -0.803  -0.484   0.007  0.00  0.00    +0.295 HD
ENDBRANCH  17  19
ENDBRANCH  12  17
ENDBRANCH   1  12
TORSDOF 6
