REMARK  Name = ZINC13529569
REMARK                            x       y       z     vdW  Elec       q    Type
REMARK                         _______ _______ _______ _____ _____    ______ ____
ROOT
ATOM      1  C   LIG    1        0.070   1.790  -0.112  0.00  0.00    +0.036 C 
ATOM      2  S   LIG    1        0.289   0.233   0.184  0.00  0.00    -0.042 S 
ENDROOT
BRANCH   1   3
ATOM      3  N   LIG    1        1.112   2.556  -0.491  0.00  0.00    -0.329 N 
ATOM      4  C   LIG    1        1.033   3.966  -0.901  0.00  0.00    +0.105 C 
ATOM      5  C   LIG    1        2.463   4.417  -1.268  0.00  0.00    +0.020 C 
ATOM      6  C   LIG    1        3.175   3.077  -1.594  0.00  0.00    +0.020 C 
ATOM      7  C   LIG    1        2.517   2.119  -0.569  0.00  0.00    +0.105 C 
ENDBRANCH   1   3
BRANCH   1   9
ATOM      8  C   LIG    1       -1.348   3.268   1.286  0.00  0.00    -0.008 C 
ATOM      9  C   LIG    1       -1.302   2.398   0.028  0.00  0.00    -0.025 C 
BRANCH   9  10
ATOM     10  N   LIG    1       -2.324   1.342   0.139  0.00  0.00    +0.384 N 
ATOM     11  H   LIG    1       -3.245   1.776   0.266  0.00  0.00    -0.089 HD
ATOM     12  H   LIG    1       -2.124   0.745   0.940  0.00  0.00    -0.089 HD
ATOM     13  H   LIG    1       -2.337   0.778  -0.709  0.00  0.00    -0.089 HD
ENDBRANCH   9  10
ENDBRANCH   1   9
TORSDOF 3
