REMARK  Name = ZINC13533769
REMARK                            x       y       z     vdW  Elec       q    Type
REMARK                         _______ _______ _______ _____ _____    ______ ____
ROOT
ATOM      1  N   LIG    1        3.690  -0.752   0.075  0.00  0.00    -0.281 N 
ATOM      2  H   LIG    1        3.724  -1.669   0.391  0.00  0.00    +0.155 HD
ATOM      3  C   LIG    1        4.821  -0.132  -0.315  0.00  0.00    +0.257 C 
ATOM      4  O   LIG    1        4.793   1.045  -0.627  0.00  0.00    -0.269 OA
ENDROOT
BRANCH   1  10
ATOM      5  C   LIG    1       -1.268   1.996  -0.134  0.00  0.00    +0.044 C 
ATOM      6  C   LIG    1        0.048   1.264  -0.074  0.00  0.00    -0.050 A 
ATOM      7  C   LIG    1        1.101   1.794   0.649  0.00  0.00    +0.008 A 
ATOM      8  C   LIG    1        2.309   1.128   0.701  0.00  0.00    -0.029 A 
ATOM      9  C   LIG    1        3.456   1.705   1.490  0.00  0.00    +0.045 C 
ATOM     10  C   LIG    1        2.467  -0.075   0.025  0.00  0.00    +0.040 A 
ATOM     11  C   LIG    1        1.408  -0.605  -0.701  0.00  0.00    -0.029 A 
ATOM     12  C   LIG    1        1.575  -1.909  -1.437  0.00  0.00    +0.045 C 
ATOM     13  C   LIG    1        0.202   0.066  -0.749  0.00  0.00    +0.008 A 
ENDBRANCH   1  10
BRANCH   3  14
ATOM     14  C   LIG    1        6.081  -0.871  -0.364  0.00  0.00    +0.098 A 
ATOM     15  C   LIG    1        7.347  -0.441  -0.735  0.00  0.00    +0.060 A 
ATOM     16  C   LIG    1        7.589   0.980  -1.174  0.00  0.00    +0.067 C 
ATOM     17  N   LIG    1        8.323  -1.309  -0.688  0.00  0.00    -0.230 NA
ATOM     18  C   LIG    1        8.120  -2.563  -0.311  0.00  0.00    +0.156 A 
ATOM     19  S   LIG    1        6.417  -2.581   0.030  0.00  0.00    -0.048 S 
BRANCH  18  20
ATOM     20  N   LIG    1        9.030  -3.593  -0.213  0.00  0.00    -0.337 N 
ATOM     21  H   LIG    1        9.961  -3.440  -0.438  0.00  0.00    +0.144 HD
ATOM     22  H   LIG    1        8.739  -4.471   0.080  0.00  0.00    +0.144 HD
ENDBRANCH  18  20
ENDBRANCH   3  14
TORSDOF 3
