REMARK  Name = ZINC13441889
REMARK                            x       y       z     vdW  Elec       q    Type
REMARK                         _______ _______ _______ _____ _____    ______ ____
ROOT
ATOM      1  C   LIG    1        2.479  -4.719  -4.405  0.00  0.00    +0.165 C 
ATOM      2  C   LIG    1        1.779  -4.607  -5.763  0.00  0.00    +0.030 C 
ATOM      3  C   LIG    1        2.481  -5.520  -6.771  0.00  0.00    +0.003 C 
ATOM      4  C   LIG    1        2.388  -6.973  -6.297  0.00  0.00    +0.017 C 
ATOM      5  C   LIG    1        3.095  -7.111  -4.946  0.00  0.00    +0.110 C 
ATOM      6  N   LIG    1        2.525  -6.133  -4.008  0.00  0.00    -0.165 NA
ENDROOT
BRANCH   1   9
ATOM      7  N   LIG    1        2.363  -3.080  -2.556  0.00  0.00    -0.314 N 
ATOM      8  H   LIG    1        3.325  -2.976  -2.629  0.00  0.00    +0.149 HD
ATOM      9  C   LIG    1        1.712  -3.930  -3.375  0.00  0.00    +0.232 C 
ATOM     10  O   LIG    1        0.510  -4.059  -3.284  0.00  0.00    -0.274 OA
BRANCH   7  11
ATOM     11  C   LIG    1        1.618  -2.313  -1.555  0.00  0.00    +0.104 C 
BRANCH  11  12
ATOM     12  C   LIG    1        2.586  -1.432  -0.763  0.00  0.00    +0.018 C 
BRANCH  12  14
ATOM     13  C   LIG    1        2.776   0.250   1.075  0.00  0.00    +0.004 C 
ATOM     14  C   LIG    1        1.808  -0.631   0.283  0.00  0.00    -0.002 C 
ENDBRANCH  12  14
ENDBRANCH  11  12
ENDBRANCH   7  11
ENDBRANCH   1   9
BRANCH   6  15
ATOM     15  S   LIG    1        1.942  -6.615  -2.535  0.00  0.00    +0.062 S 
ATOM     16  O   LIG    1        1.875  -5.450  -1.724  0.00  0.00    -0.153 OA
ATOM     17  O   LIG    1        2.690  -7.763  -2.159  0.00  0.00    -0.153 OA
BRANCH  15  18
ATOM     18  C   LIG    1        0.283  -7.153  -2.782  0.00  0.00    +0.106 A 
ATOM     19  C   LIG    1       -0.769  -6.308  -2.483  0.00  0.00    +0.028 A 
ATOM     20  C   LIG    1       -2.071  -6.730  -2.676  0.00  0.00    +0.002 A 
ATOM     21  C   LIG    1       -2.321  -7.997  -3.171  0.00  0.00    +0.000 A 
ATOM     22  C   LIG    1       -1.269  -8.841  -3.471  0.00  0.00    +0.002 A 
ATOM     23  C   LIG    1        0.033  -8.418  -3.281  0.00  0.00    +0.028 A 
ENDBRANCH  15  18
ENDBRANCH   6  15
TORSDOF 6
