REMARK  Name = ZINC13488063
REMARK                            x       y       z     vdW  Elec       q    Type
REMARK                         _______ _______ _______ _____ _____    ______ ____
ROOT
ATOM      1  C   LIG    1        7.871  -2.831   1.244  0.00  0.00    +0.000 A 
ATOM      2  C   LIG    1        7.811  -1.634   1.934  0.00  0.00    +0.000 A 
ATOM      3  C   LIG    1        6.667  -0.864   1.874  0.00  0.00    +0.005 A 
ATOM      4  C   LIG    1        5.577  -1.283   1.125  0.00  0.00    -0.030 A 
ATOM      5  C   LIG    1        5.640  -2.474   0.435  0.00  0.00    -0.042 A 
ATOM      6  C   LIG    1        4.486  -2.966  -0.401  0.00  0.00    +0.051 C 
ATOM      7  C   LIG    1        3.208  -2.219  -0.017  0.00  0.00    +0.091 C 
ATOM      8  N   LIG    1        3.489  -0.774  -0.035  0.00  0.00    -0.283 NA
ATOM      9  C   LIG    1        4.350  -0.410   1.094  0.00  0.00    +0.121 C 
ATOM     10  C   LIG    1        6.788  -3.249   0.497  0.00  0.00    +0.004 A 
ENDROOT
BRANCH   8  11
ATOM     11  C   LIG    1        2.310  -0.038  -0.020  0.00  0.00    +0.124 C 
ATOM     12  N   LIG    1        1.143  -0.744  -0.013  0.00  0.00    -0.301 NA
ATOM     13  H   LIG    1        1.127  -1.771  -0.018  0.00  0.00    +0.123 HD
ATOM     14  C   LIG    1        0.002  -0.004   0.002  0.00  0.00    +0.082 C 
ATOM     15  C   LIG    1       -0.017   1.376   0.010  0.00  0.00    +0.015 C 
ATOM     16  C   LIG    1        1.185   2.073   0.002  0.00  0.00    +0.004 C 
ATOM     17  C   LIG    1        2.365   1.353  -0.013  0.00  0.00    +0.035 C 
ENDBRANCH   8  11
TORSDOF 1
