REMARK  Name = ZINC13474221
REMARK                            x       y       z     vdW  Elec       q    Type
REMARK                         _______ _______ _______ _____ _____    ______ ____
ROOT
ATOM      1  C   LIG    1       -0.018   1.503   0.010  0.00  0.00    +0.068 C 
ATOM      2  C   LIG    1        0.002  -0.004   0.002  0.00  0.00    +0.065 C 
ATOM      3  N   LIG    1        0.022  -0.659   1.122  0.00  0.00    -0.177 NA
ENDROOT
BRANCH   2   4
ATOM      4  C   LIG    1       -0.000  -0.735  -1.279  0.00  0.00    -0.002 A 
ATOM      5  C   LIG    1       -0.015  -0.033  -2.487  0.00  0.00    +0.010 A 
ATOM      6  C   LIG    1       -0.017  -0.722  -3.681  0.00  0.00    +0.001 A 
ATOM      7  C   LIG    1       -0.004  -2.106  -3.685  0.00  0.00    +0.012 A 
ATOM      8  C   LIG    1        0.011  -2.808  -2.493  0.00  0.00    +0.055 A 
ATOM      9  C   LIG    1        0.019  -2.131  -1.291  0.00  0.00    +0.022 A 
BRANCH   8  10
ATOM     10  C   LIG    1        0.024  -4.315  -2.507  0.00  0.00    +0.417 C 
ATOM     11  F   LIG    1       -1.109  -4.798  -1.844  0.00  0.00    -0.166 F 
ATOM     12  F   LIG    1        1.176  -4.777  -1.861  0.00  0.00    -0.166 F 
ATOM     13  F   LIG    1        0.019  -4.768  -3.831  0.00  0.00    -0.166 F 
ENDBRANCH   8  10
ENDBRANCH   2   4
BRANCH   3  14
ATOM     14  N   LIG    1        0.024   0.035   2.339  0.00  0.00    -0.259 N 
ATOM     15  H   LIG    1        0.011   1.005   2.345  0.00  0.00    +0.191 HD
ATOM     16  C   LIG    1        0.044  -0.655   3.520  0.00  0.00    +0.142 C 
BRANCH  16  17
ATOM     17  N   LIG    1        0.046   0.022   4.708  0.00  0.00    -0.338 N 
ATOM     18  H   LIG    1        0.061  -0.467   5.545  0.00  0.00    +0.144 HD
ATOM     19  H   LIG    1        0.033   0.992   4.713  0.00  0.00    +0.144 HD
ENDBRANCH  16  17
BRANCH  16  20
ATOM     20  S   LIG    1        0.067  -2.315   3.511  0.00  0.00    -0.109 S 
ATOM     21  H   LIG    1        0.061  -2.761   2.226  0.00  0.00    +0.110 HD
ENDBRANCH  16  20
ENDBRANCH   3  14
TORSDOF 5
