REMARK  Name = ZINC13404422
REMARK                            x       y       z     vdW  Elec       q    Type
REMARK                         _______ _______ _______ _____ _____    ______ ____
ROOT
ATOM      1  C   LIG    1        3.476   1.908   0.701  0.00  0.00    +0.124 C 
ATOM      2  C   LIG    1        3.799   3.171  -0.114  0.00  0.00    -0.054 C 
ATOM      3  N   LIG    1        4.308   2.721  -1.408  0.00  0.00    +0.383 N 
ATOM      4  H   LIG    1        4.720   3.509  -1.922  0.00  0.00    -0.085 HD
ATOM      5  H   LIG    1        5.016   1.989  -1.278  0.00  0.00    -0.085 HD
ATOM      6  C   LIG    1        3.155   2.190  -2.132  0.00  0.00    -0.068 C 
ATOM      7  C   LIG    1        2.785   0.856  -1.464  0.00  0.00    +0.030 C 
ATOM      8  C   LIG    1        2.035   3.207  -1.811  0.00  0.00    -0.017 C 
ATOM      9  C   LIG    1        2.461   3.855  -0.477  0.00  0.00    -0.016 C 
ATOM     10  C   LIG    1        2.371   1.126  -0.015  0.00  0.00    +0.187 C 
ENDROOT
BRANCH   1  11
ATOM     11  C   LIG    1        4.710   1.051   0.814  0.00  0.00    +0.312 C 
ATOM     12  O   LIG    1        5.746   1.413   0.308  0.00  0.00    -0.250 OA
BRANCH  11  14
ATOM     13  C   LIG    1        5.886  -0.889   1.546  0.00  0.00    +0.280 C 
ATOM     14  O   LIG    1        4.659  -0.115   1.477  0.00  0.00    -0.468 OA
ENDBRANCH  11  14
ENDBRANCH   1  11
BRANCH  10  15
ATOM     15  O   LIG    1        1.143   1.900   0.001  0.00  0.00    -0.457 OA
BRANCH  15  16
ATOM     16  C   LIG    1       -0.014   1.210   0.009  0.00  0.00    +0.339 C 
ATOM     17  O   LIG    1        0.002  -0.004   0.002  0.00  0.00    -0.245 OA
BRANCH  16  18
ATOM     18  C   LIG    1       -1.304   1.932   0.019  0.00  0.00    +0.059 A 
ATOM     19  C   LIG    1       -1.326   3.328   0.032  0.00  0.00    +0.015 A 
ATOM     20  C   LIG    1       -2.534   3.995   0.036  0.00  0.00    +0.001 A 
ATOM     21  C   LIG    1       -3.720   3.284   0.037  0.00  0.00    +0.000 A 
ATOM     22  C   LIG    1       -3.705   1.900   0.030  0.00  0.00    +0.001 A 
ATOM     23  C   LIG    1       -2.505   1.220   0.021  0.00  0.00    +0.015 A 
ENDBRANCH  16  18
ENDBRANCH  15  16
ENDBRANCH  10  15
TORSDOF 5
