REMARK  Name = ZINC13521829
REMARK                            x       y       z     vdW  Elec       q    Type
REMARK                         _______ _______ _______ _____ _____    ______ ____
ROOT
ATOM      1  C   LIG    1        0.343   1.101  -0.064  0.00  0.00    +0.022 A 
ATOM      2  C   LIG    1        1.455   1.923  -0.039  0.00  0.00    +0.027 A 
ATOM      3  C   LIG    1        1.260   3.303   0.008  0.00  0.00    +0.064 A 
ATOM      4  C   LIG    1       -0.049   3.801   0.029  0.00  0.00    +0.147 A 
ATOM      5  N   LIG    1       -1.085   2.970   0.004  0.00  0.00    -0.248 NA
ATOM      6  C   LIG    1       -0.924   1.666  -0.047  0.00  0.00    +0.112 A 
ENDROOT
BRANCH   3   7
ATOM      7  N   LIG    1        2.348   4.172   0.034  0.00  0.00    -0.286 N 
ATOM      8  H   LIG    1        2.254   5.056   0.420  0.00  0.00    +0.155 HD
ATOM      9  C   LIG    1        3.533   3.783  -0.478  0.00  0.00    +0.330 C 
ATOM     10  O   LIG    1        3.627   2.716  -1.048  0.00  0.00    -0.279 OA
ENDBRANCH   3   7
BRANCH   4  11
ATOM     11  C   LIG    1       -0.279   5.260   0.078  0.00  0.00    +0.270 C 
ATOM     12  N   LIG    1       -1.532   5.740   0.204  0.00  0.00    -0.259 N 
ATOM     13  H   LIG    1       -2.283   5.128   0.262  0.00  0.00    +0.157 HD
ATOM     14  O   LIG    1        0.661   6.026   0.005  0.00  0.00    -0.268 OA
BRANCH  12  15
ATOM     15  C   LIG    1       -1.748   7.111   0.251  0.00  0.00    +0.165 A 
ATOM     16  N   LIG    1       -0.868   8.091   0.193  0.00  0.00    -0.233 NA
ATOM     17  C   LIG    1       -1.246   9.354   0.247  0.00  0.00    +0.120 A 
ATOM     18  C   LIG    1       -2.568   9.627   0.376  0.00  0.00    +0.068 A 
ATOM     19  S   LIG    1       -3.247   7.975   0.407  0.00  0.00    -0.061 S 
ENDBRANCH  12  15
ENDBRANCH   4  11
TORSDOF 3
