REMARK  Name = ZINC13532602
REMARK                            x       y       z     vdW  Elec       q    Type
REMARK                         _______ _______ _______ _____ _____    ______ ____
ROOT
ATOM      1  C   LIG    1       -0.109   1.424  -0.494  0.00  0.00    +0.015 C 
ATOM      2  C   LIG    1        1.028   2.135  -0.734  0.00  0.00    +0.051 C 
ATOM      3  C   LIG    1        2.245   1.467  -0.931  0.00  0.00    +0.179 C 
ATOM      4  C   LIG    1        2.292   0.066  -0.880  0.00  0.00    +0.051 C 
ATOM      5  C   LIG    1        1.155  -0.645  -0.641  0.00  0.00    +0.015 C 
ATOM      6  O   LIG    1        3.359   2.164  -1.165  0.00  0.00    -0.288 OA
ATOM      7  C   LIG    1       -0.062   0.023  -0.444  0.00  0.00    +0.019 C 
ATOM      8  C   LIG    1       -1.286  -0.743  -0.186  0.00  0.00    +0.154 A 
ATOM      9  N   LIG    1       -1.403  -2.079  -0.206  0.00  0.00    -0.258 N 
ATOM     10  H   LIG    1       -0.694  -2.714  -0.393  0.00  0.00    +0.191 HD
ATOM     11  N   LIG    1       -2.736  -2.389   0.095  0.00  0.00    -0.146 NA
ATOM     12  C   LIG    1       -3.377  -1.267   0.283  0.00  0.00    +0.203 A 
ATOM     13  N   LIG    1       -2.497  -0.229   0.121  0.00  0.00    -0.226 N 
ENDROOT
BRANCH  13  14
ATOM     14  N   LIG    1       -2.795   1.098   0.245  0.00  0.00    -0.295 N 
ATOM     15  H   LIG    1       -2.257   1.522   0.986  0.00  0.00    +0.163 HD
ATOM     16  H   LIG    1       -3.784   1.234   0.392  0.00  0.00    +0.163 HD
ENDBRANCH  13  14
BRANCH  12  17
ATOM     17  S   LIG    1       -5.085  -1.114   0.687  0.00  0.00    -0.102 S 
ATOM     18  H   LIG    1       -5.645  -2.351   0.767  0.00  0.00    +0.110 HD
ENDBRANCH  12  17
TORSDOF 2
