REMARK  Name = ZINC13492624
REMARK                            x       y       z     vdW  Elec       q    Type
REMARK                         _______ _______ _______ _____ _____    ______ ____
ROOT
ATOM      1  C   LIG    1       -2.171  -0.481   1.340  0.00  0.00    +0.025 C 
ENDROOT
BRANCH   1   2
ATOM      2  C   LIG    1       -1.537  -0.791  -0.017  0.00  0.00    +0.085 C 
BRANCH   2   3
ATOM      3  C   LIG    1       -1.291  -2.273  -0.130  0.00  0.00    -0.024 A 
ATOM      4  C   LIG    1        0.003  -2.759  -0.140  0.00  0.00    +0.009 A 
ATOM      5  C   LIG    1        0.234  -4.118  -0.244  0.00  0.00    +0.050 A 
ATOM      6  C   LIG    1       -0.834  -4.997  -0.337  0.00  0.00    +0.162 A 
ATOM      7  C   LIG    1       -2.137  -4.508  -0.326  0.00  0.00    +0.162 A 
ATOM      8  C   LIG    1       -2.361  -3.145  -0.217  0.00  0.00    +0.054 A 
BRANCH   6   9
ATOM      9  O   LIG    1       -0.609  -6.334  -0.439  0.00  0.00    -0.491 OA
ATOM     10  C   LIG    1        0.754  -6.764  -0.444  0.00  0.00    +0.277 C 
ENDBRANCH   6   9
BRANCH   7  11
ATOM     11  O   LIG    1       -3.188  -5.366  -0.417  0.00  0.00    -0.491 OA
ATOM     12  C   LIG    1       -4.497  -4.793  -0.400  0.00  0.00    +0.277 C 
ENDBRANCH   7  11
ENDBRANCH   2   3
BRANCH   2  14
ATOM     13  C   LIG    1        0.705  -0.425   1.024  0.00  0.00    +0.009 C 
ATOM     14  C   LIG    1       -0.208  -0.043  -0.143  0.00  0.00    +0.007 C 
ATOM     15  C   LIG    1        0.467  -0.420  -1.463  0.00  0.00    +0.009 C 
ENDBRANCH   2  14
BRANCH   2  16
ATOM     16  C   LIG    1       -2.446  -0.361  -1.093  0.00  0.00    +0.074 C 
ATOM     17  N   LIG    1       -3.147  -0.029  -1.922  0.00  0.00    -0.196 NA
ENDBRANCH   2  16
ENDBRANCH   1   2
BRANCH   1  18
ATOM     18  C   LIG    1       -2.440   1.022   1.446  0.00  0.00    -0.017 C 
BRANCH  18  19
ATOM     19  C   LIG    1       -3.063   1.333   2.808  0.00  0.00    -0.083 C 
BRANCH  19  20
ATOM     20  N   LIG    1       -3.321   2.776   2.910  0.00  0.00    +0.379 N 
ATOM     21  H   LIG    1       -3.956   3.057   2.178  0.00  0.00    -0.086 HD
ATOM     22  H   LIG    1       -2.453   3.281   2.814  0.00  0.00    -0.086 HD
BRANCH  20  23
ATOM     23  C   LIG    1       -3.919   3.075   4.218  0.00  0.00    -0.078 C 
BRANCH  23  24
ATOM     24  C   LIG    1       -4.188   4.578   4.324  0.00  0.00    +0.016 C 
BRANCH  24  25
ATOM     25  C   LIG    1       -4.802   4.885   5.666  0.00  0.00    -0.045 A 
ATOM     26  C   LIG    1       -6.176   4.856   5.819  0.00  0.00    +0.007 A 
ATOM     27  C   LIG    1       -6.744   5.137   7.047  0.00  0.00    +0.049 A 
ATOM     28  C   LIG    1       -5.936   5.447   8.129  0.00  0.00    +0.161 A 
ATOM     29  C   LIG    1       -4.553   5.475   7.976  0.00  0.00    +0.162 A 
ATOM     30  C   LIG    1       -3.990   5.188   6.743  0.00  0.00    +0.053 A 
BRANCH  28  31
ATOM     31  O   LIG    1       -6.493   5.724   9.338  0.00  0.00    -0.491 OA
ATOM     32  C   LIG    1       -7.919   5.677   9.422  0.00  0.00    +0.277 C 
ENDBRANCH  28  31
BRANCH  29  33
ATOM     33  O   LIG    1       -3.756   5.779   9.035  0.00  0.00    -0.491 OA
ATOM     34  C   LIG    1       -2.346   5.789   8.803  0.00  0.00    +0.277 C 
ENDBRANCH  29  33
ENDBRANCH  24  25
ENDBRANCH  23  24
ENDBRANCH  20  23
ENDBRANCH  19  20
ENDBRANCH  18  19
ENDBRANCH   1  18
TORSDOF 14
