REMARK  Name = ZINC13523856
REMARK                            x       y       z     vdW  Elec       q    Type
REMARK                         _______ _______ _______ _____ _____    ______ ____
ROOT
ATOM      1  C   LIG    1        2.712  -0.700  -5.725  0.00  0.00    +0.048 C 
ENDROOT
BRANCH   1   2
ATOM      2  C   LIG    1        2.684  -1.715  -4.580  0.00  0.00    +0.043 C 
BRANCH   2   6
ATOM      3  C   LIG    1        0.486  -0.099  -1.294  0.00  0.00    -0.042 A 
ATOM      4  C   LIG    1       -0.141  -0.930  -2.203  0.00  0.00    +0.004 A 
ATOM      5  C   LIG    1        0.570  -1.453  -3.267  0.00  0.00    +0.004 A 
ATOM      6  C   LIG    1        1.909  -1.144  -3.421  0.00  0.00    -0.047 A 
ATOM      7  C   LIG    1        2.536  -0.312  -2.513  0.00  0.00    +0.004 A 
ATOM      8  C   LIG    1        1.823   0.214  -1.452  0.00  0.00    +0.004 A 
BRANCH   3  10
ATOM      9  C   LIG    1       -0.388   1.991  -0.285  0.00  0.00    +0.015 C 
ATOM     10  C   LIG    1       -0.289   0.472  -0.134  0.00  0.00    -0.013 C 
ATOM     11  C   LIG    1       -1.695  -0.131  -0.116  0.00  0.00    +0.015 C 
ATOM     12  C   LIG    1        0.428   0.134   1.174  0.00  0.00    +0.015 C 
ENDBRANCH   3  10
ENDBRANCH   2   6
ENDBRANCH   1   2
BRANCH   1  13
ATOM     13  C   LIG    1        1.293  -0.493  -6.257  0.00  0.00    +0.237 C 
BRANCH  13  14
ATOM     14  O   LIG    1        1.297   0.554  -7.230  0.00  0.00    -0.464 OA
BRANCH  14  15
ATOM     15  C   LIG    1        0.108   0.934  -7.722  0.00  0.00    +0.313 C 
ATOM     16  O   LIG    1       -0.910   0.461  -7.274  0.00  0.00    -0.250 OA
BRANCH  15  17
ATOM     17  C   LIG    1        0.041   1.951  -8.832  0.00  0.00    +0.059 C 
ATOM     18  C   LIG    1        0.679   1.370 -10.095  0.00  0.00    +0.022 C 
ATOM     19  C   LIG    1        0.797   3.213  -8.413  0.00  0.00    +0.022 C 
ATOM     20  C   LIG    1       -1.421   2.303  -9.114  0.00  0.00    +0.022 C 
ENDBRANCH  15  17
ENDBRANCH  14  15
ENDBRANCH  13  14
ENDBRANCH   1  13
BRANCH   1  21
ATOM     21  C   LIG    1        3.607  -1.224  -6.850  0.00  0.00    +0.110 C 
BRANCH  21  22
ATOM     22  N   LIG    1        3.730  -0.203  -7.893  0.00  0.00    -0.326 N 
ATOM     23  H   LIG    1        3.274   0.648  -7.794  0.00  0.00    +0.148 HD
BRANCH  22  24
ATOM     24  C   LIG    1        4.476  -0.445  -8.989  0.00  0.00    +0.131 C 
ATOM     25  S   LIG    1        5.281  -1.946  -9.162  0.00  0.00    -0.019 S 
BRANCH  24  26
ATOM     26  N   LIG    1        4.589   0.495  -9.948  0.00  0.00    -0.322 N 
ATOM     27  H   LIG    1        4.133   1.346  -9.850  0.00  0.00    +0.148 HD
BRANCH  26  28
ATOM     28  C   LIG    1        5.400   0.232 -11.139  0.00  0.00    +0.138 C 
BRANCH  28  29
ATOM     29  C   LIG    1        5.361   1.433 -12.048  0.00  0.00    -0.027 A 
ATOM     30  C   LIG    1        4.379   1.535 -13.016  0.00  0.00    +0.009 A 
ATOM     31  C   LIG    1        4.339   2.635 -13.852  0.00  0.00    +0.049 A 
ATOM     32  C   LIG    1        5.285   3.639 -13.722  0.00  0.00    +0.158 A 
ATOM     33  C   LIG    1        6.274   3.537 -12.748  0.00  0.00    +0.162 A 
ATOM     34  C   LIG    1        6.305   2.434 -11.910  0.00  0.00    +0.054 A 
BRANCH  32  35
ATOM     35  O   LIG    1        5.248   4.721 -14.544  0.00  0.00    -0.503 OA
ATOM     36  H   LIG    1        4.713   5.453 -14.207  0.00  0.00    +0.292 HD
ENDBRANCH  32  35
BRANCH  33  37
ATOM     37  O   LIG    1        7.204   4.520 -12.616  0.00  0.00    -0.491 OA
ATOM     38  C   LIG    1        8.189   4.348 -11.595  0.00  0.00    +0.277 C 
ENDBRANCH  33  37
ENDBRANCH  28  29
ENDBRANCH  26  28
ENDBRANCH  24  26
ENDBRANCH  22  24
ENDBRANCH  21  22
ENDBRANCH   1  21
TORSDOF 15
