REMARK  Name = ZINC13526656
REMARK                            x       y       z     vdW  Elec       q    Type
REMARK                         _______ _______ _______ _____ _____    ______ ____
ROOT
ATOM      1  C   LIG    1       -3.913   7.424   0.185  0.00  0.00    +0.103 A 
ATOM      2  C   LIG    1       -4.745   6.436  -0.236  0.00  0.00    +0.041 A 
ATOM      3  C   LIG    1       -6.071   6.832   0.063  0.00  0.00    +0.001 A 
ATOM      4  C   LIG    1       -7.322   6.230  -0.129  0.00  0.00    +0.025 A 
ATOM      5  C   LIG    1       -8.455   6.877   0.271  0.00  0.00    +0.019 A 
ATOM      6 BR   LIG    1      -10.142   6.065   0.004  0.00  0.00    -0.050 Br
ATOM      7  C   LIG    1       -8.380   8.125   0.880  0.00  0.00    +0.017 A 
ATOM      8  C   LIG    1       -7.163   8.734   1.084  0.00  0.00    +0.027 A 
ATOM      9  C   LIG    1       -5.993   8.097   0.679  0.00  0.00    +0.047 A 
ATOM     10  N   LIG    1       -4.663   8.441   0.744  0.00  0.00    -0.351 N 
ATOM     11  H   LIG    1       -4.165   9.335   1.145  0.00  0.00    +0.166 HD
ENDROOT
BRANCH   1  17
ATOM     12  C   LIG    1       -0.074  11.701  -2.264  0.00  0.00    +0.105 C 
ATOM     13  N   LIG    1       -0.549  10.781  -1.222  0.00  0.00    -0.302 NA
ATOM     14  C   LIG    1       -2.015  10.685  -1.233  0.00  0.00    +0.103 C 
ATOM     15  C   LIG    1       -2.479   9.864  -0.025  0.00  0.00    +0.123 C 
ATOM     16  N   LIG    1       -1.771   8.575  -0.037  0.00  0.00    -0.294 N 
ATOM     17  C   LIG    1       -2.447   7.413   0.065  0.00  0.00    +0.263 C 
ATOM     18  O   LIG    1       -1.845   6.356   0.058  0.00  0.00    -0.268 OA
ATOM     19  C   LIG    1       -0.305   8.587  -0.156  0.00  0.00    +0.123 C 
ATOM     20  C   LIG    1        0.073   9.457  -1.365  0.00  0.00    +0.103 C 
ENDBRANCH   1  17
TORSDOF 1
