REMARK  Name = ZINC13449631
REMARK                            x       y       z     vdW  Elec       q    Type
REMARK                         _______ _______ _______ _____ _____    ______ ____
ROOT
ATOM      1  S   LIG    1        4.221  -0.993  -1.756  0.00  0.00    +0.086 S 
ATOM      2  O   LIG    1        4.577   0.245  -2.357  0.00  0.00    -0.246 OA
ENDROOT
BRANCH   1   3
ATOM      3  S   LIG    1        6.004  -1.990  -1.585  0.00  0.00    -0.056 S 
BRANCH   3   4
ATOM      4  C   LIG    1        6.515  -2.275  -3.302  0.00  0.00    +0.118 C 
BRANCH   4   8
ATOM      5  C   LIG    1        7.625   1.440  -5.094  0.00  0.00    +0.000 A 
ATOM      6  C   LIG    1        8.574   0.676  -4.442  0.00  0.00    +0.000 A 
ATOM      7  C   LIG    1        8.215  -0.526  -3.861  0.00  0.00    +0.004 A 
ATOM      8  C   LIG    1        6.906  -0.965  -3.934  0.00  0.00    -0.037 A 
ATOM      9  C   LIG    1        5.958  -0.203  -4.591  0.00  0.00    +0.004 A 
ATOM     10  C   LIG    1        6.316   1.001  -5.167  0.00  0.00    +0.000 A 
ENDBRANCH   4   8
ENDBRANCH   3   4
ENDBRANCH   1   3
BRANCH   1  11
ATOM     11  C   LIG    1        3.711  -0.707  -0.039  0.00  0.00    +0.150 C 
BRANCH  11  12
ATOM     12  C   LIG    1        2.396   0.029  -0.022  0.00  0.00    -0.034 A 
ATOM     13  C   LIG    1        1.208  -0.679  -0.014  0.00  0.00    +0.004 A 
ATOM     14  C   LIG    1        0.002  -0.004   0.002  0.00  0.00    +0.000 A 
ATOM     15  C   LIG    1       -0.017   1.378   0.010  0.00  0.00    +0.000 A 
ATOM     16  C   LIG    1        1.171   2.086   0.002  0.00  0.00    +0.000 A 
ATOM     17  C   LIG    1        2.377   1.411  -0.014  0.00  0.00    +0.004 A 
ENDBRANCH  11  12
ENDBRANCH   1  11
TORSDOF 5
