REMARK  Name = ZINC13491405
REMARK                            x       y       z     vdW  Elec       q    Type
REMARK                         _______ _______ _______ _____ _____    ______ ____
ROOT
ATOM      1  C   LIG    1       -0.013   1.086   0.008  0.00  0.00    +0.061 C 
ATOM      2  C   LIG    1       -0.729   1.579   1.267  0.00  0.00    +0.136 C 
ATOM      3  C   LIG    1        0.009   1.074   2.508  0.00  0.00    +0.061 C 
ATOM      4  C   LIG    1       -2.147   1.065   1.277  0.00  0.00    +0.017 A 
ATOM      5  C   LIG    1       -2.465  -0.144   0.705  0.00  0.00    +0.018 A 
ATOM      6  C   LIG    1       -3.785  -0.594   0.727  0.00  0.00    -0.017 A 
ATOM      7  C   LIG    1       -4.776   0.184   1.323  0.00  0.00    +0.010 A 
ATOM      8  C   LIG    1       -4.452   1.398   1.892  0.00  0.00    +0.024 A 
ATOM      9  C   LIG    1       -3.139   1.844   1.870  0.00  0.00    +0.043 A 
ATOM     10  N   LIG    1       -2.787   3.072   2.440  0.00  0.00    -0.251 N 
ATOM     11  H   LIG    1       -3.395   3.520   3.048  0.00  0.00    +0.158 HD
ATOM     12  C   LIG    1       -1.597   3.631   2.138  0.00  0.00    +0.405 C 
ATOM     13  O   LIG    1       -1.281   4.686   2.651  0.00  0.00    -0.226 OA
ATOM     14  O   LIG    1       -0.756   3.033   1.274  0.00  0.00    -0.439 OA
ENDROOT
BRANCH   6  15
ATOM     15  C   LIG    1       -4.134  -1.899   0.114  0.00  0.00    -0.017 A 
ATOM     16  C   LIG    1       -3.144  -2.675  -0.489  0.00  0.00    +0.008 A 
ATOM     17  C   LIG    1       -3.465  -3.893  -1.055  0.00  0.00    +0.002 A 
ATOM     18  C   LIG    1       -4.769  -4.346  -1.039  0.00  0.00    +0.019 A 
ATOM     19  C   LIG    1       -5.771  -3.576  -0.444  0.00  0.00    +0.052 A 
ATOM     20  C   LIG    1       -5.450  -2.348   0.134  0.00  0.00    +0.027 A 
BRANCH  19  21
ATOM     21  C   LIG    1       -7.124  -4.046  -0.428  0.00  0.00    +0.099 C 
ATOM     22  N   LIG    1       -8.197  -4.419  -0.415  0.00  0.00    -0.191 NA
ENDBRANCH  19  21
ENDBRANCH   6  15
TORSDOF 2
