REMARK  Name = ZINC13132551
REMARK                            x       y       z     vdW  Elec       q    Type
REMARK                         _______ _______ _______ _____ _____    ______ ____
ROOT
ATOM      1  C   LIG    1       -0.017   1.379   0.010  0.00  0.00    +0.004 A 
ATOM      2  C   LIG    1        1.039   2.271   0.004  0.00  0.00    +0.009 A 
ATOM      3  C   LIG    1        2.413   1.984  -0.011  0.00  0.00    -0.007 A 
ATOM      4  C   LIG    1        3.207   3.141  -0.013  0.00  0.00    +0.058 A 
ATOM      5  C   LIG    1        4.578   3.026  -0.027  0.00  0.00    +0.163 A 
ATOM      6  C   LIG    1        5.207   1.774  -0.040  0.00  0.00    +0.201 A 
ATOM      7  C   LIG    1        4.476   0.605  -0.039  0.00  0.00    +0.174 A 
ATOM      8  C   LIG    1        3.067   0.670  -0.024  0.00  0.00    +0.073 A 
ATOM      9  C   LIG    1        2.467  -0.596  -0.025  0.00  0.00    +0.175 A 
ATOM     10  C   LIG    1        1.083  -0.889  -0.014  0.00  0.00    +0.221 A 
ATOM     11  O   LIG    1        0.767  -2.185  -0.018  0.00  0.00    -0.284 OA
ATOM     12  C   LIG    1        0.002  -0.004   0.002  0.00  0.00    +0.054 A 
ENDROOT
BRANCH   5  13
ATOM     13  O   LIG    1        5.339   4.151  -0.028  0.00  0.00    -0.503 OA
ATOM     14  H   LIG    1        5.568   4.472   0.855  0.00  0.00    +0.292 HD
ENDBRANCH   5  13
BRANCH   6  15
ATOM     15  O   LIG    1        6.565   1.711  -0.054  0.00  0.00    -0.501 OA
ATOM     16  H   LIG    1        6.968   1.688   0.825  0.00  0.00    +0.292 HD
ENDBRANCH   6  15
BRANCH   7  17
ATOM     17  O   LIG    1        5.107  -0.598  -0.052  0.00  0.00    -0.503 OA
ATOM     18  H   LIG    1        5.299  -0.951   0.827  0.00  0.00    +0.292 HD
ENDBRANCH   7  17
BRANCH   9  19
ATOM     19  O   LIG    1        3.305  -1.657  -0.040  0.00  0.00    -0.503 OA
ATOM     20  H   LIG    1        2.856  -2.513  -0.040  0.00  0.00    +0.292 HD
ENDBRANCH   9  19
TORSDOF 4
