REMARK  Name = ZINC13492737
REMARK                            x       y       z     vdW  Elec       q    Type
REMARK                         _______ _______ _______ _____ _____    ______ ____
ROOT
ATOM      1  C   LIG    1       -1.169  -0.706   0.460  0.00  0.00    +0.048 A 
ATOM      2  C   LIG    1       -2.321  -0.018   0.703  0.00  0.00    +0.044 A 
ATOM      3 CL   LIG    1       -3.792  -0.891   0.994  0.00  0.00    -0.083 Cl
ATOM      4  C   LIG    1       -2.335   1.375   0.720  0.00  0.00    +0.040 A 
ATOM      5  C   LIG    1       -1.195   2.087   0.488  0.00  0.00    +0.053 A 
ATOM      6 CL   LIG    1       -1.230   3.823   0.514  0.00  0.00    -0.083 Cl
ATOM      7  C   LIG    1        0.007   1.410   0.241  0.00  0.00    +0.040 A 
ATOM      8  C   LIG    1        1.214   2.104   0.002  0.00  0.00    +0.040 A 
ATOM      9  C   LIG    1        2.367   1.365  -0.242  0.00  0.00    -0.005 A 
ATOM     10  C   LIG    1        3.640   2.126  -0.502  0.00  0.00    +0.039 C 
ATOM     11  C   LIG    1        4.856   1.220  -0.319  0.00  0.00    +0.005 C 
ATOM     12  C   LIG    1        4.636  -0.054  -1.142  0.00  0.00    +0.006 C 
ATOM     13  C   LIG    1        3.529  -0.872  -0.481  0.00  0.00    +0.056 C 
ATOM     14  C   LIG    1        2.309  -0.018  -0.240  0.00  0.00    +0.047 A 
ATOM     15  N   LIG    1        1.169  -0.650  -0.016  0.00  0.00    -0.251 NA
ATOM     16  C   LIG    1        0.025  -0.006   0.223  0.00  0.00    +0.076 A 
ENDROOT
BRANCH   8  17
ATOM     17  N   LIG    1        1.248   3.490   0.009  0.00  0.00    -0.357 N 
ATOM     18  H   LIG    1        1.734   3.967  -0.681  0.00  0.00    +0.142 HD
ATOM     19  H   LIG    1        0.784   3.983   0.704  0.00  0.00    +0.142 HD
ENDBRANCH   8  17
TORSDOF 1
