REMARK  Name = ZINC13523006
REMARK                            x       y       z     vdW  Elec       q    Type
REMARK                         _______ _______ _______ _____ _____    ______ ____
ROOT
ATOM      1  N   LIG    1        0.981   3.559   0.012  0.00  0.00    +0.388 N 
ATOM      2  H   LIG    1        0.428   3.797  -0.820  0.00  0.00    -0.084 HD
ATOM      3  H   LIG    1        0.444   3.788   0.857  0.00  0.00    -0.084 HD
ENDROOT
BRANCH   1   4
ATOM      4  C   LIG    1        2.232   4.340   0.004  0.00  0.00    -0.067 C 
ATOM      5  C   LIG    1        3.061   3.997   1.244  0.00  0.00    -0.009 C 
ATOM      6  C   LIG    1        4.354   4.814   1.236  0.00  0.00    -0.012 C 
ATOM      7  C   LIG    1        4.014   6.306   1.247  0.00  0.00    +0.007 C 
ATOM      8  C   LIG    1        3.185   6.650   0.007  0.00  0.00    -0.012 C 
ATOM      9  C   LIG    1        3.990   6.319  -1.251  0.00  0.00    +0.007 C 
ATOM     10  C   LIG    1        4.330   4.828  -1.263  0.00  0.00    -0.012 C 
ATOM     11  C   LIG    1        5.158   4.484  -0.023  0.00  0.00    +0.007 C 
ATOM     12  C   LIG    1        3.037   4.010  -1.255  0.00  0.00    -0.009 C 
ATOM     13  C   LIG    1        1.892   5.832   0.015  0.00  0.00    -0.009 C 
ENDBRANCH   1   4
BRANCH   1  14
ATOM     14  C   LIG    1        1.278   2.115   0.001  0.00  0.00    +0.016 C 
BRANCH  14  19
ATOM     15  C   LIG    1        0.750  -2.192  -0.628  0.00  0.00    +0.022 C 
ATOM     16  C   LIG    1       -0.675  -2.334  -0.030  0.00  0.00    +0.039 C 
ATOM     17  C   LIG    1       -1.181  -0.877   0.015  0.00  0.00    +0.179 C 
ATOM     18  N   LIG    1        0.002  -0.004   0.002  0.00  0.00    -0.287 N 
ATOM     19  C   LIG    1       -0.016   1.344   0.009  0.00  0.00    +0.200 C 
ATOM     20  O   LIG    1       -1.075   1.936   0.018  0.00  0.00    -0.278 OA
ATOM     21  C   LIG    1        1.212  -0.847  -0.013  0.00  0.00    +0.109 C 
BRANCH  17  22
ATOM     22  C   LIG    1       -1.957  -0.651   1.245  0.00  0.00    +0.085 C 
ATOM     23  N   LIG    1       -2.556  -0.477   2.194  0.00  0.00    -0.195 NA
ENDBRANCH  17  22
ENDBRANCH  14  19
ENDBRANCH   1  14
TORSDOF 4
