REMARK  Name = ZINC13487545
REMARK                            x       y       z     vdW  Elec       q    Type
REMARK                         _______ _______ _______ _____ _____    ______ ____
ROOT
ATOM      1  N   LIG    1       -0.008   1.348  -0.047  0.00  0.00    -0.249 N 
ATOM      2  C   LIG    1        0.036   0.012   0.137  0.00  0.00    +0.257 C 
ATOM      3  C   LIG    1        1.287  -0.694  -0.186  0.00  0.00    +0.100 C 
ATOM      4  C   LIG    1        2.406   0.120  -0.689  0.00  0.00    +0.257 C 
ATOM      5  N   LIG    1        2.219   1.449  -0.823  0.00  0.00    -0.249 N 
ATOM      6  O   LIG    1        3.472  -0.393  -0.977  0.00  0.00    -0.269 OA
ATOM      7  C   LIG    1        1.406  -2.071  -0.022  0.00  0.00    +0.033 C 
ATOM      8  O   LIG    1       -0.933  -0.593   0.558  0.00  0.00    -0.269 OA
ATOM      9  C   LIG    1        1.051   2.027  -0.509  0.00  0.00    +0.149 C 
ATOM     10  S   LIG    1        0.904   3.720  -0.711  0.00  0.00    -0.018 S 
ENDROOT
BRANCH   7  11
ATOM     11  C   LIG    1        2.661  -2.685  -0.143  0.00  0.00    +0.014 A 
ATOM     12  C   LIG    1        3.002  -3.870  -0.800  0.00  0.00    +0.017 A 
ATOM     13  C   LIG    1        4.317  -4.242  -0.764  0.00  0.00    +0.023 A 
ATOM     14  C   LIG    1        5.213  -3.461  -0.095  0.00  0.00    +0.055 A 
ATOM     15 BR   LIG    1        7.072  -3.732   0.123  0.00  0.00    -0.043 Br
ATOM     16  S   LIG    1        4.238  -2.161   0.508  0.00  0.00    -0.082 S 
ENDBRANCH   7  11
BRANCH   1  18
ATOM     17  C   LIG    1       -1.218   2.526   1.722  0.00  0.00    +0.025 C 
ATOM     18  C   LIG    1       -1.244   2.073   0.261  0.00  0.00    +0.112 C 
ENDBRANCH   1  18
BRANCH   5  19
ATOM     19  C   LIG    1        3.318   2.280  -1.321  0.00  0.00    +0.112 C 
ATOM     20  C   LIG    1        3.239   2.368  -2.847  0.00  0.00    +0.025 C 
ENDBRANCH   5  19
TORSDOF 3
