REMARK  Name = ZINC13507825
REMARK                            x       y       z     vdW  Elec       q    Type
REMARK                         _______ _______ _______ _____ _____    ______ ____
ROOT
ATOM      1  C   LIG    1        5.422  -1.804   1.383  0.00  0.00    +0.234 C 
ATOM      2  N   LIG    1        5.402  -3.031   0.824  0.00  0.00    -0.304 N 
ATOM      3  H   LIG    1        4.583  -3.372   0.432  0.00  0.00    +0.149 HD
ATOM      4  O   LIG    1        6.446  -1.378   1.874  0.00  0.00    -0.274 OA
ENDROOT
BRANCH   1   5
ATOM      5  C   LIG    1        4.171  -0.963   1.399  0.00  0.00    +0.163 C 
BRANCH   5   6
ATOM      6  N   LIG    1        4.451   0.315   2.057  0.00  0.00    -0.305 N 
ATOM      7  H   LIG    1        5.356   0.664   2.075  0.00  0.00    +0.149 HD
ATOM      8  C   LIG    1        3.451   1.007   2.638  0.00  0.00    +0.200 C 
ATOM      9  O   LIG    1        2.319   0.571   2.616  0.00  0.00    -0.278 OA
BRANCH   8  10
ATOM     10  C   LIG    1        3.739   2.322   3.316  0.00  0.00    +0.016 C 
ATOM     11  C   LIG    1        4.263   3.355   2.287  0.00  0.00    -0.009 C 
ATOM     12  C   LIG    1        3.896   4.696   2.975  0.00  0.00    -0.020 C 
ATOM     13  C   LIG    1        2.553   4.376   3.666  0.00  0.00    -0.082 C 
ATOM     14  N   LIG    1        2.491   2.913   3.845  0.00  0.00    +0.387 N 
ATOM     15  H   LIG    1        2.400   2.692   4.825  0.00  0.00    -0.085 HD
ATOM     16  H   LIG    1        1.699   2.542   3.340  0.00  0.00    -0.085 HD
ENDBRANCH   8  10
ENDBRANCH   5   6
BRANCH   5  17
ATOM     17  C   LIG    1        3.711  -0.707  -0.038  0.00  0.00    +0.067 C 
BRANCH  17  21
ATOM     18  C   LIG    1       -0.017   1.378   0.010  0.00  0.00    +0.000 A 
ATOM     19  C   LIG    1        1.171   2.086   0.002  0.00  0.00    +0.000 A 
ATOM     20  C   LIG    1        2.377   1.411  -0.013  0.00  0.00    +0.004 A 
ATOM     21  C   LIG    1        2.396   0.029  -0.020  0.00  0.00    -0.045 A 
ATOM     22  C   LIG    1        1.208  -0.679  -0.012  0.00  0.00    +0.004 A 
ATOM     23  C   LIG    1        0.002  -0.004   0.002  0.00  0.00    +0.000 A 
ENDBRANCH  17  21
ENDBRANCH   5  17
ENDBRANCH   1   5
BRANCH   2  24
ATOM     24  C   LIG    1        6.617  -3.849   0.809  0.00  0.00    +0.141 C 
BRANCH  24  25
ATOM     25  C   LIG    1        7.459  -3.476  -0.384  0.00  0.00    +0.168 C 
ATOM     26  O   LIG    1        6.979  -2.827  -1.283  0.00  0.00    -0.294 OA
BRANCH  25  27
ATOM     27  C   LIG    1        8.899  -3.913  -0.457  0.00  0.00    +0.184 C 
ATOM     28 CL   LIG    1        9.631  -3.317  -1.993  0.00  0.00    -0.117 Cl
ENDBRANCH  25  27
ENDBRANCH  24  25
BRANCH  24  29
ATOM     29  C   LIG    1        6.236  -5.328   0.723  0.00  0.00    +0.033 C 
BRANCH  29  30
ATOM     30  C   LIG    1        5.488  -5.737   1.993  0.00  0.00    +0.039 C 
BRANCH  30  31
ATOM     31  C   LIG    1        5.107  -7.216   1.907  0.00  0.00    +0.196 C 
BRANCH  31  32
ATOM     32  N   LIG    1        4.391  -7.608   3.123  0.00  0.00    -0.279 N 
ATOM     33  H   LIG    1        4.231  -6.955   3.823  0.00  0.00    +0.258 HD
BRANCH  32  34
ATOM     34  C   LIG    1        3.948  -8.893   3.272  0.00  0.00    +0.341 C 
ATOM     35  N   LIG    1        3.297  -9.249   4.378  0.00  0.00    -0.292 N 
ATOM     36  H   LIG    1        2.983 -10.161   4.484  0.00  0.00    +0.255 HD
ATOM     37  H   LIG    1        3.138  -8.597   5.079  0.00  0.00    +0.255 HD
BRANCH  34  38
ATOM     38  N   LIG    1        4.168  -9.789   2.311  0.00  0.00    -0.292 N 
ATOM     39  H   LIG    1        3.853 -10.701   2.417  0.00  0.00    +0.255 HD
ATOM     40  H   LIG    1        4.641  -9.530   1.506  0.00  0.00    +0.255 HD
ENDBRANCH  34  38
ENDBRANCH  32  34
ENDBRANCH  31  32
ENDBRANCH  30  31
ENDBRANCH  29  30
ENDBRANCH  24  29
ENDBRANCH   2  24
TORSDOF 14
