REMARK  Name = ZINC13451015
REMARK                            x       y       z     vdW  Elec       q    Type
REMARK                         _______ _______ _______ _____ _____    ______ ____
ROOT
ATOM      1  N   LIG    1        1.233  -2.082  -0.020  0.00  0.00    -0.281 N 
ATOM      2  H   LIG    1        2.006  -2.559   0.322  0.00  0.00    +0.155 HD
ATOM      3  C   LIG    1        0.180  -2.768  -0.507  0.00  0.00    +0.250 C 
ATOM      4  O   LIG    1       -0.747  -2.174  -1.022  0.00  0.00    -0.270 OA
ENDROOT
BRANCH   1   8
ATOM      5  C   LIG    1        1.169   2.087   0.018  0.00  0.00    +0.029 A 
ATOM      6  C   LIG    1       -0.008   1.373   0.201  0.00  0.00    +0.025 A 
ATOM      7  C   LIG    1        0.013  -0.008   0.188  0.00  0.00    +0.025 A 
ATOM      8  C   LIG    1        1.212  -0.682  -0.007  0.00  0.00    +0.034 A 
ATOM      9  C   LIG    1        2.389   0.032  -0.189  0.00  0.00    +0.025 A 
ATOM     10  C   LIG    1        2.368   1.412  -0.176  0.00  0.00    +0.025 A 
BRANCH   5  12
ATOM     11  C   LIG    1       -0.116   4.197   0.236  0.00  0.00    +0.129 C 
ATOM     12  N   LIG    1        1.148   3.486   0.031  0.00  0.00    -0.336 N 
ATOM     13  C   LIG    1        2.390   4.239  -0.161  0.00  0.00    +0.129 C 
ENDBRANCH   5  12
ENDBRANCH   1   8
BRANCH   3  14
ATOM     14  C   LIG    1        0.151  -4.245  -0.414  0.00  0.00    +0.055 A 
ATOM     15  C   LIG    1       -0.937  -4.966  -0.916  0.00  0.00    +0.017 A 
ATOM     16  C   LIG    1       -0.918  -6.346  -0.806  0.00  0.00    +0.036 A 
ATOM     17  CA  LIG    1        0.175  -6.965  -0.204  0.00  0.00    +0.147 A 
ATOM     18  N   LIG    1        1.192  -6.249   0.261  0.00  0.00    -0.248 NA
ATOM     19  C   LIG    1        1.214  -4.938   0.172  0.00  0.00    +0.124 A 
BRANCH  17  20
ATOM     20  C   LIG    1        0.205  -8.442  -0.083  0.00  0.00    +0.355 C 
ATOM     21  O   LIG    1       -0.721  -9.104  -0.507  0.00  0.00    -0.243 OA
BRANCH  20  22
ATOM     22  OXT LIG    1        1.257  -9.049   0.497  0.00  0.00    -0.476 OA
ATOM     23  HXT LIG    1        1.971  -8.538   0.824  0.00  0.00    +0.295 HD
ENDBRANCH  20  22
ENDBRANCH  17  20
ENDBRANCH   3  14
TORSDOF 5
