REMARK  Name = ZINC13518462
REMARK                            x       y       z     vdW  Elec       q    Type
REMARK                         _______ _______ _______ _____ _____    ______ ____
ROOT
ATOM      1  C   LIG    1       -1.240   3.128   0.031  0.00  0.00    +0.012 A 
ATOM      2  C   LIG    1       -0.052   3.832   0.023  0.00  0.00    +0.004 A 
ATOM      3  C   LIG    1        1.161   3.160   0.006  0.00  0.00    -0.042 A 
ATOM      4  C   LIG    1        1.181   1.782   0.000  0.00  0.00    -0.030 A 
ATOM      5  C   LIG    1        2.473   1.006  -0.011  0.00  0.00    +0.116 C 
ATOM      6  N   LIG    1        3.584   1.867  -0.428  0.00  0.00    -0.312 NA
ATOM      7  H   LIG    1        4.534   1.325  -0.302  0.00  0.00    +0.122 HD
ATOM      8  C   LIG    1        3.616   3.090   0.390  0.00  0.00    +0.086 C 
ATOM      9  C   LIG    1       -0.013   1.076   0.008  0.00  0.00    +0.017 A 
ATOM     10  C   LIG    1        2.431   3.970  -0.008  0.00  0.00    +0.050 C 
ATOM     11  C   LIG    1       -1.220   1.746   0.017  0.00  0.00    +0.055 A 
ENDROOT
BRANCH  11  12
ATOM     12  C   LIG    1       -2.513   0.972   0.018  0.00  0.00    +0.417 C 
ATOM     13  F   LIG    1       -2.329  -0.243  -0.650  0.00  0.00    -0.166 F 
ATOM     14  F   LIG    1       -3.502   1.717  -0.633  0.00  0.00    -0.166 F 
ATOM     15  F   LIG    1       -2.907   0.724   1.337  0.00  0.00    -0.166 F 
ENDBRANCH  11  12
TORSDOF 1
