REMARK  Name = ZINC13209838
REMARK                            x       y       z     vdW  Elec       q    Type
REMARK                         _______ _______ _______ _____ _____    ______ ____
ROOT
ATOM      1  C   LIG    1       -0.017   1.395   0.010  0.00  0.00    +0.015 A 
ATOM      2  C   LIG    1        1.167   2.100   0.002  0.00  0.00    +0.050 A 
ATOM      3  C   LIG    1        2.380   1.425  -0.013  0.00  0.00    +0.158 A 
ATOM      4  C   LIG    1        2.408   0.030  -0.021  0.00  0.00    +0.159 A 
ATOM      5  C   LIG    1        1.227  -0.684  -0.013  0.00  0.00    +0.060 A 
ATOM      6  C   LIG    1        0.002  -0.004   0.002  0.00  0.00    +0.023 A 
ENDROOT
BRANCH   3   7
ATOM      7  O   LIG    1        3.543   2.125  -0.021  0.00  0.00    -0.503 OA
ATOM      8  H   LIG    1        3.889   2.323   0.860  0.00  0.00    +0.292 HD
ENDBRANCH   3   7
BRANCH   4   9
ATOM      9  O   LIG    1        3.599  -0.626  -0.036  0.00  0.00    -0.503 OA
ATOM     10  H   LIG    1        3.952  -0.821   0.843  0.00  0.00    +0.292 HD
ENDBRANCH   4   9
BRANCH   6  11
ATOM     11  C   LIG    1       -1.258  -0.758   0.010  0.00  0.00    +0.183 C 
ATOM     12  O   LIG    1       -1.240  -1.970   0.003  0.00  0.00    -0.290 OA
BRANCH  11  13
ATOM     13  C   LIG    1       -2.575  -0.024   0.026  0.00  0.00    +0.202 C 
BRANCH  13  14
ATOM     14  N   LIG    1       -3.674  -0.993   0.032  0.00  0.00    -0.329 N 
ATOM     15  C   LIG    1       -4.290  -1.529  -1.067  0.00  0.00    +0.107 A 
ATOM     16  C   LIG    1       -5.238  -2.369  -0.611  0.00  0.00    +0.130 A 
ATOM     17  N   LIG    1       -5.202  -2.348   0.729  0.00  0.00    -0.244 NA
ATOM     18  C   LIG    1       -4.264  -1.529   1.122  0.00  0.00    +0.199 A 
ENDBRANCH  13  14
ENDBRANCH  11  13
ENDBRANCH   6  11
TORSDOF 5
