REMARK  Name = ZINC13471981
REMARK                            x       y       z     vdW  Elec       q    Type
REMARK                         _______ _______ _______ _____ _____    ______ ____
ROOT
ATOM      1  C   LIG    1        1.656  -4.553  -4.346  0.00  0.00    +0.052 A 
ATOM      2  C   LIG    1        2.354  -3.700  -5.190  0.00  0.00    +0.027 A 
ATOM      3  C   LIG    1        2.785  -4.151  -6.423  0.00  0.00    +0.030 A 
ATOM      4  C   LIG    1        2.522  -5.450  -6.816  0.00  0.00    +0.107 A 
ATOM      5  C   LIG    1        1.827  -6.303  -5.978  0.00  0.00    +0.050 A 
ATOM      6  C   LIG    1        1.398  -5.859  -4.741  0.00  0.00    +0.064 A 
ATOM      7 CL   LIG    1        0.532  -6.932  -3.686  0.00  0.00    -0.082 Cl
ENDROOT
BRANCH   1   9
ATOM      8  C   LIG    1        0.736  -2.847  -2.965  0.00  0.00    +0.220 C 
ATOM      9  N   LIG    1        1.218  -4.098  -3.096  0.00  0.00    -0.284 N 
ATOM     10  H   LIG    1        1.262  -4.685  -2.324  0.00  0.00    +0.155 HD
ATOM     11  O   LIG    1        0.768  -2.083  -3.906  0.00  0.00    -0.275 OA
BRANCH   8  12
ATOM     12  C   LIG    1        0.157  -2.397  -1.649  0.00  0.00    +0.075 C 
BRANCH  12  13
ATOM     13  C   LIG    1        0.241  -0.872  -1.549  0.00  0.00    +0.012 C 
BRANCH  13  15
ATOM     14  C   LIG    1       -0.146   1.100  -0.064  0.00  0.00    +0.004 C 
ATOM     15  C   LIG    1       -0.231  -0.425  -0.164  0.00  0.00    -0.003 C 
ENDBRANCH  13  15
ENDBRANCH  12  13
BRANCH  12  16
ATOM     16  C   LIG    1       -1.307  -2.833  -1.559  0.00  0.00    +0.012 C 
BRANCH  16  17
ATOM     17  C   LIG    1       -2.082  -2.264  -2.749  0.00  0.00    -0.003 C 
ATOM     18  C   LIG    1       -3.508  -2.819  -2.741  0.00  0.00    +0.004 C 
ENDBRANCH  16  17
ENDBRANCH  12  16
ENDBRANCH   8  12
ENDBRANCH   1   9
BRANCH   4  19
ATOM     19  S   LIG    1        3.073  -6.020  -8.390  0.00  0.00    +0.056 S 
ATOM     20  O   LIG    1        3.223  -4.869  -9.209  0.00  0.00    -0.153 OA
ATOM     21  O   LIG    1        2.228  -7.105  -8.747  0.00  0.00    -0.153 OA
BRANCH  19  22
ATOM     22  N   LIG    1        4.590  -6.652  -8.178  0.00  0.00    -0.204 NA
ATOM     23  H   LIG    1        5.071  -7.022  -8.935  0.00  0.00    +0.144 HD
ATOM     24  H   LIG    1        4.997  -6.651  -7.298  0.00  0.00    +0.144 HD
ENDBRANCH  19  22
ENDBRANCH   4  19
TORSDOF 8
