REMARK  Name = ZINC13452432
REMARK                            x       y       z     vdW  Elec       q    Type
REMARK                         _______ _______ _______ _____ _____    ______ ____
ROOT
ATOM      1  N   LIG    1       -8.486  -4.792  -2.508  0.00  0.00    -0.315 N 
ATOM      2  C   LIG    1       -7.463  -3.940  -2.813  0.00  0.00    +0.100 A 
ATOM      3  C   LIG    1       -6.523  -3.983  -1.835  0.00  0.00    +0.003 A 
ATOM      4  C   LIG    1       -7.007  -4.940  -0.825  0.00  0.00    +0.009 A 
ATOM      5  C   LIG    1       -6.502  -5.401   0.389  0.00  0.00    +0.030 A 
ATOM      6  C   LIG    1       -7.219  -6.325   1.119  0.00  0.00    +0.042 A 
ATOM      7 CL   LIG    1       -6.595  -6.904   2.632  0.00  0.00    -0.084 Cl
ATOM      8  C   LIG    1       -8.439  -6.795   0.650  0.00  0.00    +0.022 A 
ATOM      9  C   LIG    1       -8.949  -6.346  -0.548  0.00  0.00    +0.028 A 
ATOM     10  C   LIG    1       -8.241  -5.415  -1.300  0.00  0.00    +0.054 A 
ENDROOT
BRANCH   1  17
ATOM     11  C   LIG    1      -10.021  -6.291  -3.621  0.00  0.00    +0.029 A 
ATOM     12  C   LIG    1      -11.143  -6.493  -4.399  0.00  0.00    +0.040 A 
ATOM     13  C   LIG    1      -11.865  -5.409  -4.870  0.00  0.00    +0.124 A 
ATOM     14  F   LIG    1      -12.960  -5.609  -5.635  0.00  0.00    -0.205 F 
ATOM     15  C   LIG    1      -11.466  -4.120  -4.556  0.00  0.00    +0.040 A 
ATOM     16  C   LIG    1      -10.347  -3.914  -3.774  0.00  0.00    +0.029 A 
ATOM     17  C   LIG    1       -9.622  -5.000  -3.301  0.00  0.00    +0.047 A 
ENDBRANCH   1  17
BRANCH   3  18
ATOM     18  C   LIG    1       -5.263  -3.215  -1.789  0.00  0.00    -0.046 C 
ATOM     19  C   LIG    1       -5.181  -2.185  -0.974  0.00  0.00    -0.041 C 
ATOM     20  C   LIG    1       -3.950  -1.333  -0.853  0.00  0.00    -0.051 C 
ATOM     21  N   LIG    1       -2.790  -2.051  -1.412  0.00  0.00    +0.383 N 
ATOM     22  H   LIG    1       -2.586  -2.867  -0.824  0.00  0.00    -0.081 HD
ATOM     23  C   LIG    1       -3.102  -2.509  -2.782  0.00  0.00    -0.074 C 
ATOM     24  C   LIG    1       -4.126  -3.642  -2.675  0.00  0.00    +0.017 C 
BRANCH  21  25
ATOM     25  C   LIG    1       -1.606  -1.163  -1.431  0.00  0.00    -0.059 C 
BRANCH  25  26
ATOM     26  C   LIG    1       -1.180  -0.869   0.009  0.00  0.00    +0.091 C 
BRANCH  26  27
ATOM     27  N   LIG    1        0.002  -0.004   0.002  0.00  0.00    -0.286 N 
ATOM     28  C   LIG    1       -0.018   1.466   0.010  0.00  0.00    +0.128 C 
ATOM     29  C   LIG    1        1.473   1.856  -0.002  0.00  0.00    +0.124 C 
ATOM     30  N   LIG    1        2.175   0.564  -0.016  0.00  0.00    -0.298 N 
ATOM     31  H   LIG    1        3.138   0.447  -0.025  0.00  0.00    +0.150 HD
ATOM     32  C   LIG    1        1.273  -0.427  -0.012  0.00  0.00    +0.302 C 
ATOM     33  O   LIG    1        1.580  -1.603  -0.021  0.00  0.00    -0.253 OA
ENDBRANCH  26  27
ENDBRANCH  25  26
ENDBRANCH  21  25
ENDBRANCH   3  18
TORSDOF 5
