REMARK  Name = ZINC13544987
REMARK                            x       y       z     vdW  Elec       q    Type
REMARK                         _______ _______ _______ _____ _____    ______ ____
ROOT
ATOM      1  C   LIG    1       -0.019   1.526   0.010  0.00  0.00    +0.025 C 
ATOM      2  C   LIG    1        0.002  -0.004   0.002  0.00  0.00    +0.068 C 
ATOM      3  C   LIG    1       -1.424  -0.558  -0.016  0.00  0.00    +0.025 C 
ATOM      4  C   LIG    1        0.788  -0.517  -1.183  0.00  0.00    -0.011 A 
ATOM      5  C   LIG    1        0.620  -0.386  -2.540  0.00  0.00    +0.016 A 
ATOM      6  C   LIG    1        1.530  -0.987  -3.414  0.00  0.00    -0.002 A 
ATOM      7  C   LIG    1        2.604  -1.717  -2.896  0.00  0.00    +0.011 A 
ATOM      8  C   LIG    1        2.763  -1.841  -1.535  0.00  0.00    +0.024 A 
ATOM      9  C   LIG    1        1.854  -1.242  -0.661  0.00  0.00    +0.038 A 
ATOM     10  N   LIG    1        1.808  -1.229   0.732  0.00  0.00    -0.285 N 
ATOM     11  H   LIG    1        2.457  -1.675   1.298  0.00  0.00    +0.155 HD
ATOM     12  C   LIG    1        0.761  -0.531   1.202  0.00  0.00    +0.227 C 
ATOM     13  O   LIG    1        0.476  -0.355   2.367  0.00  0.00    -0.275 OA
ENDROOT
BRANCH   6  14
ATOM     14  C   LIG    1        1.359  -0.854  -4.872  0.00  0.00    +0.067 C 
ATOM     15  N   LIG    1        0.364  -0.171  -5.335  0.00  0.00    -0.184 NA
ATOM     16  N   LIG    1        0.144  -0.037  -6.708  0.00  0.00    -0.207 N 
ATOM     17  H   LIG    1       -0.463   0.646  -7.034  0.00  0.00    +0.177 HD
ATOM     18  C   LIG    1        0.767  -0.849  -7.583  0.00  0.00    +0.233 C 
ATOM     19  C   LIG    1        1.635  -1.972  -7.071  0.00  0.00    +0.104 C 
ATOM     20  O   LIG    1        0.631  -0.679  -8.777  0.00  0.00    -0.274 OA
ATOM     21  C   LIG    1        2.351  -1.509  -5.797  0.00  0.00    +0.067 C 
ENDBRANCH   6  14
TORSDOF 1
