REMARK  Name = ZINC13519529
REMARK                            x       y       z     vdW  Elec       q    Type
REMARK                         _______ _______ _______ _____ _____    ______ ____
ROOT
ATOM      1  C   LIG    1        1.216  -0.697   0.066  0.00  0.00    +0.022 A 
ATOM      2  C   LIG    1        0.002  -0.004   0.002  0.00  0.00    +0.023 A 
ATOM      3  C   LIG    1       -0.016   1.354   0.009  0.00  0.00    +0.023 A 
ATOM      4  N   LIG    1        1.139   2.059   0.002  0.00  0.00    -0.311 N 
ATOM      5  C   LIG    1        1.191   3.505  -0.221  0.00  0.00    +0.126 C 
ATOM      6  C   LIG    1       -0.135   4.182   0.083  0.00  0.00    -0.008 C 
ATOM      7  C   LIG    1       -1.270   3.409  -0.594  0.00  0.00    +0.011 C 
ATOM      8  C   LIG    1       -0.380   4.293   1.581  0.00  0.00    -0.077 C 
ATOM      9  N   LIG    1       -0.556   2.965   2.192  0.00  0.00    +0.380 N 
ATOM     10  H   LIG    1       -0.738   3.076   3.197  0.00  0.00    -0.086 HD
ATOM     11  H   LIG    1        0.300   2.414   2.058  0.00  0.00    -0.086 HD
ATOM     12  C   LIG    1       -1.693   2.257   1.567  0.00  0.00    -0.073 C 
ATOM     13  C   LIG    1        2.323   1.416   0.155  0.00  0.00    +0.266 A 
ATOM     14  O   LIG    1        3.349   2.062   0.294  0.00  0.00    -0.266 OA
ATOM     15  C   LIG    1       -1.365   2.036   0.082  0.00  0.00    +0.019 C 
ATOM     16  C   LIG    1        2.378   0.014   0.155  0.00  0.00    +0.082 A 
ATOM     17 BR   LIG    1        4.040  -0.879   0.278  0.00  0.00    -0.045 Br
ENDROOT
TORSDOF 0
