REMARK  Name = ZINC13523533
REMARK                            x       y       z     vdW  Elec       q    Type
REMARK                         _______ _______ _______ _____ _____    ______ ____
ROOT
ATOM      1  C   LIG    1        1.769   3.723   1.437  0.00  0.00    +0.165 C 
ENDROOT
BRANCH   1   2
ATOM      2  C   LIG    1        2.457   5.063   1.470  0.00  0.00    +0.237 C 
ATOM      3  N   LIG    1        3.796   5.136   1.333  0.00  0.00    -0.288 N 
ATOM      4  C   LIG    1        4.693   4.004   1.040  0.00  0.00    +0.109 C 
ATOM      5  C   LIG    1        5.941   4.646   0.384  0.00  0.00    +0.021 C 
ATOM      6  C   LIG    1        6.073   5.965   1.191  0.00  0.00    +0.033 C 
ATOM      7  C   LIG    1        4.603   6.360   1.446  0.00  0.00    +0.162 C 
ATOM      8  O   LIG    1        1.807   6.075   1.621  0.00  0.00    -0.274 OA
BRANCH   7   9
ATOM      9  C   LIG    1        4.464   6.941   2.829  0.00  0.00    +0.231 C 
ATOM     10  N   LIG    1        5.122   8.071   3.155  0.00  0.00    -0.328 N 
ATOM     11  H   LIG    1        5.032   8.445   4.046  0.00  0.00    +0.145 HD
ATOM     12  H   LIG    1        5.685   8.511   2.499  0.00  0.00    +0.145 HD
ATOM     13  O   LIG    1        3.759   6.391   3.649  0.00  0.00    -0.274 OA
ENDBRANCH   7   9
ENDBRANCH   1   2
BRANCH   1  14
ATOM     14  N   LIG    1        0.536   3.787   2.226  0.00  0.00    -0.302 N 
ATOM     15  H   LIG    1        0.091   4.638   2.361  0.00  0.00    +0.150 HD
ATOM     16  C   LIG    1        0.022   2.664   2.764  0.00  0.00    +0.234 C 
ATOM     17  O   LIG    1        0.579   1.600   2.595  0.00  0.00    -0.274 OA
BRANCH  16  18
ATOM     18  C   LIG    1       -1.246   2.730   3.576  0.00  0.00    +0.159 C 
ATOM     19  C   LIG    1       -0.934   3.187   5.018  0.00  0.00    +0.041 C 
ATOM     20  C   LIG    1       -0.772   1.834   5.750  0.00  0.00    +0.098 C 
ATOM     21  C   LIG    1       -1.579   0.863   4.917  0.00  0.00    +0.214 C 
ATOM     22  O   LIG    1       -1.943  -0.233   5.287  0.00  0.00    -0.276 OA
ATOM     23  N   LIG    1       -1.836   1.392   3.706  0.00  0.00    -0.304 N 
ATOM     24  H   LIG    1       -2.345   0.949   3.010  0.00  0.00    +0.149 HD
ENDBRANCH  16  18
ENDBRANCH   1  14
BRANCH   1  25
ATOM     25  C   LIG    1        1.429   3.360  -0.011  0.00  0.00    +0.086 C 
BRANCH  25  27
ATOM     26  C   LIG    1       -0.449   1.642   0.140  0.00  0.00    +0.133 A 
ATOM     27  C   LIG    1        0.841   1.974  -0.056  0.00  0.00    +0.038 A 
ATOM     28  N   LIG    1        1.516   0.809  -0.305  0.00  0.00    -0.348 N 
ATOM     29  C   LIG    1        0.613  -0.194  -0.253  0.00  0.00    +0.196 A 
ATOM     30  H   LIG    1        2.465   0.721  -0.486  0.00  0.00    +0.166 HD
ATOM     31  N   LIG    1       -0.560   0.312   0.014  0.00  0.00    -0.244 NA
ENDBRANCH  25  27
ENDBRANCH   1  25
TORSDOF 6
