REMARK  Name = ZINC13111339
REMARK                            x       y       z     vdW  Elec       q    Type
REMARK                         _______ _______ _______ _____ _____    ______ ____
ROOT
ATOM      1  C   LIG    1        0.030   1.484  -0.119  0.00  0.00    +0.064 C 
ATOM      2  C   LIG    1        0.021  -0.021  -0.049  0.00  0.00    +0.028 A 
ATOM      3  C   LIG    1       -1.130  -0.673   0.113  0.00  0.00    +0.018 A 
ATOM      4  S   LIG    1       -0.598  -2.377   0.131  0.00  0.00    -0.052 S 
ATOM      5  C   LIG    1        1.152  -2.089  -0.082  0.00  0.00    +0.194 A 
ATOM      6  N   LIG    1        2.133  -2.954  -0.154  0.00  0.00    -0.103 NA
ATOM      7  N   LIG    1        1.192  -0.714  -0.156  0.00  0.00    -0.325 N 
ATOM      8  C   LIG    1        2.464  -0.010  -0.340  0.00  0.00    +0.151 C 
ENDROOT
BRANCH   3   9
ATOM      9  C   LIG    1       -2.523  -0.114   0.246  0.00  0.00    -0.005 C 
ATOM     10  C   LIG    1       -2.579   0.837   1.443  0.00  0.00    +0.016 C 
ATOM     11  C   LIG    1       -3.514  -1.260   0.459  0.00  0.00    +0.016 C 
ATOM     12  C   LIG    1       -2.891   0.648  -1.028  0.00  0.00    +0.016 C 
ENDBRANCH   3   9
BRANCH   6  13
ATOM     13  S   LIG    1        1.818  -4.576  -0.043  0.00  0.00    +0.101 S 
ATOM     14  O   LIG    1        1.062  -4.922  -1.196  0.00  0.00    -0.146 OA
ATOM     15  O   LIG    1        1.344  -4.808   1.276  0.00  0.00    -0.146 OA
BRANCH  13  16
ATOM     16  C   LIG    1        3.360  -5.417  -0.181  0.00  0.00    +0.113 A 
ATOM     17  C   LIG    1        3.831  -5.797  -1.423  0.00  0.00    +0.029 A 
ATOM     18  C   LIG    1        5.041  -6.458  -1.531  0.00  0.00    +0.002 A 
ATOM     19  C   LIG    1        5.779  -6.737  -0.396  0.00  0.00    +0.000 A 
ATOM     20  C   LIG    1        5.308  -6.357   0.846  0.00  0.00    +0.002 A 
ATOM     21  C   LIG    1        4.100  -5.693   0.954  0.00  0.00    +0.029 A 
ENDBRANCH  13  16
ENDBRANCH   6  13
TORSDOF 3
