REMARK  Name = ZINC13517789
REMARK                            x       y       z     vdW  Elec       q    Type
REMARK                         _______ _______ _______ _____ _____    ______ ____
ROOT
ATOM      1  C   LIG    1       -2.555   3.867   0.046  0.00  0.00    +0.124 C 
ENDROOT
BRANCH   1   9
ATOM      2  C   LIG    1       -1.219   1.751   0.017  0.00  0.00    +0.006 A 
ATOM      3  C   LIG    1       -0.013   1.076   0.008  0.00  0.00    +0.022 A 
ATOM      4  C   LIG    1        1.176   1.784   0.000  0.00  0.00    +0.059 A 
ATOM      5 CL   LIG    1        2.691   0.937  -0.019  0.00  0.00    -0.082 Cl
ATOM      6  C   LIG    1        1.156   3.168   0.008  0.00  0.00    +0.060 A 
ATOM      7 CL   LIG    1        2.647   4.058  -0.003  0.00  0.00    -0.082 Cl
ATOM      8  C   LIG    1       -0.052   3.842   0.022  0.00  0.00    +0.026 A 
ATOM      9  C   LIG    1       -1.239   3.133   0.030  0.00  0.00    -0.029 A 
ENDBRANCH   1   9
BRANCH   1  10
ATOM     10  C   LIG    1       -3.363   3.493  -1.197  0.00  0.00    +0.010 C 
ATOM     11  C   LIG    1       -2.578   3.881  -2.452  0.00  0.00    +0.005 C 
ATOM     12  C   LIG    1       -3.387   3.506  -3.696  0.00  0.00    +0.000 C 
ATOM     13  C   LIG    1       -4.723   4.251  -3.679  0.00  0.00    +0.000 C 
ATOM     14  C   LIG    1       -5.508   3.863  -2.424  0.00  0.00    +0.000 C 
ATOM     15  C   LIG    1       -4.699   4.238  -1.181  0.00  0.00    +0.005 C 
ENDBRANCH   1  10
BRANCH   1  16
ATOM     16  C   LIG    1       -3.310   3.494   1.253  0.00  0.00    +0.071 C 
ATOM     17  N   LIG    1       -3.893   3.206   2.185  0.00  0.00    -0.196 NA
ENDBRANCH   1  16
TORSDOF 3
