REMARK  Name = ZINC13453751
REMARK                            x       y       z     vdW  Elec       q    Type
REMARK                         _______ _______ _______ _____ _____    ______ ____
ROOT
ATOM      1  C   LIG    1       -2.207   0.938  -1.076  0.00  0.00    +0.091 C 
ATOM      2 CL   LIG    1       -2.112  -0.859  -1.190  0.00  0.00    -0.121 Cl
ENDROOT
BRANCH   1   3
ATOM      3  C   LIG    1       -0.795   1.527  -1.120  0.00  0.00    -0.065 C 
BRANCH   3   4
ATOM      4  N   LIG    1       -0.025   1.014   0.027  0.00  0.00    +0.379 N 
ATOM      5  H   LIG    1       -0.476   1.316   0.899  0.00  0.00    -0.090 HD
ATOM      6  H   LIG    1        0.925   1.379   0.001  0.00  0.00    -0.090 HD
ATOM      7  H   LIG    1        0.002  -0.004   0.002  0.00  0.00    -0.090 HD
ENDBRANCH   3   4
ENDBRANCH   1   3
BRANCH   1   8
ATOM      8  C   LIG    1       -3.023   1.482  -2.250  0.00  0.00    +0.202 C 
BRANCH   8   9
ATOM      9  O   LIG    1       -2.333   1.217  -3.473  0.00  0.00    -0.301 OA
BRANCH   9  10
ATOM     10  N   LIG    1       -3.031   1.698  -4.666  0.00  0.00    -0.215 NA
ATOM     11  H   LIG    1       -3.963   1.315  -4.719  0.00  0.00    +0.150 HD
ATOM     12  H   LIG    1       -2.505   1.488  -5.501  0.00  0.00    +0.150 HD
ENDBRANCH   9  10
ENDBRANCH   8   9
ENDBRANCH   1   8
TORSDOF 5
