REMARK  Name = ZINC13234467
REMARK                            x       y       z     vdW  Elec       q    Type
REMARK                         _______ _______ _______ _____ _____    ______ ____
ROOT
ATOM      1  N   LIG    1        0.002  -0.004   0.002  0.00  0.00    -0.266 N 
ATOM      2  H   LIG    1        0.845  -0.477  -0.083  0.00  0.00    +0.157 HD
ATOM      3  C   LIG    1       -1.150  -0.694   0.111  0.00  0.00    +0.249 C 
ATOM      4  O   LIG    1       -2.213  -0.104   0.124  0.00  0.00    -0.270 OA
ENDROOT
BRANCH   1  10
ATOM      5  C   LIG    1       -2.582   4.028   0.066  0.00  0.00    +0.065 C 
ATOM      6  C   LIG    1       -1.238   3.347   0.042  0.00  0.00    +0.040 A 
ATOM      7  C   LIG    1       -0.087   4.110   0.032  0.00  0.00    +0.023 A 
ATOM      8  C   LIG    1        1.149   3.478   0.010  0.00  0.00    +0.005 A 
ATOM      9  C   LIG    1        1.182   2.094   0.005  0.00  0.00    +0.044 A 
ATOM     10  C   LIG    1       -0.017   1.389   0.012  0.00  0.00    +0.125 A 
ATOM     11  N   LIG    1       -1.175   2.029   0.032  0.00  0.00    -0.237 NA
ENDBRANCH   1  10
BRANCH   3  12
ATOM     12  C   LIG    1       -1.122  -2.168   0.214  0.00  0.00    +0.038 A 
ATOM     13  C   LIG    1       -2.314  -2.886   0.327  0.00  0.00    +0.013 A 
ATOM     14  C   LIG    1       -2.281  -4.262   0.423  0.00  0.00    +0.002 A 
ATOM     15  C   LIG    1       -1.070  -4.931   0.407  0.00  0.00    +0.014 A 
ATOM     16  C   LIG    1        0.116  -4.226   0.295  0.00  0.00    +0.014 A 
ATOM     17  I   LIG    1        1.943  -5.250   0.272  0.00  0.00    -0.044 I 
ATOM     18  C   LIG    1        0.096  -2.849   0.193  0.00  0.00    +0.027 A 
ENDBRANCH   3  12
TORSDOF 2
