REMARK  Name = ZINC13154390
REMARK                            x       y       z     vdW  Elec       q    Type
REMARK                         _______ _______ _______ _____ _____    ______ ____
ROOT
ATOM      1  C   LIG    1       -0.016  -4.278  -0.022  0.00  0.00    -0.003 C 
ATOM      2  C   LIG    1       -1.221  -4.862  -0.763  0.00  0.00    +0.015 C 
ATOM      3  C   LIG    1       -1.124  -6.389  -0.771  0.00  0.00    -0.009 C 
ATOM      4  C   LIG    1        0.165  -6.814  -1.478  0.00  0.00    +0.007 C 
ATOM      5  C   LIG    1        1.369  -6.230  -0.737  0.00  0.00    -0.009 C 
ATOM      6  C   LIG    1        1.383  -6.748   0.703  0.00  0.00    +0.019 C 
ATOM      7  C   LIG    1        0.095  -6.323   1.410  0.00  0.00    +0.048 C 
ATOM      8  C   LIG    1       -1.110  -6.907   0.669  0.00  0.00    +0.019 C 
ATOM      9  C   LIG    1       -0.003  -4.796   1.418  0.00  0.00    +0.027 C 
ATOM     10  C   LIG    1        1.272  -4.704  -0.729  0.00  0.00    +0.015 C 
ENDROOT
BRANCH   7  11
ATOM     11  C   LIG    1        0.108  -6.833   2.828  0.00  0.00    +0.222 C 
ATOM     12  N   LIG    1        0.025  -8.156   3.069  0.00  0.00    -0.299 N 
ATOM     13  C   LIG    1        0.035  -9.127   1.964  0.00  0.00    +0.123 C 
ATOM     14  C   LIG    1        1.098 -10.191   2.260  0.00  0.00    +0.103 C 
ATOM     15  N   LIG    1        0.854 -10.765   3.590  0.00  0.00    -0.302 NA
ATOM     16  C   LIG    1        1.744 -11.906   3.842  0.00  0.00    +0.105 C 
ATOM     17  C   LIG    1        0.988  -9.750   4.642  0.00  0.00    +0.103 C 
ATOM     18  C   LIG    1       -0.073  -8.668   4.444  0.00  0.00    +0.123 C 
ATOM     19  O   LIG    1        0.194  -6.052   3.752  0.00  0.00    -0.275 OA
ENDBRANCH   7  11
BRANCH   1  24
ATOM     20  C   LIG    1       -0.388   1.488   0.008  0.00  0.00    +0.044 C 
ATOM     21  C   LIG    1       -0.291  -0.016   0.000  0.00  0.00    -0.050 A 
ATOM     22  C   LIG    1       -0.230  -0.698  -1.200  0.00  0.00    +0.003 A 
ATOM     23  C   LIG    1       -0.141  -2.078  -1.208  0.00  0.00    +0.004 A 
ATOM     24  C   LIG    1       -0.113  -2.775  -0.014  0.00  0.00    -0.041 A 
ATOM     25  C   LIG    1       -0.173  -2.092   1.187  0.00  0.00    +0.004 A 
ATOM     26  C   LIG    1       -0.257  -0.712   1.194  0.00  0.00    +0.003 A 
ENDBRANCH   1  24
TORSDOF 2
