REMARK  Name = ZINC13530804
REMARK                            x       y       z     vdW  Elec       q    Type
REMARK                         _______ _______ _______ _____ _____    ______ ____
ROOT
ATOM      1  C   LIG    1        3.717  -0.713  -0.036  0.00  0.00    +0.207 C 
ENDROOT
BRANCH   1   2
ATOM      2  C   LIG    1        4.105  -0.632   1.441  0.00  0.00    +0.031 C 
ATOM      3  C   LIG    1        4.109   0.833   1.890  0.00  0.00    -0.012 C 
ATOM      4  C   LIG    1        4.556   0.912   3.351  0.00  0.00    -0.082 C 
ATOM      5  N   LIG    1        5.910   0.344   3.489  0.00  0.00    +0.379 N 
ATOM      6  H   LIG    1        6.557   0.859   2.880  0.00  0.00    -0.086 HD
ATOM      7  H   LIG    1        6.216   0.431   4.465  0.00  0.00    -0.086 HD
ATOM      8  C   LIG    1        5.912  -1.081   3.105  0.00  0.00    -0.082 C 
ATOM      9  C   LIG    1        5.505  -1.220   1.636  0.00  0.00    -0.012 C 
ENDBRANCH   1   2
BRANCH   1  13
ATOM     10  C   LIG    1       -0.188   0.930  -0.577  0.00  0.00    +0.000 A 
ATOM     11  C   LIG    1        0.916   1.761  -0.571  0.00  0.00    +0.000 A 
ATOM     12  C   LIG    1        2.180   1.230  -0.397  0.00  0.00    +0.007 A 
ATOM     13  C   LIG    1        2.340  -0.133  -0.227  0.00  0.00    -0.007 A 
ATOM     14  C   LIG    1        1.235  -0.964  -0.232  0.00  0.00    +0.007 A 
ATOM     15  C   LIG    1       -0.029  -0.432  -0.407  0.00  0.00    +0.000 A 
ENDBRANCH   1  13
BRANCH   1  16
ATOM     16  O   LIG    1        4.658   0.028  -0.817  0.00  0.00    -0.481 OA
BRANCH  16  17
ATOM     17  C   LIG    1        4.792  -0.328  -2.123  0.00  0.00    +0.156 A 
ATOM     18  C   LIG    1        3.957  -1.290  -2.670  0.00  0.00    +0.048 A 
ATOM     19  C   LIG    1        4.092  -1.646  -3.998  0.00  0.00    +0.004 A 
ATOM     20  C   LIG    1        5.066  -1.052  -4.780  0.00  0.00    +0.003 A 
ATOM     21  C   LIG    1        5.904  -0.096  -4.237  0.00  0.00    +0.042 A 
ATOM     22  C   LIG    1        5.770   0.269  -2.909  0.00  0.00    +0.165 A 
ATOM     23  F   LIG    1        6.589   1.202  -2.378  0.00  0.00    -0.202 F 
ENDBRANCH  16  17
ENDBRANCH   1  16
TORSDOF 4
