REMARK  Name = ZINC13531276
REMARK                            x       y       z     vdW  Elec       q    Type
REMARK                         _______ _______ _______ _____ _____    ______ ____
ROOT
ATOM      1  C   LIG    1        2.754  -0.666  -0.203  0.00  0.00    +0.112 C 
ATOM      2  C   LIG    1        4.240  -0.983  -0.002  0.00  0.00    +0.101 C 
ATOM      3  N   LIG    1        4.906  -0.935  -1.307  0.00  0.00    -0.297 NA
ATOM      4  C   LIG    1        6.366  -0.990  -1.156  0.00  0.00    +0.105 C 
ATOM      5  C   LIG    1        4.437  -1.967  -2.224  0.00  0.00    +0.091 C 
ATOM      6  C   LIG    1        4.891  -1.634  -3.651  0.00  0.00    +0.062 C 
ATOM      7  C   LIG    1        4.304  -2.637  -4.609  0.00  0.00    -0.006 A 
ATOM      8  C   LIG    1        3.072  -3.335  -4.261  0.00  0.00    +0.011 A 
ATOM      9  C   LIG    1        2.350  -3.176  -3.059  0.00  0.00    -0.011 A 
ATOM     10  C   LIG    1        1.207  -3.933  -2.947  0.00  0.00    +0.009 A 
ATOM     11  C   LIG    1        0.841  -4.790  -3.984  0.00  0.00    +0.003 A 
ATOM     12  C   LIG    1        1.564  -4.948  -5.160  0.00  0.00    +0.026 A 
ATOM     13  C   LIG    1        2.727  -4.193  -5.308  0.00  0.00    +0.048 A 
ATOM     14  N   LIG    1        3.707  -4.033  -6.242  0.00  0.00    -0.349 N 
ATOM     15  H   LIG    1        3.747  -4.505  -7.088  0.00  0.00    +0.166 HD
ATOM     16  C   LIG    1        4.639  -3.103  -5.809  0.00  0.00    +0.087 A 
ATOM     17 BR   LIG    1        6.168  -2.570  -6.786  0.00  0.00    -0.031 Br
ATOM     18  C   LIG    1        2.955  -2.213  -2.120  0.00  0.00    -0.025 C 
ATOM     19  C   LIG    1        2.192  -1.638  -1.205  0.00  0.00    -0.007 C 
ENDROOT
BRANCH   1  21
ATOM     20  N   LIG    1        0.827  -0.208   1.279  0.00  0.00    -0.301 N 
ATOM     21  C   LIG    1        2.023  -0.806   1.107  0.00  0.00    +0.224 C 
ATOM     22  O   LIG    1        2.510  -1.458   2.006  0.00  0.00    -0.275 OA
BRANCH  20  24
ATOM     23  C   LIG    1       -0.842  -1.428   2.585  0.00  0.00    +0.024 C 
ATOM     24  C   LIG    1        0.158  -0.270   2.580  0.00  0.00    +0.104 C 
ENDBRANCH  20  24
BRANCH  20  25
ATOM     25  C   LIG    1        0.197   0.503   0.164  0.00  0.00    +0.104 C 
ATOM     26  C   LIG    1        0.528   1.994   0.258  0.00  0.00    +0.024 C 
ENDBRANCH  20  25
ENDBRANCH   1  21
TORSDOF 3
