REMARK  Name = ZINC13492194
REMARK                            x       y       z     vdW  Elec       q    Type
REMARK                         _______ _______ _______ _____ _____    ______ ____
ROOT
ATOM      1  C   LIG    1       -0.018   3.871  -0.113  0.00  0.00    -0.058 A 
ATOM      2  C   LIG    1       -1.210   3.181   0.004  0.00  0.00    +0.002 A 
ATOM      3  C   LIG    1       -1.207   1.803   0.109  0.00  0.00    +0.004 A 
ATOM      4  C   LIG    1       -0.010   1.112   0.109  0.00  0.00    +0.046 A 
ATOM      5  C   LIG    1        1.188   1.802  -0.008  0.00  0.00    +0.133 A 
ATOM      6  C   LIG    1        1.181   3.185  -0.119  0.00  0.00    +0.048 A 
ENDROOT
BRANCH   1   8
ATOM      7  C   LIG    1       -0.351   5.767  -1.676  0.00  0.00    -0.008 C 
ATOM      8  C   LIG    1       -0.026   5.373  -0.234  0.00  0.00    -0.041 C 
BRANCH   8   9
ATOM      9  N   LIG    1       -1.068   5.922   0.660  0.00  0.00    +0.380 N 
ATOM     10  H   LIG    1       -1.984   5.564   0.363  0.00  0.00    -0.082 HD
ATOM     11  C   LIG    1       -1.079   7.397   0.577  0.00  0.00    -0.096 C 
ATOM     12  C   LIG    1       -0.815   5.496   2.052  0.00  0.00    -0.096 C 
ENDBRANCH   8   9
ENDBRANCH   1   8
BRANCH   5  13
ATOM     13  O   LIG    1        2.366   1.124  -0.015  0.00  0.00    -0.411 OA
BRANCH  13  14
ATOM     14  C   LIG    1        3.157   1.264   1.066  0.00  0.00    +0.408 C 
ATOM     15  N   LIG    1        4.389   0.718   1.074  0.00  0.00    -0.273 N 
ATOM     16  C   LIG    1        4.868  -0.028  -0.092  0.00  0.00    +0.135 C 
ATOM     17  C   LIG    1        5.250   0.869   2.250  0.00  0.00    +0.135 C 
ATOM     18  O   LIG    1        2.760   1.882   2.034  0.00  0.00    -0.226 OA
ENDBRANCH  13  14
ENDBRANCH   5  13
TORSDOF 4
