REMARK  Name = ZINC13470225
REMARK                            x       y       z     vdW  Elec       q    Type
REMARK                         _______ _______ _______ _____ _____    ______ ____
ROOT
ATOM      1  C   LIG    1        1.652   1.065   0.290  0.00  0.00    +0.110 C 
ENDROOT
BRANCH   1   2
ATOM      2  C   LIG    1        2.180   0.745  -1.085  0.00  0.00    +0.308 C 
ATOM      3  O   LIG    1        3.148   1.344  -1.521  0.00  0.00    -0.251 OA
BRANCH   2   4
ATOM      4  O   LIG    1        1.639  -0.114  -1.761  0.00  0.00    -0.480 OA
ATOM      5  H   LIG    1        0.895  -0.574  -1.426  0.00  0.00    +0.295 HD
ENDBRANCH   2   4
ENDBRANCH   1   2
BRANCH   1   6
ATOM      6  C   LIG    1        1.070   2.480   0.296  0.00  0.00    +0.026 C 
BRANCH   6   7
ATOM      7  C   LIG    1        0.405   2.752   1.647  0.00  0.00    +0.121 C 
BRANCH   7   8
ATOM      8  C   LIG    1       -0.172   4.144   1.651  0.00  0.00    +0.305 C 
ATOM      9  O   LIG    1       -0.061   4.853   0.665  0.00  0.00    -0.251 OA
BRANCH   8  10
ATOM     10  O   LIG    1       -0.749   4.562   2.640  0.00  0.00    -0.481 OA
ATOM     11  H   LIG    1       -0.834   4.017   3.398  0.00  0.00    +0.295 HD
ENDBRANCH   8  10
ENDBRANCH   7   8
ENDBRANCH   6   7
ENDBRANCH   1   6
BRANCH   1  12
ATOM     12  C   LIG    1        2.791   0.978   1.307  0.00  0.00    +0.141 C 
BRANCH  12  13
ATOM     13  P   LIG    1        3.186  -0.773   1.629  0.00  0.00    +0.329 P 
ATOM     14  O   LIG    1        1.906  -1.516   2.072  0.00  0.00    -0.259 OA
BRANCH  13  15
ATOM     15  O   LIG    1        4.293  -0.868   2.794  0.00  0.00    -0.324 OA
ATOM     16  H   LIG    1        4.551  -1.773   3.018  0.00  0.00    +0.220 HD
ENDBRANCH  13  15
BRANCH  13  17
ATOM     17  O   LIG    1        3.738  -1.422   0.340  0.00  0.00    -0.324 OA
ATOM     18  H   LIG    1        3.071  -1.364  -0.362  0.00  0.00    +0.220 HD
ENDBRANCH  13  17
ENDBRANCH  12  13
ENDBRANCH   1  12
TORSDOF 10
