REMARK  Name = ZINC13520504
REMARK                            x       y       z     vdW  Elec       q    Type
REMARK                         _______ _______ _______ _____ _____    ______ ____
ROOT
ATOM      1  C   LIG    1        4.866  -2.780   0.214  0.00  0.00    -0.038 C 
ENDROOT
BRANCH   1   9
ATOM      2  C   LIG    1       -0.017   1.376   0.010  0.00  0.00    +0.000 A 
ATOM      3  C   LIG    1        1.173   2.080   0.002  0.00  0.00    +0.000 A 
ATOM      4  C   LIG    1        2.375   1.401  -0.015  0.00  0.00    +0.002 A 
ATOM      5  C   LIG    1        2.395   0.014  -0.023  0.00  0.00    -0.061 A 
ATOM      6  C   LIG    1        1.208  -0.687  -0.013  0.00  0.00    -0.048 A 
ATOM      7  C   LIG    1        1.186  -2.194  -0.014  0.00  0.00    +0.017 C 
ATOM      8  C   LIG    1        2.554  -2.732  -0.434  0.00  0.00    -0.073 C 
ATOM      9  N   LIG    1        3.587  -2.079   0.386  0.00  0.00    +0.385 N 
ATOM     10  H   LIG    1        3.313  -2.106   1.357  0.00  0.00    -0.081 HD
ATOM     11  C   LIG    1        3.728  -0.686  -0.046  0.00  0.00    -0.042 C 
ATOM     12  C   LIG    1        0.002  -0.004   0.002  0.00  0.00    +0.004 A 
ENDBRANCH   1   9
BRANCH   1  13
ATOM     13  C   LIG    1        5.892  -2.188   1.146  0.00  0.00    -0.006 A 
ATOM     14  C   LIG    1        6.819  -1.272   0.686  0.00  0.00    +0.119 A 
ATOM     15  N   LIG    1        7.707  -0.770   1.531  0.00  0.00    -0.223 NA
ATOM     16  C   LIG    1        7.718  -1.134   2.805  0.00  0.00    +0.214 A 
ATOM     17  N   LIG    1        6.847  -2.009   3.285  0.00  0.00    -0.200 NA
ATOM     18  C   LIG    1        5.924  -2.548   2.494  0.00  0.00    +0.123 A 
BRANCH  16  19
ATOM     19  N   LIG    1        8.662  -0.586   3.655  0.00  0.00    -0.327 N 
ATOM     20  H   LIG    1        8.680  -0.844   4.590  0.00  0.00    +0.145 HD
ATOM     21  H   LIG    1        9.306   0.056   3.317  0.00  0.00    +0.145 HD
ENDBRANCH  16  19
BRANCH  18  22
ATOM     22  N   LIG    1        5.011  -3.459   3.000  0.00  0.00    -0.343 N 
ATOM     23  H   LIG    1        5.039  -3.704   3.938  0.00  0.00    +0.144 HD
ATOM     24  H   LIG    1        4.343  -3.851   2.416  0.00  0.00    +0.144 HD
ENDBRANCH  18  22
ENDBRANCH   1  13
TORSDOF 4
