REMARK  Name = ZINC13516897
REMARK                            x       y       z     vdW  Elec       q    Type
REMARK                         _______ _______ _______ _____ _____    ______ ____
ROOT
ATOM      1  C   LIG    1        3.740   1.710  -0.025  0.00  0.00    +0.034 A 
ATOM      2  C   LIG    1        4.452   0.572  -0.039  0.00  0.00    +0.085 A 
ATOM      3  N   LIG    1        3.604  -0.507  -0.037  0.00  0.00    -0.347 N 
ATOM      4  C   LIG    1        2.305  -0.082  -0.021  0.00  0.00    +0.125 A 
ATOM      5  N   LIG    1        1.125  -0.699  -0.013  0.00  0.00    -0.292 N 
ATOM      6  H   LIG    1        1.079  -1.798  -0.019  0.00  0.00    +0.172 HD
ATOM      7  C   LIG    1        0.002  -0.004   0.002  0.00  0.00    +0.350 A 
ATOM      8  O   LIG    1       -1.177  -0.672   0.010  0.00  0.00    -0.245 OA
ATOM      9  N   LIG    1       -0.016   1.322   0.009  0.00  0.00    -0.157 NA
ATOM     10  C   LIG    1        1.112   2.021   0.002  0.00  0.00    +0.228 A 
ATOM     11  H   LIG    1        4.014  -1.528  -0.047  0.00  0.00    +0.167 HD
ATOM     12  C   LIG    1        2.329   1.326  -0.013  0.00  0.00    +0.078 A 
ENDROOT
BRANCH  10  13
ATOM     13  O   LIG    1        1.088   3.375   0.009  0.00  0.00    -0.492 OA
ATOM     14  H   LIG    1        1.891   3.858   0.004  0.00  0.00    +0.294 HD
ENDBRANCH  10  13
TORSDOF 1
