REMARK  Name = ZINC13436496
REMARK                            x       y       z     vdW  Elec       q    Type
REMARK                         _______ _______ _______ _____ _____    ______ ____
ROOT
ATOM      1  N   LIG    1        3.574   1.989  -0.022  0.00  0.00    -0.053 NA
ATOM      2  C   LIG    1        4.117   2.381   1.109  0.00  0.00    +0.384 C 
ENDROOT
BRANCH   1   5
ATOM      3  C   LIG    1       -0.027   1.434  -0.005  0.00  0.00    +0.026 A 
ATOM      4  C   LIG    1        1.186   2.096  -0.013  0.00  0.00    +0.068 A 
ATOM      5  C   LIG    1        2.367   1.349  -0.015  0.00  0.00    +0.232 A 
ATOM      6  N   LIG    1        2.325   0.021  -0.009  0.00  0.00    -0.220 NA
ATOM      7  C   LIG    1        1.180  -0.633  -0.003  0.00  0.00    +0.134 A 
ATOM      8  C   LIG    1       -0.025   0.044  -0.000  0.00  0.00    +0.059 A 
ATOM      9 CL   LIG    1       -1.522  -0.834   0.009  0.00  0.00    -0.082 Cl
ENDBRANCH   1   5
BRANCH   2  10
ATOM     10  N   LIG    1        5.270   3.123   1.095  0.00  0.00    -0.289 N 
ATOM     11  H   LIG    1        5.671   3.412   1.930  0.00  0.00    +0.255 HD
ATOM     12  H   LIG    1        5.685   3.358   0.251  0.00  0.00    +0.255 HD
ENDBRANCH   2  10
BRANCH   2  13
ATOM     13  N   LIG    1        3.530   2.049   2.303  0.00  0.00    -0.289 N 
ATOM     14  H   LIG    1        3.887   2.401   3.133  0.00  0.00    +0.255 HD
ATOM     15  H   LIG    1        2.759   1.461   2.317  0.00  0.00    +0.255 HD
ENDBRANCH   2  13
TORSDOF 3
