REMARK  Name = ZINC13520504
REMARK                            x       y       z     vdW  Elec       q    Type
REMARK                         _______ _______ _______ _____ _____    ______ ____
ROOT
ATOM      1  C   LIG    1        5.892  -2.188   1.146  0.00  0.00    +0.018 C 
ATOM      2  C   LIG    1        6.819  -1.272   0.686  0.00  0.00    +0.088 C 
ATOM      3  N   LIG    1        7.707  -0.770   1.531  0.00  0.00    -0.289 NA
ATOM      4  H   LIG    1        8.360  -0.127   1.212  0.00  0.00    +0.125 HD
ATOM      5  C   LIG    1        7.718  -1.134   2.805  0.00  0.00    +0.192 C 
ATOM      6  N   LIG    1        6.847  -2.009   3.284  0.00  0.00    -0.274 NA
ATOM      7  H   LIG    1        6.347  -1.539   4.039  0.00  0.00    +0.126 HD
ATOM      8  C   LIG    1        5.924  -2.548   2.494  0.00  0.00    +0.124 C 
ENDROOT
BRANCH   5   9
ATOM      9  N   LIG    1        8.662  -0.587   3.655  0.00  0.00    -0.303 NA
ATOM     10  H   LIG    1        8.681  -0.845   4.590  0.00  0.00    +0.121 HD
ATOM     11  H   LIG    1        9.306   0.055   3.316  0.00  0.00    +0.121 HD
ENDBRANCH   5   9
BRANCH   8  12
ATOM     12  N   LIG    1        5.011  -3.459   3.000  0.00  0.00    -0.315 NA
ATOM     13  H   LIG    1        5.039  -3.704   3.938  0.00  0.00    +0.120 HD
ATOM     14  H   LIG    1        4.343  -3.851   2.416  0.00  0.00    +0.120 HD
ENDBRANCH   8  12
BRANCH   1  15
ATOM     15  C   LIG    1        4.866  -2.780   0.214  0.00  0.00    -0.071 C 
BRANCH  15  23
ATOM     16  C   LIG    1       -0.017   1.376   0.010  0.00  0.00    +0.000 A 
ATOM     17  C   LIG    1        1.173   2.080   0.002  0.00  0.00    +0.000 A 
ATOM     18  C   LIG    1        2.375   1.401  -0.015  0.00  0.00    +0.002 A 
ATOM     19  C   LIG    1        2.395   0.014  -0.023  0.00  0.00    -0.061 A 
ATOM     20  C   LIG    1        1.208  -0.687  -0.013  0.00  0.00    -0.048 A 
ATOM     21  C   LIG    1        1.186  -2.194  -0.014  0.00  0.00    +0.017 C 
ATOM     22  C   LIG    1        2.554  -2.732  -0.434  0.00  0.00    -0.074 C 
ATOM     23  N   LIG    1        3.587  -2.079   0.386  0.00  0.00    +0.383 N 
ATOM     24  H   LIG    1        3.313  -2.106   1.357  0.00  0.00    -0.081 HD
ATOM     25  C   LIG    1        3.728  -0.686  -0.046  0.00  0.00    -0.043 C 
ATOM     26  C   LIG    1        0.002  -0.004   0.002  0.00  0.00    +0.004 A 
ENDBRANCH  15  23
ENDBRANCH   1  15
TORSDOF 4
