REMARK  Name = ZINC13488369
REMARK                            x       y       z     vdW  Elec       q    Type
REMARK                         _______ _______ _______ _____ _____    ______ ____
ROOT
ATOM      1  N   LIG    1       -0.124   4.536   0.121  0.00  0.00    -0.246 N 
ATOM      2  H   LIG    1        0.739   4.755  -0.263  0.00  0.00    +0.265 HD
ENDROOT
BRANCH   1   5
ATOM      3  C   LIG    1        0.108   0.925   0.777  0.00  0.00    +0.005 A 
ATOM      4  C   LIG    1        0.473   2.246   0.602  0.00  0.00    +0.042 A 
ATOM      5  C   LIG    1       -0.491   3.198   0.299  0.00  0.00    +0.101 A 
ATOM      6  C   LIG    1       -1.821   2.819   0.172  0.00  0.00    +0.062 A 
ATOM      7  C   LIG    1       -2.180   1.495   0.344  0.00  0.00    +0.044 A 
ATOM      8 CL   LIG    1       -3.841   1.018   0.179  0.00  0.00    -0.083 Cl
ATOM      9  C   LIG    1       -1.216   0.550   0.651  0.00  0.00    +0.020 A 
ENDBRANCH   1   5
BRANCH   1  10
ATOM     10  C   LIG    1       -0.987   5.542   0.492  0.00  0.00    +0.346 C 
ATOM     11  N   LIG    1       -2.100   5.182   1.115  0.00  0.00    -0.292 N 
ATOM     12  H   LIG    1       -2.287   4.189   1.300  0.00  0.00    +0.255 HD
ATOM     13  H   LIG    1       -2.772   5.891   1.410  0.00  0.00    +0.255 HD
BRANCH  10  14
ATOM     14  N   LIG    1       -0.677   6.852   0.213  0.00  0.00    -0.292 N 
ATOM     15  H   LIG    1       -1.285   7.561   0.474  0.00  0.00    +0.255 HD
ATOM     16  H   LIG    1        0.150   7.067  -0.246  0.00  0.00    +0.255 HD
ENDBRANCH  10  14
ENDBRANCH   1  10
TORSDOF 3
