REMARK  Name = ZINC13493582
REMARK                            x       y       z     vdW  Elec       q    Type
REMARK                         _______ _______ _______ _____ _____    ______ ____
ROOT
ATOM      1  C   LIG    1       -0.624   2.878  -1.846  0.00  0.00    +0.133 C 
ATOM      2  N   LIG    1       -0.882   1.568  -1.243  0.00  0.00    -0.288 N 
ATOM      3  C   LIG    1       -1.674   0.679  -1.875  0.00  0.00    +0.263 C 
ATOM      4  O   LIG    1       -1.979  -0.363  -1.325  0.00  0.00    -0.268 OA
ENDROOT
BRANCH   3   5
ATOM      5  C   LIG    1       -2.168   0.968  -3.226  0.00  0.00    +0.102 A 
ATOM      6  C   LIG    1       -3.095   0.228  -3.930  0.00  0.00    +0.032 A 
ATOM      7  C   LIG    1       -3.273   0.861  -5.164  0.00  0.00    +0.020 A 
ATOM      8  C   LIG    1       -2.463   1.946  -5.195  0.00  0.00    +0.083 A 
ATOM      9  N   LIG    1       -1.786   2.022  -4.024  0.00  0.00    -0.357 N 
ATOM     10  H   LIG    1       -1.140   2.706  -3.787  0.00  0.00    +0.165 HD
ENDBRANCH   3   5
BRANCH   2  11
ATOM     11  C   LIG    1       -0.278   1.224   0.047  0.00  0.00    +0.196 C 
BRANCH  11  12
ATOM     12  C   LIG    1       -1.183   1.628   1.135  0.00  0.00    -0.086 C 
ATOM     13  C   LIG    1       -1.905   1.950   2.003  0.00  0.00    +0.005 C 
ENDBRANCH  11  12
ENDBRANCH   2  11
TORSDOF 3
