REMARK  Name = ZINC13282257
REMARK                            x       y       z     vdW  Elec       q    Type
REMARK                         _______ _______ _______ _____ _____    ______ ____
ROOT
ATOM      1  C   LIG    1       -0.043   1.256   2.593  0.00  0.00    +0.056 A 
ATOM      2  C   LIG    1        1.025   2.047   3.012  0.00  0.00    +0.043 A 
ATOM      3  C   LIG    1        1.856   1.557   4.036  0.00  0.00    +0.129 A 
ATOM      4  N   LIG    1        1.592   0.366   4.561  0.00  0.00    -0.199 NA
ATOM      5  C   LIG    1        0.565  -0.351   4.131  0.00  0.00    +0.214 A 
ATOM      6  N   LIG    1       -0.240   0.083   3.172  0.00  0.00    -0.219 NA
ENDROOT
BRANCH   2   7
ATOM      7  C   LIG    1        1.278   3.371   2.395  0.00  0.00    -0.013 A 
ATOM      8  C   LIG    1        1.710   3.456   1.072  0.00  0.00    +0.008 A 
ATOM      9  C   LIG    1        1.940   4.691   0.501  0.00  0.00    +0.001 A 
ATOM     10  C   LIG    1        1.753   5.844   1.242  0.00  0.00    +0.000 A 
ATOM     11  C   LIG    1        1.329   5.766   2.557  0.00  0.00    +0.001 A 
ATOM     12  C   LIG    1        1.091   4.537   3.137  0.00  0.00    +0.008 A 
ENDBRANCH   2   7
BRANCH   3  13
ATOM     13  N   LIG    1        2.929   2.303   4.489  0.00  0.00    -0.343 N 
ATOM     14  H   LIG    1        3.497   1.957   5.195  0.00  0.00    +0.144 HD
ATOM     15  H   LIG    1        3.114   3.172   4.100  0.00  0.00    +0.144 HD
ENDBRANCH   3  13
BRANCH   5  16
ATOM     16  N   LIG    1        0.323  -1.587   4.703  0.00  0.00    -0.327 N 
ATOM     17  H   LIG    1       -0.425  -2.124   4.398  0.00  0.00    +0.145 HD
ATOM     18  H   LIG    1        0.901  -1.917   5.409  0.00  0.00    +0.145 HD
ENDBRANCH   5  16
BRANCH   1  20
ATOM     19  C   LIG    1       -2.103   2.549   2.113  0.00  0.00    +0.010 C 
ATOM     20  C   LIG    1       -0.964   1.733   1.500  0.00  0.00    +0.053 C 
ENDBRANCH   1  20
TORSDOF 4
