REMARK  Name = ZINC13531739
REMARK                            x       y       z     vdW  Elec       q    Type
REMARK                         _______ _______ _______ _____ _____    ______ ____
ROOT
ATOM      1  C   LIG    1        3.657   2.161  -0.022  0.00  0.00    +0.138 A 
ATOM      2  N   LIG    1        3.781   3.519  -0.011  0.00  0.00    -0.344 N 
ATOM      3  C   LIG    1        5.121   3.799  -0.024  0.00  0.00    +0.107 A 
ATOM      4  C   LIG    1        5.771   2.618  -0.042  0.00  0.00    +0.058 A 
ATOM      5  H   LIG    1        3.057   4.165   0.004  0.00  0.00    +0.167 HD
ATOM      6  N   LIG    1        4.862   1.636  -0.036  0.00  0.00    -0.233 NA
ENDROOT
BRANCH   1   9
ATOM      7  C   LIG    1       -0.017   1.379   0.010  0.00  0.00    +0.001 A 
ATOM      8  C   LIG    1        1.167   2.088   0.002  0.00  0.00    +0.011 A 
ATOM      9  C   LIG    1        2.385   1.407  -0.013  0.00  0.00    +0.018 A 
ATOM     10  C   LIG    1        2.397   0.012  -0.021  0.00  0.00    +0.024 A 
ATOM     11  C   LIG    1        1.206  -0.685  -0.013  0.00  0.00    +0.055 A 
ATOM     12  C   LIG    1        0.002  -0.004   0.002  0.00  0.00    +0.012 A 
BRANCH  11  13
ATOM     13  C   LIG    1        1.217  -2.192  -0.022  0.00  0.00    +0.417 C 
ATOM     14  F   LIG    1        2.357  -2.647  -0.695  0.00  0.00    -0.166 F 
ATOM     15  F   LIG    1        0.072  -2.663  -0.673  0.00  0.00    -0.166 F 
ATOM     16  F   LIG    1        1.234  -2.666   1.294  0.00  0.00    -0.166 F 
ENDBRANCH  11  13
ENDBRANCH   1   9
BRANCH   4  17
ATOM     17  C   LIG    1        7.267   2.435  -0.061  0.00  0.00    +0.037 C 
BRANCH  17  18
ATOM     18  C   LIG    1        7.686   1.541   1.107  0.00  0.00    -0.080 C 
BRANCH  18  19
ATOM     19  N   LIG    1        9.145   1.363   1.088  0.00  0.00    +0.378 N 
ATOM     20  H   LIG    1        9.419   0.931   0.219  0.00  0.00    -0.090 HD
ATOM     21  H   LIG    1        9.421   0.773   1.859  0.00  0.00    -0.090 HD
ATOM     22  H   LIG    1        9.595   2.262   1.174  0.00  0.00    -0.090 HD
ENDBRANCH  18  19
ENDBRANCH  17  18
ENDBRANCH   4  17
TORSDOF 5
