REMARK  Name = ZINC13520815
REMARK                            x       y       z     vdW  Elec       q    Type
REMARK                         _______ _______ _______ _____ _____    ______ ____
ROOT
ATOM      1  C   LIG    1       -0.019   1.526   0.010  0.00  0.00    +0.014 C 
ATOM      2  C   LIG    1        0.002  -0.004   0.002  0.00  0.00    -0.003 C 
ATOM      3  C   LIG    1       -1.414  -0.542   0.049  0.00  0.00    +0.010 C 
ATOM      4  C   LIG    1       -2.097   0.044   1.299  0.00  0.00    +0.009 C 
ATOM      5  C   LIG    1       -1.312  -0.307   2.554  0.00  0.00    +0.023 C 
ATOM      6  C   LIG    1       -1.942   0.265   3.790  0.00  0.00    -0.041 A 
ATOM      7  C   LIG    1       -3.327   0.348   3.844  0.00  0.00    +0.008 A 
ATOM      8  C   LIG    1       -3.958   0.857   4.960  0.00  0.00    +0.046 A 
ATOM      9  C   LIG    1       -3.200   1.288   6.040  0.00  0.00    +0.117 A 
ATOM     10  C   LIG    1       -1.820   1.209   5.984  0.00  0.00    +0.049 A 
ATOM     11  C   LIG    1       -1.186   0.701   4.858  0.00  0.00    -0.040 A 
ATOM     12  C   LIG    1        0.320   0.667   4.860  0.00  0.00    +0.036 C 
ATOM     13  C   LIG    1        0.856  -0.233   3.748  0.00  0.00    +0.009 C 
ATOM     14  C   LIG    1        0.145   0.163   2.454  0.00  0.00    +0.000 C 
ATOM     15  C   LIG    1        0.899  -0.511  -1.132  0.00  0.00    +0.121 C 
ATOM     16  C   LIG    1        2.330  -0.245  -0.587  0.00  0.00    +0.032 C 
ATOM     17  C   LIG    1        2.209  -0.205   0.957  0.00  0.00    +0.007 C 
ATOM     18  C   LIG    1        0.751  -0.534   1.256  0.00  0.00    +0.001 C 
ENDROOT
BRANCH   9  19
ATOM     19  O   LIG    1       -3.811   1.787   7.146  0.00  0.00    -0.507 OA
ATOM     20  H   LIG    1       -4.021   1.120   7.814  0.00  0.00    +0.292 HD
ENDBRANCH   9  19
BRANCH  15  21
ATOM     21  O   LIG    1        0.668   0.233  -2.330  0.00  0.00    -0.391 OA
ATOM     22  H   LIG    1        1.212  -0.049  -3.079  0.00  0.00    +0.210 HD
ENDBRANCH  15  21
TORSDOF 2
