REMARK  Name = ZINC13143019
REMARK                            x       y       z     vdW  Elec       q    Type
REMARK                         _______ _______ _______ _____ _____    ______ ____
ROOT
ATOM      1  C   LIG    1       -0.016   1.358   0.009  0.00  0.00    +0.001 A 
ATOM      2  C   LIG    1        1.168   2.090   0.002  0.00  0.00    +0.001 A 
ATOM      3  C   LIG    1        2.377   1.463  -0.013  0.00  0.00    +0.012 A 
ATOM      4  C   LIG    1        2.434   0.061  -0.021  0.00  0.00    +0.025 A 
ATOM      5  C   LIG    1        1.230  -0.684  -0.013  0.00  0.00    -0.014 A 
ATOM      6  C   LIG    1        1.277  -2.093  -0.022  0.00  0.00    +0.009 A 
ATOM      7  C   LIG    1        2.470  -2.738  -0.039  0.00  0.00    +0.016 A 
ATOM      8  C   LIG    1        3.675  -2.016  -0.046  0.00  0.00    +0.065 A 
ATOM      9  C   LIG    1        4.976  -2.712  -0.064  0.00  0.00    +0.193 A 
ATOM     10  O   LIG    1        5.042  -3.930  -0.072  0.00  0.00    -0.287 OA
ATOM     11  C   LIG    1        6.143  -1.913  -0.071  0.00  0.00    +0.098 A 
ATOM     12  C   LIG    1        6.025  -0.558  -0.062  0.00  0.00    +0.141 A 
ATOM     13  O   LIG    1        4.833   0.058  -0.046  0.00  0.00    -0.454 OA
ATOM     14  C   LIG    1        3.670  -0.620  -0.038  0.00  0.00    +0.147 A 
ATOM     15  C   LIG    1        0.002  -0.004   0.002  0.00  0.00    +0.008 A 
ENDROOT
BRANCH  12  16
ATOM     16  C   LIG    1        7.252   0.264  -0.071  0.00  0.00    +0.035 A 
ATOM     17  C   LIG    1        7.173   1.663  -0.057  0.00  0.00    +0.014 A 
ATOM     18  C   LIG    1        8.352   2.386  -0.065  0.00  0.00    +0.020 A 
ATOM     19  C   LIG    1        9.560   1.712  -0.087  0.00  0.00    +0.111 A 
ATOM     20  N   LIG    1        9.604   0.394  -0.100  0.00  0.00    -0.263 NA
ATOM     21  C   LIG    1        8.511  -0.340  -0.088  0.00  0.00    +0.122 A 
ENDBRANCH  12  16
TORSDOF 1
