REMARK  Name = ZINC13135445
REMARK                            x       y       z     vdW  Elec       q    Type
REMARK                         _______ _______ _______ _____ _____    ______ ____
ROOT
ATOM      1  C   LIG    1        0.742   2.235   0.510  0.00  0.00    +0.001 A 
ATOM      2  C   LIG    1        1.998   1.699   0.279  0.00  0.00    +0.004 A 
ATOM      3  C   LIG    1        2.156   0.348   0.045  0.00  0.00    +0.046 A 
ATOM      4  C   LIG    1        1.049  -0.494   0.039  0.00  0.00    +0.132 A 
ATOM      5  C   LIG    1       -0.218   0.051   0.282  0.00  0.00    +0.064 A 
ATOM      6  C   LIG    1       -1.400  -0.848   0.298  0.00  0.00    +0.196 C 
ATOM      7  C   LIG    1       -1.125  -2.241  -0.122  0.00  0.00    +0.038 C 
ATOM      8  C   LIG    1        0.256  -2.756   0.248  0.00  0.00    +0.268 C 
ATOM      9  C   LIG    1       -2.032  -2.996  -0.782  0.00  0.00    +0.018 C 
ATOM     10  O   LIG    1       -2.509  -0.470   0.631  0.00  0.00    -0.287 OA
ATOM     11  O   LIG    1        1.225  -1.813  -0.211  0.00  0.00    -0.487 OA
ATOM     12  C   LIG    1       -0.368   1.416   0.515  0.00  0.00    +0.015 A 
ENDROOT
BRANCH   9  13
ATOM     13  C   LIG    1       -1.768  -4.422  -1.018  0.00  0.00    -0.021 A 
ATOM     14  C   LIG    1       -1.051  -5.169  -0.076  0.00  0.00    +0.012 A 
ATOM     15  C   LIG    1       -0.805  -6.506  -0.300  0.00  0.00    +0.050 A 
ATOM     16  C   LIG    1       -1.267  -7.115  -1.460  0.00  0.00    +0.158 A 
ATOM     17  C   LIG    1       -1.982  -6.378  -2.404  0.00  0.00    +0.159 A 
ATOM     18  C   LIG    1       -2.237  -5.039  -2.185  0.00  0.00    +0.057 A 
BRANCH  16  19
ATOM     19  O   LIG    1       -1.022  -8.434  -1.675  0.00  0.00    -0.503 OA
ATOM     20  H   LIG    1       -1.706  -9.023  -1.328  0.00  0.00    +0.292 HD
ENDBRANCH  16  19
BRANCH  17  21
ATOM     21  O   LIG    1       -2.431  -6.979  -3.537  0.00  0.00    -0.503 OA
ATOM     22  H   LIG    1       -3.316  -7.361  -3.456  0.00  0.00    +0.292 HD
ENDBRANCH  17  21
ENDBRANCH   9  13
TORSDOF 3
