REMARK  Name = ZINC13472439
REMARK                            x       y       z     vdW  Elec       q    Type
REMARK                         _______ _______ _______ _____ _____    ______ ____
ROOT
ATOM      1  CA  CYS A  1       -2.160   2.044   1.014  0.00  0.00    +0.049 C 
ENDROOT
BRANCH   1   2
ATOM      2  N   CYS A  1       -0.701   2.002   1.228  0.00  0.00    +0.390 N 
ATOM      3  H1  CYS A  1       -0.491   1.365   2.006  0.00  0.00    -0.084 HD
ATOM      4  H2  CYS A  1       -0.366   2.945   1.458  0.00  0.00    -0.084 HD
BRANCH   2   6
ATOM      5  C   UNK A  0        0.002  -0.004   0.002  0.00  0.00    -0.014 C 
ATOM      6  C   UNK A  0       -0.019   1.526   0.010  0.00  0.00    -0.077 C 
ATOM      7  C   UNK A  0        1.417   2.055  -0.000  0.00  0.00    -0.014 C 
ENDBRANCH   2   6
ENDBRANCH   1   2
BRANCH   1   8
ATOM      8  C   CYS A  1       -2.537   3.351   0.366  0.00  0.00    +0.291 C 
ATOM      9  O   CYS A  1       -1.682   4.163   0.102  0.00  0.00    -0.253 OA
BRANCH   8  10
ATOM     10  OXT CYS A  1       -3.822   3.614   0.082  0.00  0.00    -0.482 OA
ATOM     11  HXT CYS A  1       -4.485   2.984   0.288  0.00  0.00    +0.295 HD
ENDBRANCH   8  10
ENDBRANCH   1   8
BRANCH   1  12
ATOM     12  CB  CYS A  1       -2.869   1.921   2.365  0.00  0.00    +0.061 C 
BRANCH  12  13
ATOM     13  SG  CYS A  1       -2.416   0.348   3.145  0.00  0.00    -0.179 S 
ATOM     14  HG  CYS A  1       -3.091   0.355   4.308  0.00  0.00    +0.102 HD
ENDBRANCH  12  13
ENDBRANCH   1  12
TORSDOF 6
