REMARK  Name = ZINC13529638
REMARK                            x       y       z     vdW  Elec       q    Type
REMARK                         _______ _______ _______ _____ _____    ______ ____
ROOT
ATOM      1  C   LIG    1       10.197  -2.234  -2.420  0.00  0.00    -0.019 C 
ATOM      2  C   LIG    1       11.202  -1.095  -2.117  0.00  0.00    +0.003 C 
ATOM      3  C   LIG    1       10.402   0.233  -2.213  0.00  0.00    +0.004 C 
ATOM      4  C   LIG    1        8.961  -0.216  -1.946  0.00  0.00    -0.001 C 
ATOM      5  C   LIG    1        7.873   0.698  -2.477  0.00  0.00    -0.004 C 
ATOM      6  C   LIG    1        7.932   2.057  -1.778  0.00  0.00    +0.005 C 
ATOM      7  C   LIG    1        6.794   2.942  -2.289  0.00  0.00    +0.012 C 
ATOM      8  C   LIG    1        5.450   2.276  -1.984  0.00  0.00    +0.068 C 
ATOM      9  C   LIG    1        5.389   0.911  -2.685  0.00  0.00    -0.016 C 
ATOM     10  C   LIG    1        5.535   1.102  -4.196  0.00  0.00    +0.012 C 
ATOM     11  C   LIG    1        4.047   0.251  -2.366  0.00  0.00    +0.036 C 
ATOM     12  C   LIG    1        2.902   1.164  -2.685  0.00  0.00    +0.000 C 
ATOM     13  C   LIG    1        3.030   2.488  -2.778  0.00  0.00    +0.073 C 
ATOM     14  C   LIG    1        4.337   3.128  -2.562  0.00  0.00    +0.180 C 
ATOM     15  O   LIG    1        4.518   4.295  -2.837  0.00  0.00    -0.290 OA
ATOM     16  C   LIG    1        6.525   0.029  -2.166  0.00  0.00    -0.001 C 
ATOM     17  C   LIG    1        6.433  -1.360  -2.789  0.00  0.00    +0.005 C 
ATOM     18  C   LIG    1        7.612  -2.248  -2.357  0.00  0.00    +0.007 C 
ATOM     19  C   LIG    1        8.886  -1.535  -2.763  0.00  0.00    -0.028 C 
ATOM     20  C   LIG    1        8.846  -1.215  -4.259  0.00  0.00    +0.011 C 
ENDROOT
BRANCH  13  21
ATOM     21  N   LIG    1        1.910   3.276  -3.077  0.00  0.00    -0.279 N 
ATOM     22  H   LIG    1        1.435   3.147  -3.913  0.00  0.00    +0.155 HD
ATOM     23  C   LIG    1        1.493   4.213  -2.203  0.00  0.00    +0.248 C 
ATOM     24  O   LIG    1        2.028   4.311  -1.116  0.00  0.00    -0.270 OA
BRANCH  23  25
ATOM     25  C   LIG    1        0.380   5.117  -2.564  0.00  0.00    +0.037 A 
ATOM     26  C   LIG    1       -0.232   5.011  -3.813  0.00  0.00    +0.013 A 
ATOM     27  C   LIG    1       -1.273   5.854  -4.142  0.00  0.00    +0.001 A 
ATOM     28  C   LIG    1       -1.703   6.812  -3.240  0.00  0.00    +0.000 A 
ATOM     29  C   LIG    1       -1.096   6.926  -2.002  0.00  0.00    +0.001 A 
ATOM     30  C   LIG    1       -0.058   6.085  -1.659  0.00  0.00    +0.013 A 
ENDBRANCH  23  25
ENDBRANCH  13  21
BRANCH   1  32
ATOM     31  C   LIG    1        9.622  -4.111  -3.966  0.00  0.00    -0.013 C 
ATOM     32  C   LIG    1       10.681  -3.066  -3.609  0.00  0.00    -0.069 C 
BRANCH  32  33
ATOM     33  N   LIG    1       11.933  -3.755  -3.228  0.00  0.00    +0.378 N 
ATOM     34  H   LIG    1       11.808  -4.189  -2.306  0.00  0.00    -0.082 HD
ATOM     35  C   LIG    1       13.043  -2.782  -3.155  0.00  0.00    -0.096 C 
ATOM     36  C   LIG    1       12.249  -4.809  -4.216  0.00  0.00    -0.096 C 
ENDBRANCH  32  33
ENDBRANCH   1  32
TORSDOF 4
