REMARK  Name = ZINC13334949
REMARK                            x       y       z     vdW  Elec       q    Type
REMARK                         _______ _______ _______ _____ _____    ______ ____
ROOT
ATOM      1  C   LIG    1        5.020   2.567  -2.981  0.00  0.00    +0.051 C 
ATOM      2  C   LIG    1        5.557   1.728  -1.850  0.00  0.00    +0.034 A 
ATOM      3  C   LIG    1        6.884   1.317  -1.863  0.00  0.00    +0.130 A 
ATOM      4  C   LIG    1        7.396   0.543  -0.829  0.00  0.00    +0.092 A 
ATOM      5  C   LIG    1        6.582   0.170   0.227  0.00  0.00    +0.138 A 
ATOM      6  C   LIG    1        5.239   0.578   0.242  0.00  0.00    +0.101 A 
ATOM      7  C   LIG    1        4.350   0.187   1.341  0.00  0.00    +0.174 C 
ATOM      8  O   LIG    1        4.668  -0.664   2.147  0.00  0.00    -0.292 OA
ATOM      9  C   LIG    1        3.013   0.901   1.421  0.00  0.00    +0.129 C 
ATOM     10  C   LIG    1        2.490   1.048  -0.016  0.00  0.00    +0.211 C 
ATOM     11  O   LIG    1        3.437   1.782  -0.792  0.00  0.00    -0.483 OA
ATOM     12  C   LIG    1        4.726   1.368  -0.804  0.00  0.00    +0.142 A 
ENDROOT
BRANCH  10  13
ATOM     13  C   LIG    1        1.175   1.783   0.000  0.00  0.00    -0.007 A 
ATOM     14  C   LIG    1       -0.013   1.076   0.008  0.00  0.00    +0.007 A 
ATOM     15  C   LIG    1       -1.219   1.751   0.017  0.00  0.00    +0.000 A 
ATOM     16  C   LIG    1       -1.238   3.133   0.029  0.00  0.00    +0.000 A 
ATOM     17  C   LIG    1       -0.050   3.840   0.022  0.00  0.00    +0.000 A 
ATOM     18  C   LIG    1        1.156   3.165   0.008  0.00  0.00    +0.007 A 
ENDBRANCH  10  13
BRANCH   3  19
ATOM     19  O   LIG    1        7.688   1.675  -2.895  0.00  0.00    -0.495 OA
ATOM     20  C   LIG    1        9.042   1.221  -2.850  0.00  0.00    +0.277 C 
ENDBRANCH   3  19
BRANCH   5  21
ATOM     21  O   LIG    1        7.079  -0.584   1.239  0.00  0.00    -0.494 OA
ATOM     22  C   LIG    1        8.454  -0.960   1.153  0.00  0.00    +0.277 C 
ENDBRANCH   5  21
TORSDOF 3
