REMARK  Name = ZINC13470222
REMARK                            x       y       z     vdW  Elec       q    Type
REMARK                         _______ _______ _______ _____ _____    ______ ____
ROOT
ATOM      1  C   LIG    1        1.104   2.967   0.348  0.00  0.00    +0.046 C 
ATOM      2  C   LIG    1        1.114   1.440   0.607  0.00  0.00    +0.124 C 
ATOM      3  C   LIG    1        1.787   1.333   1.997  0.00  0.00    +0.063 C 
ATOM      4  C   LIG    1        2.884   2.418   1.971  0.00  0.00    +0.121 C 
ATOM      5  C   LIG    1        2.449   3.457   0.922  0.00  0.00    +0.031 C 
ENDROOT
BRANCH   1   7
ATOM      6  C   LIG    1        0.034   3.958  -1.610  0.00  0.00    +0.003 C 
ATOM      7  C   LIG    1        1.026   3.251  -1.130  0.00  0.00    -0.022 C 
BRANCH   6   8
ATOM      8  C   LIG    1       -0.044   4.242  -3.088  0.00  0.00    +0.174 C 
BRANCH   8   9
ATOM      9  O   LIG    1        1.004   3.543  -3.763  0.00  0.00    -0.384 OA
ATOM     10  H   LIG    1        0.970   2.583  -3.655  0.00  0.00    +0.210 HD
ENDBRANCH   8   9
BRANCH   8  11
ATOM     11  C   LIG    1       -1.398   3.775  -3.627  0.00  0.00    +0.264 C 
BRANCH  11  12
ATOM     12  O   LIG    1       -1.518   4.149  -5.001  0.00  0.00    -0.489 OA
BRANCH  12  16
ATOM     13  C   LIG    1       -5.016   3.110  -6.925  0.00  0.00    +0.000 A 
ATOM     14  C   LIG    1       -4.026   3.789  -7.611  0.00  0.00    +0.004 A 
ATOM     15  C   LIG    1       -2.854   4.138  -6.969  0.00  0.00    +0.045 A 
ATOM     16  C   LIG    1       -2.670   3.807  -5.635  0.00  0.00    +0.121 A 
ATOM     17  C   LIG    1       -3.662   3.120  -4.950  0.00  0.00    +0.045 A 
ATOM     18  C   LIG    1       -4.835   2.778  -5.595  0.00  0.00    +0.004 A 
ENDBRANCH  12  16
ENDBRANCH  11  12
ENDBRANCH   8  11
ENDBRANCH   6   8
ENDBRANCH   1   7
BRANCH   2  19
ATOM     19  O   LIG    1       -0.218   0.924   0.648  0.00  0.00    -0.391 OA
ATOM     20  H   LIG    1       -0.267  -0.028   0.808  0.00  0.00    +0.210 HD
ENDBRANCH   2  19
BRANCH   4  21
ATOM     21  O   LIG    1        2.993   3.035   3.255  0.00  0.00    -0.391 OA
ATOM     22  H   LIG    1        3.264   2.431   3.960  0.00  0.00    +0.210 HD
ENDBRANCH   4  21
BRANCH   5  23
ATOM     23  C   LIG    1        2.270   4.825   1.583  0.00  0.00    +0.033 C 
BRANCH  23  24
ATOM     24  C   LIG    1        3.611   5.346   2.030  0.00  0.00    -0.031 C 
ATOM     25  C   LIG    1        4.000   6.545   1.672  0.00  0.00    -0.031 C 
BRANCH  25  26
ATOM     26  C   LIG    1        3.044   7.466   0.960  0.00  0.00    +0.027 C 
BRANCH  26  27
ATOM     27  C   LIG    1        2.970   8.800   1.705  0.00  0.00    +0.015 C 
BRANCH  27  28
ATOM     28  C   LIG    1        1.999   9.736   0.982  0.00  0.00    +0.121 C 
BRANCH  28  29
ATOM     29  C   LIG    1        1.927  11.050   1.717  0.00  0.00    +0.305 C 
ATOM     30  O   LIG    1        2.584  11.221   2.716  0.00  0.00    -0.251 OA
BRANCH  29  31
ATOM     31  O   LIG    1        1.132  12.031   1.261  0.00  0.00    -0.481 OA
ATOM     32  H   LIG    1        0.622  11.898   0.486  0.00  0.00    +0.295 HD
ENDBRANCH  29  31
ENDBRANCH  28  29
ENDBRANCH  27  28
ENDBRANCH  26  27
ENDBRANCH  25  26
ENDBRANCH  23  24
ENDBRANCH   5  23
TORSDOF 15
