REMARK  Name = ZINC13475731
REMARK                            x       y       z     vdW  Elec       q    Type
REMARK                         _______ _______ _______ _____ _____    ______ ____
ROOT
ATOM      1  C   LIG    1        5.694  -0.565  -3.825  0.00  0.00    -0.010 C 
ATOM      2  C   LIG    1        5.850  -1.804  -2.938  0.00  0.00    -0.015 C 
ATOM      3  C   LIG    1        5.504  -1.437  -1.493  0.00  0.00    -0.078 C 
ATOM      4  N   LIG    1        4.106  -0.960  -1.440  0.00  0.00    +0.382 N 
ATOM      5  H   LIG    1        3.492  -1.682  -1.835  0.00  0.00    -0.081 HD
ATOM      6  C   LIG    1        3.962   0.278  -2.236  0.00  0.00    -0.078 C 
ATOM      7  C   LIG    1        4.262  -0.037  -3.703  0.00  0.00    -0.015 C 
ENDROOT
BRANCH   1   8
ATOM      8  C   LIG    1        5.981  -0.939  -5.280  0.00  0.00    +0.038 C 
BRANCH   8  12
ATOM      9  C   LIG    1        5.889   2.580  -7.700  0.00  0.00    +0.000 A 
ATOM     10  C   LIG    1        7.074   2.172  -7.118  0.00  0.00    +0.000 A 
ATOM     11  C   LIG    1        7.105   1.034  -6.335  0.00  0.00    +0.003 A 
ATOM     12  C   LIG    1        5.949   0.303  -6.133  0.00  0.00    -0.047 A 
ATOM     13  C   LIG    1        4.764   0.708  -6.719  0.00  0.00    +0.003 A 
ATOM     14  C   LIG    1        4.733   1.849  -7.498  0.00  0.00    +0.000 A 
ENDBRANCH   8  12
ENDBRANCH   1   8
BRANCH   4  15
ATOM     15  C   LIG    1        3.711  -0.707  -0.039  0.00  0.00    -0.043 C 
BRANCH  15  16
ATOM     16  C   LIG    1        2.396   0.029  -0.022  0.00  0.00    -0.064 A 
ATOM     17  C   LIG    1        1.208  -0.679  -0.014  0.00  0.00    +0.002 A 
ATOM     18  C   LIG    1        0.002  -0.004   0.002  0.00  0.00    +0.000 A 
ATOM     19  C   LIG    1       -0.017   1.378   0.010  0.00  0.00    +0.000 A 
ATOM     20  C   LIG    1        1.171   2.086   0.002  0.00  0.00    +0.000 A 
ATOM     21  C   LIG    1        2.377   1.411  -0.014  0.00  0.00    +0.002 A 
ENDBRANCH  15  16
ENDBRANCH   4  15
TORSDOF 4
