REMARK  Name = ZINC13162926
REMARK                            x       y       z     vdW  Elec       q    Type
REMARK                         _______ _______ _______ _____ _____    ______ ____
ROOT
ATOM      1  C   LIG    1        0.035  -2.869  -0.443  0.00  0.00    +0.156 C 
ATOM      2  N   LIG    1       -1.178  -2.374  -0.252  0.00  0.00    -0.154 NA
ATOM      3  C   LIG    1       -2.210  -3.131   0.044  0.00  0.00    +0.276 C 
ATOM      4  C   LIG    1       -1.947  -4.587   0.156  0.00  0.00    +0.079 C 
ATOM      5  C   LIG    1       -2.796  -5.604   0.444  0.00  0.00    +0.029 C 
ATOM      6  O   LIG    1       -3.324  -2.663   0.217  0.00  0.00    -0.267 OA
ATOM      7  S   LIG    1       -0.195  -4.623  -0.204  0.00  0.00    -0.051 S 
ENDROOT
BRANCH   5   8
ATOM      8  C   LIG    1       -2.275  -6.965   0.632  0.00  0.00    -0.006 A 
ATOM      9  C   LIG    1       -0.894  -7.214   0.590  0.00  0.00    +0.011 A 
ATOM     10  C   LIG    1       -0.457  -8.513   0.773  0.00  0.00    +0.020 A 
ATOM     11  C   LIG    1       -1.385  -9.517   0.989  0.00  0.00    +0.111 A 
ATOM     12  N   LIG    1       -2.678  -9.255   1.024  0.00  0.00    -0.263 NA
ATOM     13  C   LIG    1       -3.146  -8.035   0.862  0.00  0.00    +0.118 A 
ENDBRANCH   5   8
BRANCH   1  14
ATOM     14  N   LIG    1        1.188  -2.197  -0.754  0.00  0.00    -0.296 N 
ATOM     15  H   LIG    1        2.001  -2.699  -0.993  0.00  0.00    +0.154 HD
BRANCH  14  20
ATOM     16  C   LIG    1        2.177   1.274  -1.451  0.00  0.00    +0.002 A 
ATOM     17  C   LIG    1        1.257   1.967  -0.685  0.00  0.00    +0.012 A 
ATOM     18  C   LIG    1        0.314   1.280   0.057  0.00  0.00    +0.057 A 
ATOM     19  C   LIG    1        0.289  -0.101   0.037  0.00  0.00    +0.035 A 
ATOM     20  C   LIG    1        1.211  -0.799  -0.731  0.00  0.00    +0.033 A 
ATOM     21  C   LIG    1        2.157  -0.106  -1.476  0.00  0.00    +0.023 A 
BRANCH  18  22
ATOM     22  C   LIG    1       -0.687   2.039   0.890  0.00  0.00    +0.417 C 
ATOM     23  F   LIG    1       -0.544   1.678   2.234  0.00  0.00    -0.166 F 
ATOM     24  F   LIG    1       -1.981   1.731   0.459  0.00  0.00    -0.166 F 
ATOM     25  F   LIG    1       -0.463   3.413   0.751  0.00  0.00    -0.166 F 
ENDBRANCH  18  22
ENDBRANCH  14  20
ENDBRANCH   1  14
TORSDOF 4
