REMARK  Name = ZINC13492195
REMARK                            x       y       z     vdW  Elec       q    Type
REMARK                         _______ _______ _______ _____ _____    ______ ____
ROOT
ATOM      1  C   LIG    1       -0.091   3.807  -0.068  0.00  0.00    -0.058 A 
ATOM      2  C   LIG    1       -1.264   3.085   0.057  0.00  0.00    +0.002 A 
ATOM      3  C   LIG    1       -1.222   1.706   0.152  0.00  0.00    +0.004 A 
ATOM      4  C   LIG    1       -0.007   1.048   0.134  0.00  0.00    +0.046 A 
ATOM      5  C   LIG    1        1.170   1.770   0.009  0.00  0.00    +0.133 A 
ATOM      6  C   LIG    1        1.125   3.153  -0.092  0.00  0.00    +0.048 A 
ENDROOT
BRANCH   1   8
ATOM      7  C   LIG    1       -0.322   5.916   1.215  0.00  0.00    -0.008 C 
ATOM      8  C   LIG    1       -0.141   5.309  -0.177  0.00  0.00    -0.041 C 
BRANCH   8   9
ATOM      9  N   LIG    1       -1.293   5.692  -1.021  0.00  0.00    +0.380 N 
ATOM     10  H   LIG    1       -2.157   5.368  -0.572  0.00  0.00    -0.082 HD
ATOM     11  C   LIG    1       -1.176   5.060  -2.352  0.00  0.00    -0.096 C 
ATOM     12  C   LIG    1       -1.348   7.162  -1.163  0.00  0.00    -0.096 C 
ENDBRANCH   8   9
ENDBRANCH   1   8
BRANCH   5  13
ATOM     13  O   LIG    1        2.366   1.124  -0.014  0.00  0.00    -0.411 OA
BRANCH  13  14
ATOM     14  C   LIG    1        2.643   0.389  -1.108  0.00  0.00    +0.408 C 
ATOM     15  N   LIG    1        3.755  -0.371  -1.145  0.00  0.00    -0.273 N 
ATOM     16  C   LIG    1        4.662  -0.399   0.005  0.00  0.00    +0.135 C 
ATOM     17  C   LIG    1        4.056  -1.171  -2.335  0.00  0.00    +0.135 C 
ATOM     18  O   LIG    1        1.890   0.412  -2.062  0.00  0.00    -0.226 OA
ENDBRANCH  13  14
ENDBRANCH   5  13
TORSDOF 4
