REMARK  Name = ZINC13284968
REMARK                            x       y       z     vdW  Elec       q    Type
REMARK                         _______ _______ _______ _____ _____    ______ ____
ROOT
ATOM      1  C   LIG    1       -3.062   2.950  -2.237  0.00  0.00    +0.025 C 
ATOM      2  C   LIG    1       -3.407   3.786  -1.031  0.00  0.00    +0.063 C 
ATOM      3  N   LIG    1       -4.599   4.446  -1.039  0.00  0.00    -0.286 NA
ATOM      4  H   LIG    1       -5.341   3.753  -1.140  0.00  0.00    +0.125 HD
ATOM      5  C   LIG    1       -4.867   5.189   0.073  0.00  0.00    +0.193 C 
ATOM      6  N   LIG    1       -4.061   5.300   1.118  0.00  0.00    -0.273 NA
ATOM      7  H   LIG    1       -3.185   4.817   1.128  0.00  0.00    +0.126 HD
ATOM      8  C   LIG    1       -2.897   4.660   1.149  0.00  0.00    +0.130 C 
ATOM      9  C   LIG    1       -2.526   3.870   0.045  0.00  0.00    +0.067 C 
ENDROOT
BRANCH   9  10
ATOM     10  C   LIG    1       -1.235   3.142   0.030  0.00  0.00    -0.040 A 
ATOM     11  C   LIG    1       -1.218   1.748   0.017  0.00  0.00    +0.004 A 
ATOM     12  C   LIG    1       -0.013   1.076   0.008  0.00  0.00    +0.000 A 
ATOM     13  C   LIG    1        1.177   1.782   0.000  0.00  0.00    +0.000 A 
ATOM     14  C   LIG    1        1.166   3.166   0.007  0.00  0.00    +0.000 A 
ATOM     15  C   LIG    1       -0.034   3.849   0.022  0.00  0.00    +0.004 A 
ENDBRANCH   9  10
BRANCH   5  16
ATOM     16  N   LIG    1       -6.073   5.866   0.081  0.00  0.00    -0.303 NA
ATOM     17  H   LIG    1       -6.318   6.411   0.845  0.00  0.00    +0.121 HD
ATOM     18  H   LIG    1       -6.674   5.796  -0.678  0.00  0.00    +0.121 HD
ENDBRANCH   5  16
BRANCH   8  19
ATOM     19  N   LIG    1       -2.062   4.772   2.246  0.00  0.00    -0.315 NA
ATOM     20  H   LIG    1       -2.325   5.319   3.003  0.00  0.00    +0.120 HD
ATOM     21  H   LIG    1       -1.212   4.305   2.258  0.00  0.00    +0.120 HD
ENDBRANCH   8  19
TORSDOF 3
