REMARK  Name = ZINC13130213
REMARK                            x       y       z     vdW  Elec       q    Type
REMARK                         _______ _______ _______ _____ _____    ______ ____
ROOT
ATOM      1  C   LIG    1       -0.016   1.355   0.009  0.00  0.00    +0.002 A 
ATOM      2  C   LIG    1        1.155   2.100   0.002  0.00  0.00    +0.001 A 
ATOM      3  C   LIG    1        2.373   1.447  -0.013  0.00  0.00    +0.017 A 
ATOM      4  C   LIG    1        2.403   0.074  -0.020  0.00  0.00    +0.040 A 
ATOM      5  C   LIG    1        1.227  -0.713  -0.013  0.00  0.00    +0.079 A 
ATOM      6  N   LIG    1        1.417  -2.047  -0.023  0.00  0.00    -0.239 NA
ATOM      7  C   LIG    1        2.615  -2.590  -0.037  0.00  0.00    +0.109 A 
ATOM      8  S   LIG    1        3.683  -1.157  -0.040  0.00  0.00    -0.067 S 
ATOM      9  C   LIG    1        0.002  -0.004   0.002  0.00  0.00    +0.029 A 
ENDROOT
BRANCH   7  10
ATOM     10  C   LIG    1        2.983  -4.021  -0.049  0.00  0.00    +0.007 A 
ATOM     11  C   LIG    1        1.988  -5.000  -0.051  0.00  0.00    +0.014 A 
ATOM     12  C   LIG    1        2.336  -6.334  -0.063  0.00  0.00    +0.046 A 
ATOM     13  C   LIG    1        3.674  -6.705  -0.071  0.00  0.00    +0.117 A 
ATOM     14  C   LIG    1        4.667  -5.734  -0.069  0.00  0.00    +0.046 A 
ATOM     15  C   LIG    1        4.328  -4.398  -0.065  0.00  0.00    +0.014 A 
BRANCH  13  16
ATOM     16  O   LIG    1        4.013  -8.020  -0.082  0.00  0.00    -0.507 OA
ATOM     17  H   LIG    1        4.107  -8.395  -0.968  0.00  0.00    +0.292 HD
ENDBRANCH  13  16
ENDBRANCH   7  10
TORSDOF 2
