REMARK  Name = ZINC13538923
REMARK                            x       y       z     vdW  Elec       q    Type
REMARK                         _______ _______ _______ _____ _____    ______ ____
ROOT
ATOM      1  C   LIG    1        0.039  -3.215  -1.636  0.00  0.00    +0.023 C 
ATOM      2  C   LIG    1       -0.074  -3.022  -2.998  0.00  0.00    +0.047 C 
ATOM      3  C   LIG    1       -0.190  -4.059  -4.047  0.00  0.00    +0.010 A 
ATOM      4  C   LIG    1       -0.220  -5.449  -4.015  0.00  0.00    +0.039 A 
ATOM      5  C   LIG    1       -0.339  -6.159  -5.193  0.00  0.00    +0.106 A 
ATOM      6  C   LIG    1       -0.428  -5.488  -6.402  0.00  0.00    +0.030 A 
ATOM      7  C   LIG    1       -0.399  -4.109  -6.444  0.00  0.00    +0.026 A 
ATOM      8  C   LIG    1       -0.280  -3.377  -5.268  0.00  0.00    +0.042 A 
ATOM      9  N   LIG    1       -0.227  -2.009  -5.031  0.00  0.00    -0.281 N 
ATOM     10  H   LIG    1       -0.270  -1.332  -5.724  0.00  0.00    +0.155 HD
ATOM     11  C   LIG    1       -0.112  -1.744  -3.719  0.00  0.00    +0.249 C 
ATOM     12  O   LIG    1       -0.048  -0.636  -3.216  0.00  0.00    -0.270 OA
ENDROOT
BRANCH   1  16
ATOM     13  C   LIG    1       -1.294   1.133   0.336  0.00  0.00    +0.149 C 
ATOM     14  N   LIG    1       -0.619  -0.153   0.149  0.00  0.00    -0.349 N 
ATOM     15  C   LIG    1       -0.831  -0.991  -0.893  0.00  0.00    +0.094 A 
ATOM     16  C   LIG    1       -0.033  -2.108  -0.756  0.00  0.00    +0.001 A 
ATOM     17  C   LIG    1        0.732  -1.918   0.492  0.00  0.00    +0.007 A 
ATOM     18  C   LIG    1        1.685  -2.677   1.165  0.00  0.00    +0.010 A 
ATOM     19  C   LIG    1        2.235  -2.200   2.335  0.00  0.00    +0.001 A 
ATOM     20  C   LIG    1        1.833  -0.976   2.849  0.00  0.00    +0.002 A 
ATOM     21  C   LIG    1        0.887  -0.217   2.196  0.00  0.00    +0.026 A 
ATOM     22  C   LIG    1        0.326  -0.677   1.008  0.00  0.00    +0.049 A 
ENDBRANCH   1  16
BRANCH   5  23
ATOM     23  S   LIG    1       -0.377  -7.920  -5.159  0.00  0.00    +0.056 S 
ATOM     24  O   LIG    1        0.271  -8.317  -3.958  0.00  0.00    -0.153 OA
ATOM     25  O   LIG    1        0.054  -8.360  -6.439  0.00  0.00    -0.153 OA
BRANCH  23  26
ATOM     26  N   LIG    1       -1.963  -8.373  -5.013  0.00  0.00    -0.204 NA
ATOM     27  H   LIG    1       -2.198  -9.313  -4.976  0.00  0.00    +0.144 HD
ATOM     28  H   LIG    1       -2.658  -7.697  -4.964  0.00  0.00    +0.144 HD
ENDBRANCH  23  26
ENDBRANCH   5  23
TORSDOF 3
