REMARK  Name = ZINC13442501
REMARK                            x       y       z     vdW  Elec       q    Type
REMARK                         _______ _______ _______ _____ _____    ______ ____
ROOT
ATOM      1  C   LIG    1       -0.017   1.388   0.010  0.00  0.00    +0.047 A 
ATOM      2  C   LIG    1        1.131   2.116   0.003  0.00  0.00    +0.032 A 
ATOM      3  C   LIG    1        2.394   1.482  -0.013  0.00  0.00    +0.081 A 
ATOM      4  C   LIG    1        2.384   0.067  -0.021  0.00  0.00    +0.044 A 
ATOM      5  S   LIG    1        4.117  -0.321  -0.039  0.00  0.00    -0.047 S 
ATOM      6  C   LIG    1        4.723   1.361  -0.036  0.00  0.00    +0.233 A 
ATOM      7  C   LIG    1        1.222  -0.664  -0.013  0.00  0.00    +0.062 A 
ATOM      8  N   LIG    1        3.617   2.055  -0.022  0.00  0.00    -0.221 NA
ATOM      9  C   LIG    1        0.002  -0.004   0.002  0.00  0.00    +0.118 A 
ENDROOT
BRANCH   6  10
ATOM     10  S   LIG    1        6.388   1.935  -0.049  0.00  0.00    +0.080 S 
ATOM     11  O   LIG    1        6.940   1.554  -1.302  0.00  0.00    -0.151 OA
ATOM     12  O   LIG    1        6.963   1.540   1.189  0.00  0.00    -0.151 OA
BRANCH  10  13
ATOM     13  N   LIG    1        6.335   3.590  -0.040  0.00  0.00    -0.202 NA
ATOM     14  H   LIG    1        7.159   4.102  -0.045  0.00  0.00    +0.144 HD
ATOM     15  H   LIG    1        5.480   4.048  -0.029  0.00  0.00    +0.144 HD
ENDBRANCH  10  13
ENDBRANCH   6  10
BRANCH   9  16
ATOM     16  O   LIG    1       -1.161  -0.708   0.009  0.00  0.00    -0.507 OA
ATOM     17  H   LIG    1       -1.506  -0.907  -0.872  0.00  0.00    +0.292 HD
ENDBRANCH   9  16
TORSDOF 3
