REMARK  Name = ZINC13453746
REMARK                            x       y       z     vdW  Elec       q    Type
REMARK                         _______ _______ _______ _____ _____    ______ ____
ROOT
ATOM      1  C   LIG    1       -0.729   1.579   1.267  0.00  0.00    +0.091 C 
ATOM      2 CL   LIG    1        0.055   0.863   2.724  0.00  0.00    -0.121 Cl
ENDROOT
BRANCH   1   3
ATOM      3  C   LIG    1       -2.198   1.155   1.217  0.00  0.00    -0.065 C 
BRANCH   3   4
ATOM      4  N   LIG    1       -2.873   1.616   2.443  0.00  0.00    +0.379 N 
ATOM      5  H   LIG    1       -2.433   1.171   3.258  0.00  0.00    -0.090 HD
ATOM      6  H   LIG    1       -3.858   1.361   2.417  0.00  0.00    -0.090 HD
ATOM      7  H   LIG    1       -2.787   2.627   2.530  0.00  0.00    -0.090 HD
ENDBRANCH   3   4
ENDBRANCH   1   3
BRANCH   1   8
ATOM      8  C   LIG    1       -0.013   1.086   0.008  0.00  0.00    +0.202 C 
BRANCH   8   9
ATOM      9  O   LIG    1       -0.704   1.559  -1.150  0.00  0.00    -0.301 OA
BRANCH   9  10
ATOM     10  N   LIG    1       -0.100   1.143  -2.415  0.00  0.00    -0.215 NA
ATOM     11  H   LIG    1        0.868   1.426  -2.465  0.00  0.00    +0.150 HD
ATOM     12  H   LIG    1       -0.622   1.501  -3.201  0.00  0.00    +0.150 HD
ENDBRANCH   9  10
ENDBRANCH   8   9
ENDBRANCH   1   8
TORSDOF 5
