REMARK  Name = ZINC13454576
REMARK                            x       y       z     vdW  Elec       q    Type
REMARK                         _______ _______ _______ _____ _____    ______ ____
ROOT
ATOM      1  C   UNK A  0       -2.716   0.833   3.620  0.00  0.00    +0.042 C 
ATOM      2  C   UNK A  0       -1.281   1.363   3.609  0.00  0.00    +0.115 C 
ENDROOT
BRANCH   2   3
ATOM      3  N   UNK A  0       -1.301   2.828   3.618  0.00  0.00    -0.267 N 
ATOM      4  H   UNK A  0       -0.894   3.322   2.889  0.00  0.00    +0.153 HD
ATOM      5  C   UNK A  0       -1.884   3.488   4.638  0.00  0.00    +0.401 C 
ATOM      6  O   UNK A  0       -2.393   2.868   5.550  0.00  0.00    -0.226 OA
BRANCH   5   7
ATOM      7  O   UNK A  0       -1.902   4.834   4.645  0.00  0.00    -0.447 OA
BRANCH   7   8
ATOM      8  C   UNK A  0       -2.547   5.479   5.775  0.00  0.00    +0.184 C 
ATOM      9  C   UNK A  0       -4.029   5.692   5.463  0.00  0.00    +0.031 C 
ATOM     10  C   UNK A  0       -4.709   6.371   6.653  0.00  0.00    +0.010 C 
ATOM     11  C   UNK A  0       -4.044   7.723   6.917  0.00  0.00    -0.010 C 
ATOM     12  C   UNK A  0       -4.182   8.610   5.678  0.00  0.00    +0.007 C 
ATOM     13  C   UNK A  0       -3.502   7.931   4.487  0.00  0.00    -0.010 C 
ATOM     14  C   UNK A  0       -2.019   7.717   4.800  0.00  0.00    +0.010 C 
ATOM     15  C   UNK A  0       -2.561   7.510   7.230  0.00  0.00    +0.010 C 
ATOM     16  C   UNK A  0       -4.167   6.578   4.223  0.00  0.00    +0.010 C 
ATOM     17  C   UNK A  0       -1.882   6.831   6.039  0.00  0.00    +0.031 C 
ENDBRANCH   7   8
ENDBRANCH   5   7
ENDBRANCH   2   3
BRANCH   2  18
ATOM     18  C   UNK A  0       -0.575   0.877   2.369  0.00  0.00    +0.237 C 
ATOM     19  N   PHE A  1       -0.698   1.558   1.213  0.00  0.00    -0.308 N 
ATOM     20  H   PHE A  1       -1.241   2.362   1.179  0.00  0.00    +0.149 HD
ATOM     21  O   UNK A  0        0.103  -0.128   2.412  0.00  0.00    -0.273 OA
BRANCH  19  22
ATOM     22  CA  PHE A  1       -0.013   1.086   0.008  0.00  0.00    +0.103 C 
BRANCH  22  23
ATOM     23  C   PHE A  1        1.423   1.615  -0.003  0.00  0.00    +0.178 C 
BRANCH  23  24
ATOM     24  O   PHE A  1        1.404   3.040  -0.112  0.00  0.00    -0.393 OA
ATOM     25  H   PHE A  1        2.282   3.445  -0.125  0.00  0.00    +0.209 HD
ENDBRANCH  23  24
ENDBRANCH  22  23
BRANCH  22  26
ATOM     26  CB  PHE A  1       -0.753   1.593  -1.232  0.00  0.00    +0.059 C 
BRANCH  26  27
ATOM     27  CG  PHE A  1       -2.126   0.973  -1.285  0.00  0.00    -0.046 A 
ATOM     28  CD2 PHE A  1       -2.318  -0.223  -1.950  0.00  0.00    +0.004 A 
ATOM     29  CE2 PHE A  1       -3.577  -0.793  -1.995  0.00  0.00    +0.000 A 
ATOM     30  CZ  PHE A  1       -4.644  -0.162  -1.384  0.00  0.00    +0.000 A 
ATOM     31  CE1 PHE A  1       -4.452   1.037  -0.724  0.00  0.00    +0.000 A 
ATOM     32  CD1 PHE A  1       -3.193   1.605  -0.674  0.00  0.00    +0.004 A 
ENDBRANCH  26  27
ENDBRANCH  22  26
ENDBRANCH  19  22
ENDBRANCH   2  18
BRANCH   2  33
ATOM     33  C   UNK A  0       -0.541   0.856   4.849  0.00  0.00    +0.072 C 
BRANCH  33  34
ATOM     34  C   UNK A  0        0.832   1.475   4.903  0.00  0.00    -0.020 A 
ATOM     35  C   UNK A  0        1.971   0.932   4.445  0.00  0.00    +0.087 A 
ATOM     36  N   UNK A  0        3.017   1.787   4.665  0.00  0.00    -0.360 N 
ATOM     37  C   UNK A  0        2.566   2.926   5.293  0.00  0.00    +0.047 A 
ATOM     38  C   UNK A  0        3.191   4.086   5.740  0.00  0.00    +0.026 A 
ATOM     39  C   UNK A  0        2.448   5.074   6.347  0.00  0.00    +0.002 A 
ATOM     40  C   UNK A  0        1.079   4.926   6.518  0.00  0.00    +0.001 A 
ATOM     41  C   UNK A  0        0.444   3.796   6.087  0.00  0.00    +0.010 A 
ATOM     42  H   UNK A  0        3.939   1.614   4.420  0.00  0.00    +0.165 HD
ATOM     43  C   UNK A  0        1.177   2.781   5.470  0.00  0.00    +0.003 A 
ENDBRANCH  33  34
ENDBRANCH   2  33
TORSDOF 11
