REMARK  Name = ZINC13281486
REMARK                            x       y       z     vdW  Elec       q    Type
REMARK                         _______ _______ _______ _____ _____    ______ ____
ROOT
ATOM      1  C   LIG    1       -5.144   3.878  -0.252  0.00  0.00    +0.001 A 
ATOM      2  C   LIG    1       -6.274   3.069  -0.340  0.00  0.00    +0.002 A 
ATOM      3  C   LIG    1       -6.168   1.712  -0.354  0.00  0.00    +0.028 A 
ATOM      4  C   LIG    1       -4.900   1.111  -0.262  0.00  0.00    +0.072 A 
ATOM      5  C   LIG    1       -3.755   1.939  -0.167  0.00  0.00    +0.008 A 
ATOM      6  C   LIG    1       -2.438   1.302  -0.076  0.00  0.00    -0.013 A 
ATOM      7  C   LIG    1       -2.406  -0.095  -0.079  0.00  0.00    +0.028 A 
ATOM      8  C   LIG    1       -3.596  -0.805  -0.171  0.00  0.00    +0.112 A 
ATOM      9  N   LIG    1       -4.764  -0.217  -0.256  0.00  0.00    -0.255 NA
ATOM     10  C   LIG    1       -3.898   3.329  -0.166  0.00  0.00    +0.010 A 
ENDROOT
BRANCH   6  11
ATOM     11  C   LIG    1       -1.209   2.095   0.019  0.00  0.00    +0.038 C 
ATOM     12  C   LIG    1       -0.143   1.619   0.727  0.00  0.00    +0.129 C 
BRANCH  12  13
ATOM     13  C   LIG    1        1.105   2.320   0.699  0.00  0.00    +0.110 C 
ATOM     14  N   LIG    1        2.096   2.877   0.677  0.00  0.00    -0.190 NA
ENDBRANCH  12  13
BRANCH  12  15
ATOM     15  C   LIG    1       -0.271   0.415   1.492  0.00  0.00    +0.110 C 
ATOM     16  N   LIG    1       -0.372  -0.540   2.099  0.00  0.00    -0.190 NA
ENDBRANCH  12  15
ENDBRANCH   6  11
TORSDOF 3
