REMARK  Name = ZINC13488065
REMARK                            x       y       z     vdW  Elec       q    Type
REMARK                         _______ _______ _______ _____ _____    ______ ____
ROOT
ATOM      1  C   LIG    1       -0.112  10.012  -1.300  0.00  0.00    +0.000 A 
ATOM      2  C   LIG    1        0.840   9.386  -2.084  0.00  0.00    +0.000 A 
ATOM      3  C   LIG    1        0.984   8.015  -2.027  0.00  0.00    +0.005 A 
ATOM      4  C   LIG    1        0.180   7.259  -1.186  0.00  0.00    -0.030 A 
ATOM      5  C   LIG    1       -0.766   7.884  -0.402  0.00  0.00    -0.042 A 
ATOM      6  C   LIG    1       -1.655   7.107   0.534  0.00  0.00    +0.051 C 
ATOM      7  C   LIG    1       -1.639   5.625   0.160  0.00  0.00    +0.091 C 
ATOM      8  N   LIG    1       -0.238   5.189   0.040  0.00  0.00    -0.281 NA
ATOM      9  C   LIG    1        0.372   5.766  -1.162  0.00  0.00    +0.121 C 
ATOM     10  C   LIG    1       -0.912   9.262  -0.462  0.00  0.00    +0.004 A 
ENDROOT
BRANCH   8  11
ATOM     11  C   LIG    1       -0.148   3.799   0.028  0.00  0.00    +0.142 C 
ATOM     12  N   LIG    1       -0.798   3.149  -0.978  0.00  0.00    -0.300 NA
ATOM     13  H   LIG    1       -1.335   3.651  -1.694  0.00  0.00    +0.123 HD
ATOM     14  C   LIG    1       -0.691   1.792  -0.974  0.00  0.00    +0.082 C 
ATOM     15  C   LIG    1        0.011   1.077  -0.025  0.00  0.00    +0.017 C 
ATOM     16  C   LIG    1        0.667   1.758   0.993  0.00  0.00    +0.022 C 
ATOM     17  C   LIG    1        0.587   3.143   1.020  0.00  0.00    +0.083 C 
BRANCH  17  18
ATOM     18  N   LIG    1        1.232   3.873   2.026  0.00  0.00    -0.325 NA
ATOM     19  H   LIG    1        1.237   4.842   1.995  0.00  0.00    +0.119 HD
ATOM     20  H   LIG    1        1.673   3.409   2.755  0.00  0.00    +0.119 HD
ENDBRANCH  17  18
ENDBRANCH   8  11
TORSDOF 2
