REMARK  Name = ZINC13488293
REMARK                            x       y       z     vdW  Elec       q    Type
REMARK                         _______ _______ _______ _____ _____    ______ ____
ROOT
ATOM      1  C   UNK A  0       -1.266  -0.764   0.010  0.00  0.00    +0.246 C 
ATOM      2  N   SER A  1       -1.244  -2.111   0.002  0.00  0.00    -0.297 N 
ATOM      3  H   SER A  1       -0.396  -2.583  -0.008  0.00  0.00    +0.150 HD
ATOM      4  O   UNK A  0       -2.328  -0.173   0.022  0.00  0.00    -0.270 OA
ENDROOT
BRANCH   1  10
ATOM      5  C   UNK A  0        2.403   0.036  -0.021  0.00  0.00    +0.001 A 
ATOM      6  C   UNK A  0        2.378   1.420  -0.013  0.00  0.00    +0.001 A 
ATOM      7  C   UNK A  0        1.172   2.095   0.002  0.00  0.00    +0.016 A 
ATOM      8  C   UNK A  0       -0.017   1.392   0.010  0.00  0.00    +0.030 A 
ATOM      9 BR   UNK A  0       -1.666   2.318   0.023  0.00  0.00    -0.050 Br
ATOM     10  C   UNK A  0        0.002  -0.004   0.002  0.00  0.00    +0.051 A 
ATOM     11  C   UNK A  0        1.224  -0.679  -0.013  0.00  0.00    +0.014 A 
ENDBRANCH   1  10
BRANCH   2  12
ATOM     12  CA  SER A  1       -2.500  -2.864   0.010  0.00  0.00    +0.208 C 
BRANCH  12  13
ATOM     13  C   SER A  1       -2.982  -3.024   1.429  0.00  0.00    +0.328 C 
ATOM     14  O   SER A  1       -2.341  -2.557   2.340  0.00  0.00    -0.249 OA
BRANCH  13  15
ATOM     15  OXT SER A  1       -4.123  -3.685   1.680  0.00  0.00    -0.479 OA
ATOM     16  HXT SER A  1       -4.620  -4.048   0.973  0.00  0.00    +0.295 HD
ENDBRANCH  13  15
ENDBRANCH  12  13
BRANCH  12  17
ATOM     17  CB  SER A  1       -2.272  -4.245  -0.610  0.00  0.00    +0.189 C 
BRANCH  17  18
ATOM     18  OG  SER A  1       -1.377  -4.994   0.215  0.00  0.00    -0.393 OA
ATOM     19  H   SER A  1       -1.186  -5.882  -0.118  0.00  0.00    +0.209 HD
ENDBRANCH  17  18
ENDBRANCH  12  17
ENDBRANCH   2  12
TORSDOF 6
