REMARK  Name = ZINC13476433
REMARK                            x       y       z     vdW  Elec       q    Type
REMARK                         _______ _______ _______ _____ _____    ______ ____
ROOT
ATOM      1  C   LIG    1        1.203  -4.177  -5.357  0.00  0.00    +0.001 A 
ATOM      2  C   LIG    1        1.220  -5.555  -5.555  0.00  0.00    +0.002 A 
ATOM      3  C   LIG    1        1.242  -6.417  -4.499  0.00  0.00    +0.028 A 
ATOM      4  C   LIG    1        1.248  -5.910  -3.192  0.00  0.00    +0.076 A 
ATOM      5  C   LIG    1        1.231  -4.508  -2.993  0.00  0.00    +0.040 A 
ATOM      6  C   LIG    1        1.237  -4.021  -1.663  0.00  0.00    +0.130 A 
ATOM      7  N   LIG    1        1.263  -4.904  -0.673  0.00  0.00    -0.220 NA
ATOM      8  C   LIG    1        1.274  -6.206  -0.909  0.00  0.00    +0.223 A 
ATOM      9  N   LIG    1        1.269  -6.713  -2.119  0.00  0.00    -0.235 NA
ATOM     10  C   LIG    1        1.208  -3.651  -4.099  0.00  0.00    +0.013 A 
ENDROOT
BRANCH   6  11
ATOM     11  N   LIG    1        1.222  -2.667  -1.404  0.00  0.00    -0.324 N 
ATOM     12  H   LIG    1        1.206  -2.033  -2.138  0.00  0.00    +0.148 HD
BRANCH  11  13
ATOM     13  C   LIG    1        1.228  -2.186  -0.020  0.00  0.00    +0.138 C 
BRANCH  13  14
ATOM     14  C   LIG    1        1.208  -0.679  -0.013  0.00  0.00    -0.030 A 
ATOM     15  C   LIG    1        0.002  -0.004   0.002  0.00  0.00    +0.006 A 
ATOM     16  C   LIG    1       -0.017   1.378   0.010  0.00  0.00    +0.020 A 
ATOM     17  C   LIG    1        1.172   2.086   0.002  0.00  0.00    +0.041 A 
ATOM     18 CL   LIG    1        1.149   3.821   0.011  0.00  0.00    -0.084 Cl
ATOM     19  C   LIG    1        2.379   1.409  -0.013  0.00  0.00    +0.020 A 
ATOM     20  C   LIG    1        2.397   0.027  -0.021  0.00  0.00    +0.006 A 
ENDBRANCH  13  14
ENDBRANCH  11  13
ENDBRANCH   6  11
TORSDOF 3
