REMARK  Name = ZINC13540519
REMARK                            x       y       z     vdW  Elec       q    Type
REMARK                         _______ _______ _______ _____ _____    ______ ____
ROOT
ATOM      1  C   LIG    1        0.297   1.750   0.171  0.00  0.00    +0.016 C 
ATOM      2  C   LIG    1        0.168   0.226   0.144  0.00  0.00    -0.005 C 
ATOM      3  C   LIG    1       -1.308  -0.087   0.206  0.00  0.00    +0.019 C 
ATOM      4  C   LIG    1       -1.590  -1.422   0.893  0.00  0.00    +0.080 C 
ATOM      5  C   LIG    1       -0.940  -1.379   2.263  0.00  0.00    +0.156 C 
ATOM      6  C   LIG    1        0.482  -1.007   2.291  0.00  0.00    +0.046 C 
ATOM      7  O   LIG    1       -1.556  -1.637   3.275  0.00  0.00    -0.293 OA
ATOM      8  C   LIG    1        0.782  -0.240  -1.176  0.00  0.00    +0.031 C 
ATOM      9  C   LIG    1       -0.009   0.346  -2.342  0.00  0.00    +0.119 C 
ATOM     10  C   LIG    1        0.643   0.015  -3.693  0.00  0.00    +0.041 C 
ATOM     11  C   LIG    1        2.060   0.554  -3.653  0.00  0.00    +0.009 C 
ATOM     12  C   LIG    1        2.038   2.043  -3.304  0.00  0.00    +0.015 C 
ATOM     13  C   LIG    1        2.832  -0.224  -2.555  0.00  0.00    +0.002 C 
ATOM     14  C   LIG    1        4.282   0.196  -2.820  0.00  0.00    +0.008 C 
ATOM     15  C   LIG    1        4.373   0.171  -4.370  0.00  0.00    +0.043 C 
ATOM     16  C   LIG    1        2.909   0.327  -4.900  0.00  0.00    +0.131 C 
ATOM     17  C   LIG    1        2.255   0.199  -1.216  0.00  0.00    -0.001 C 
ATOM     18  C   LIG    1        3.028  -0.468  -0.078  0.00  0.00    +0.008 C 
ATOM     19  C   LIG    1        2.474  -0.001   1.273  0.00  0.00    +0.032 C 
ATOM     20  C   LIG    1        0.983  -0.295   1.286  0.00  0.00    -0.060 C 
ENDROOT
BRANCH   9  21
ATOM     21  O   LIG    1       -0.075   1.766  -2.193  0.00  0.00    -0.391 OA
ATOM     22  H   LIG    1       -0.564   2.213  -2.898  0.00  0.00    +0.210 HD
ENDBRANCH   9  21
BRANCH  16  23
ATOM     23  O   LIG    1        2.469  -0.843  -5.592  0.00  0.00    -0.380 OA
ATOM     24  H   LIG    1        2.973  -1.038  -6.394  0.00  0.00    +0.211 HD
ENDBRANCH  16  23
BRANCH  16  25
ATOM     25  C   LIG    1        2.837   1.529  -5.806  0.00  0.00    +0.190 C 
ATOM     26  O   LIG    1        3.658   2.409  -5.709  0.00  0.00    -0.292 OA
BRANCH  25  27
ATOM     27  C   LIG    1        1.739   1.634  -6.833  0.00  0.00    +0.233 C 
BRANCH  27  28
ATOM     28  O   LIG    1        1.884   2.854  -7.563  0.00  0.00    -0.387 OA
ATOM     29  H   LIG    1        1.210   2.988  -8.243  0.00  0.00    +0.210 HD
ENDBRANCH  27  28
ENDBRANCH  25  27
ENDBRANCH  16  25
TORSDOF 5
