REMARK  Name = ZINC13530248
REMARK                            x       y       z     vdW  Elec       q    Type
REMARK                         _______ _______ _______ _____ _____    ______ ____
ROOT
ATOM      1  C   LIG    1       -0.013   1.086   0.008  0.00  0.00    +0.039 C 
ATOM      2  C   LIG    1        0.460   1.806  -1.256  0.00  0.00    +0.012 C 
ATOM      3  C   LIG    1        1.335   1.811  -0.001  0.00  0.00    -0.019 C 
ENDROOT
BRANCH   1   5
ATOM      4  C   LIG    1       -1.969   2.677   0.343  0.00  0.00    +0.105 A 
ATOM      5  C   LIG    1       -1.137   1.716   0.789  0.00  0.00    +0.036 A 
ATOM      6  N   LIG    1       -1.480   1.423   2.052  0.00  0.00    -0.350 N 
ATOM      7  H   LIG    1       -0.920   0.659   2.611  0.00  0.00    +0.166 HD
ATOM      8  C   LIG    1       -2.497   2.162   2.404  0.00  0.00    +0.171 A 
ATOM      9  N   LIG    1       -2.836   2.956   1.365  0.00  0.00    -0.352 N 
ATOM     10  H   LIG    1       -3.621   3.714   1.229  0.00  0.00    +0.166 HD
ENDBRANCH   1   5
BRANCH   3  11
ATOM     11  C   LIG    1        2.600   0.950  -0.017  0.00  0.00    -0.082 C 
BRANCH  11  12
ATOM     12  N   LIG    1        3.782   1.815   0.097  0.00  0.00    +0.378 N 
ATOM     13  H   LIG    1        3.805   2.517  -0.749  0.00  0.00    -0.090 HD
ATOM     14  H   LIG    1        3.734   2.379   1.040  0.00  0.00    -0.090 HD
ATOM     15  H   LIG    1        4.691   1.196   0.085  0.00  0.00    -0.090 HD
ENDBRANCH  11  12
ENDBRANCH   3  11
TORSDOF 3
