REMARK  Name = ZINC13488994
REMARK                            x       y       z     vdW  Elec       q    Type
REMARK                         _______ _______ _______ _____ _____    ______ ____
ROOT
ATOM      1  C   LIG    1        2.384   1.479  -0.013  0.00  0.00    +0.012 A 
ATOM      2  C   LIG    1        1.177   2.107   0.002  0.00  0.00    +0.024 A 
ATOM      3  C   LIG    1       -0.017   1.376   0.010  0.00  0.00    +0.039 A 
ATOM      4  C   LIG    1        0.002  -0.004   0.002  0.00  0.00    +0.046 A 
ATOM      5 BR   LIG    1       -1.617  -0.981   0.012  0.00  0.00    -0.048 Br
ATOM      6  C   LIG    1        1.232  -0.673  -0.013  0.00  0.00    +0.001 A 
ATOM      7  C   LIG    1        1.321  -2.078  -0.021  0.00  0.00    +0.029 A 
ATOM      8  C   LIG    1        2.553  -2.655  -0.036  0.00  0.00    +0.111 A 
ATOM      9  N   LIG    1        3.665  -1.931  -0.042  0.00  0.00    -0.263 NA
ATOM     10  C   LIG    1        3.659  -0.619  -0.036  0.00  0.00    +0.119 A 
ATOM     11  C   LIG    1        2.439   0.076  -0.021  0.00  0.00    +0.001 A 
ENDROOT
BRANCH   3  12
ATOM     12  N   LIG    1       -1.238   2.050   0.019  0.00  0.00    -0.357 N 
ATOM     13  H   LIG    1       -1.257   3.020   0.024  0.00  0.00    +0.142 HD
ATOM     14  H   LIG    1       -2.069   1.549   0.020  0.00  0.00    +0.142 HD
ENDBRANCH   3  12
TORSDOF 1
