REMARK  Name = ZINC13523862
REMARK                            x       y       z     vdW  Elec       q    Type
REMARK                         _______ _______ _______ _____ _____    ______ ____
ROOT
ATOM      1  C   LIG    1        2.512  -0.855  -5.881  0.00  0.00    +0.048 C 
ENDROOT
BRANCH   1   2
ATOM      2  C   LIG    1        2.707  -1.868  -4.752  0.00  0.00    +0.043 C 
BRANCH   2   6
ATOM      3  C   LIG    1        0.707  -0.490  -1.238  0.00  0.00    -0.042 A 
ATOM      4  C   LIG    1        0.036  -1.284  -2.148  0.00  0.00    +0.004 A 
ATOM      5  C   LIG    1        0.683  -1.730  -3.286  0.00  0.00    +0.004 A 
ATOM      6  C   LIG    1        2.001  -1.381  -3.513  0.00  0.00    -0.047 A 
ATOM      7  C   LIG    1        2.672  -0.586  -2.603  0.00  0.00    +0.004 A 
ATOM      8  C   LIG    1        2.024  -0.137  -1.467  0.00  0.00    +0.004 A 
BRANCH   3  10
ATOM      9  C   LIG    1       -0.019   1.526   0.010  0.00  0.00    +0.015 C 
ATOM     10  C   LIG    1        0.002  -0.004   0.002  0.00  0.00    -0.013 C 
ATOM     11  C   LIG    1       -1.433  -0.534   0.013  0.00  0.00    +0.015 C 
ATOM     12  C   LIG    1        0.742  -0.511   1.242  0.00  0.00    +0.015 C 
ENDBRANCH   3  10
ENDBRANCH   2   6
ENDBRANCH   1   2
BRANCH   1  13
ATOM     13  C   LIG    1        3.203   0.460  -5.512  0.00  0.00    +0.237 C 
BRANCH  13  14
ATOM     14  O   LIG    1        2.923   1.442  -6.512  0.00  0.00    -0.464 OA
BRANCH  14  15
ATOM     15  C   LIG    1        3.459   2.660  -6.336  0.00  0.00    +0.313 C 
ATOM     16  O   LIG    1        4.144   2.885  -5.366  0.00  0.00    -0.250 OA
BRANCH  15  17
ATOM     17  C   LIG    1        3.208   3.747  -7.349  0.00  0.00    +0.059 C 
ATOM     18  C   LIG    1        1.705   4.016  -7.447  0.00  0.00    +0.022 C 
ATOM     19  C   LIG    1        3.737   3.304  -8.715  0.00  0.00    +0.022 C 
ATOM     20  C   LIG    1        3.927   5.026  -6.914  0.00  0.00    +0.022 C 
ENDBRANCH  15  17
ENDBRANCH  14  15
ENDBRANCH  13  14
ENDBRANCH   1  13
BRANCH   1  21
ATOM     21  C   LIG    1        3.121  -1.406  -7.172  0.00  0.00    +0.110 C 
BRANCH  21  22
ATOM     22  N   LIG    1        2.830  -0.491  -8.279  0.00  0.00    -0.326 N 
ATOM     23  H   LIG    1        2.320   0.319  -8.118  0.00  0.00    +0.148 HD
BRANCH  22  24
ATOM     24  C   LIG    1        3.271  -0.774  -9.521  0.00  0.00    +0.131 C 
ATOM     25  S   LIG    1        4.171  -2.202  -9.805  0.00  0.00    -0.019 S 
BRANCH  24  26
ATOM     26  N   LIG    1        3.004   0.068 -10.539  0.00  0.00    -0.322 N 
ATOM     27  H   LIG    1        2.494   0.877 -10.378  0.00  0.00    +0.148 HD
BRANCH  26  28
ATOM     28  C   LIG    1        3.483  -0.239 -11.889  0.00  0.00    +0.138 C 
BRANCH  28  29
ATOM     29  C   LIG    1        3.053   0.852 -12.835  0.00  0.00    -0.027 A 
ATOM     30  C   LIG    1        1.839   0.759 -13.489  0.00  0.00    +0.009 A 
ATOM     31  C   LIG    1        1.440   1.758 -14.358  0.00  0.00    +0.049 A 
ATOM     32  C   LIG    1        2.258   2.855 -14.575  0.00  0.00    +0.158 A 
ATOM     33  C   LIG    1        3.481   2.948 -13.916  0.00  0.00    +0.162 A 
ATOM     34  C   LIG    1        3.872   1.946 -13.043  0.00  0.00    +0.054 A 
BRANCH  32  35
ATOM     35  O   LIG    1        1.868   3.837 -15.430  0.00  0.00    -0.503 OA
ATOM     36  H   LIG    1        1.362   4.547 -15.009  0.00  0.00    +0.292 HD
ENDBRANCH  32  35
BRANCH  33  37
ATOM     37  O   LIG    1        4.287   4.023 -14.126  0.00  0.00    -0.491 OA
ATOM     38  C   LIG    1        5.527   4.052 -13.416  0.00  0.00    +0.277 C 
ENDBRANCH  33  37
ENDBRANCH  28  29
ENDBRANCH  26  28
ENDBRANCH  24  26
ENDBRANCH  22  24
ENDBRANCH  21  22
ENDBRANCH   1  21
TORSDOF 15
