REMARK  Name = ZINC13122930
REMARK                            x       y       z     vdW  Elec       q    Type
REMARK                         _______ _______ _______ _____ _____    ______ ____
ROOT
ATOM      1  C   LIG    1        1.268  -2.144  -0.022  0.00  0.00    +0.158 A 
ATOM      2  N   LIG    1        2.409  -2.903  -0.033  0.00  0.00    -0.337 N 
ATOM      3  C   LIG    1        2.017  -4.227  -0.038  0.00  0.00    +0.068 A 
ATOM      4  C   LIG    1        2.704  -5.433  -0.049  0.00  0.00    +0.050 A 
ATOM      5  C   LIG    1        1.996  -6.623  -0.052  0.00  0.00    +0.027 A 
ATOM      6  C   LIG    1        0.602  -6.614  -0.045  0.00  0.00    +0.025 A 
ATOM      7  C   LIG    1       -0.085  -5.435  -0.036  0.00  0.00    +0.032 A 
ATOM      8  C   LIG    1        0.610  -4.220  -0.031  0.00  0.00    +0.090 A 
ATOM      9  H   LIG    1        3.321  -2.572  -0.035  0.00  0.00    +0.167 HD
ATOM     10  N   LIG    1        0.216  -2.924  -0.016  0.00  0.00    -0.226 NA
ENDROOT
BRANCH   1  15
ATOM     11  C   LIG    1       -0.017   1.380   0.010  0.00  0.00    +0.004 A 
ATOM     12  C   LIG    1        1.194   2.059   0.002  0.00  0.00    +0.020 A 
ATOM     13  C   LIG    1        2.375   1.340  -0.013  0.00  0.00    +0.111 A 
ATOM     14  N   LIG    1        2.366   0.023  -0.021  0.00  0.00    -0.252 NA
ATOM     15  C   LIG    1        1.230  -0.665  -0.014  0.00  0.00    +0.106 A 
ATOM     16  C   LIG    1        0.002  -0.004   0.002  0.00  0.00    +0.031 A 
ENDBRANCH   1  15
BRANCH   5  17
ATOM     17  N   LIG    1        2.683  -7.840  -0.063  0.00  0.00    -0.358 N 
ATOM     18  H   LIG    1        2.190  -8.676  -0.066  0.00  0.00    +0.142 HD
ATOM     19  H   LIG    1        3.653  -7.850  -0.068  0.00  0.00    +0.142 HD
ENDBRANCH   5  17
TORSDOF 2
