REMARK  Name = ZINC13013704
REMARK                            x       y       z     vdW  Elec       q    Type
REMARK                         _______ _______ _______ _____ _____    ______ ____
ROOT
ATOM      1  C   LIG    1        0.214   1.448  -0.014  0.00  0.00    +0.021 A 
ATOM      2  C   LIG    1        0.143   0.073   0.011  0.00  0.00    +0.026 A 
ATOM      3  C   LIG    1        1.307  -0.687  -0.045  0.00  0.00    +0.049 A 
ATOM      4  C   LIG    1        2.547  -0.061  -0.127  0.00  0.00    +0.026 A 
ATOM      5  C   LIG    1        2.627   1.313  -0.152  0.00  0.00    +0.021 A 
ATOM      6  C   LIG    1        1.459   2.080  -0.096  0.00  0.00    +0.052 A 
ENDROOT
BRANCH   3   7
ATOM      7  N   LIG    1        1.231  -2.076  -0.020  0.00  0.00    -0.207 N 
ATOM      8  H   LIG    1        1.467  -2.560   0.787  0.00  0.00    +0.175 HD
BRANCH   7   9
ATOM      9  S   LIG    1        0.737  -2.903  -1.367  0.00  0.00    +0.107 S 
ATOM     10  O   LIG    1       -0.449  -2.267  -1.822  0.00  0.00    -0.138 OA
ATOM     11  O   LIG    1        0.781  -4.284  -1.035  0.00  0.00    -0.138 OA
BRANCH   9  12
ATOM     12  N   LIG    1        1.883  -2.661  -2.538  0.00  0.00    -0.191 NA
ATOM     13  H   LIG    1        1.742  -3.006  -3.433  0.00  0.00    +0.146 HD
ATOM     14  H   LIG    1        2.695  -2.174  -2.328  0.00  0.00    +0.146 HD
ENDBRANCH   9  12
ENDBRANCH   7   9
ENDBRANCH   3   7
BRANCH   6  15
ATOM     15  C   LIG    1        1.537   3.510  -0.122  0.00  0.00    +0.099 C 
ATOM     16  N   LIG    1        1.600   4.644  -0.143  0.00  0.00    -0.191 NA
ENDBRANCH   6  15
TORSDOF 4
