REMARK  Name = ZINC13448098
REMARK                            x       y       z     vdW  Elec       q    Type
REMARK                         _______ _______ _______ _____ _____    ______ ____
ROOT
ATOM      1  C   LIG    1       -2.629   2.905  -0.987  0.00  0.00    -0.085 C 
ATOM      2  C   LIG    1       -3.067   3.926  -0.608  0.00  0.00    -0.119 C 
ENDROOT
BRANCH   1   3
ATOM      3  C   LIG    1       -2.081   1.624  -1.462  0.00  0.00    +0.197 C 
BRANCH   3  10
ATOM      4  C   LIG    1       -0.767   1.598   1.237  0.00  0.00    +0.028 C 
ATOM      5  C   LIG    1       -0.013   1.086   0.008  0.00  0.00    +0.074 C 
ATOM      6  C   LIG    1        1.429   1.640  -0.003  0.00  0.00    +0.031 C 
ATOM      7  C   LIG    1        1.675   1.850  -1.515  0.00  0.00    +0.098 C 
ATOM      8  C   LIG    1        0.289   2.022  -2.096  0.00  0.00    +0.217 C 
ATOM      9  O   LIG    1        0.047   2.482  -3.192  0.00  0.00    -0.276 OA
ATOM     10  N   LIG    1       -0.636   1.592  -1.220  0.00  0.00    -0.288 N 
ENDBRANCH   3  10
ENDBRANCH   1   3
BRANCH   2  11
ATOM     11  C   LIG    1       -3.615   5.207  -0.132  0.00  0.00    +0.012 C 
BRANCH  11  12
ATOM     12  N   LIG    1       -2.973   6.335  -0.873  0.00  0.00    +0.387 N 
ATOM     13  H   LIG    1       -1.988   6.404  -0.592  0.00  0.00    -0.080 HD
ATOM     14  C   LIG    1       -3.660   7.594  -0.582  0.00  0.00    -0.078 C 
ATOM     15  C   LIG    1       -3.583   8.432  -1.871  0.00  0.00    -0.020 C 
ATOM     16  C   LIG    1       -2.843   7.536  -2.891  0.00  0.00    -0.020 C 
ATOM     17  C   LIG    1       -3.062   6.111  -2.324  0.00  0.00    -0.078 C 
ENDBRANCH  11  12
ENDBRANCH   2  11
TORSDOF 4
