REMARK  Name = ZINC13526648
REMARK                            x       y       z     vdW  Elec       q    Type
REMARK                         _______ _______ _______ _____ _____    ______ ____
ROOT
ATOM      1  C   LIG    1       -9.035   4.788  -0.524  0.00  0.00    -0.012 C 
ATOM      2  C   LIG    1       -7.529   4.627  -0.737  0.00  0.00    -0.057 C 
ATOM      3  N   LIG    1       -6.877   5.942  -0.586  0.00  0.00    +0.383 N 
ATOM      4  H   LIG    1       -7.296   6.606  -1.248  0.00  0.00    -0.085 HD
ATOM      5  H   LIG    1       -7.016   6.281   0.373  0.00  0.00    -0.085 HD
ATOM      6  C   LIG    1       -5.429   5.835  -0.857  0.00  0.00    -0.063 C 
ATOM      7  C   LIG    1       -4.781   4.911   0.185  0.00  0.00    +0.089 C 
ATOM      8  N   LIG    1       -5.501   3.629   0.177  0.00  0.00    -0.300 N 
ATOM      9  C   LIG    1       -4.836   2.462   0.063  0.00  0.00    +0.263 C 
ATOM     10  O   LIG    1       -5.452   1.421  -0.060  0.00  0.00    -0.268 OA
ATOM     11  C   LIG    1       -6.966   3.654   0.304  0.00  0.00    +0.092 C 
ENDROOT
BRANCH   9  12
ATOM     12  C   LIG    1       -3.366   2.449   0.087  0.00  0.00    +0.103 A 
ATOM     13  C   LIG    1       -2.579   1.475  -0.441  0.00  0.00    +0.040 A 
ATOM     14  C   LIG    1       -1.230   1.841  -0.214  0.00  0.00    +0.000 A 
ATOM     15  C   LIG    1       -0.004   1.235  -0.519  0.00  0.00    +0.010 A 
ATOM     16  C   LIG    1        1.162   1.841  -0.153  0.00  0.00    +0.001 A 
ATOM     17  C   LIG    1        1.147   3.054   0.525  0.00  0.00    +0.002 A 
ATOM     18  C   LIG    1       -0.045   3.666   0.842  0.00  0.00    +0.026 A 
ATOM     19  C   LIG    1       -1.248   3.067   0.480  0.00  0.00    +0.047 A 
ATOM     20  N   LIG    1       -2.565   3.423   0.650  0.00  0.00    -0.351 N 
ATOM     21  H   LIG    1       -2.880   4.226   1.093  0.00  0.00    +0.166 HD
ENDBRANCH   9  12
TORSDOF 1
