REMARK  Name = ZINC13518429
REMARK                            x       y       z     vdW  Elec       q    Type
REMARK                         _______ _______ _______ _____ _____    ______ ____
ROOT
ATOM      1  C   LIG    1       -0.017   1.390   0.010  0.00  0.00    +0.059 A 
ATOM      2  C   LIG    1        1.189   2.095   0.002  0.00  0.00    +0.015 A 
ATOM      3  C   LIG    1        2.381   1.406  -0.015  0.00  0.00    +0.005 A 
ATOM      4  C   LIG    1        2.395   0.018  -0.025  0.00  0.00    -0.042 A 
ATOM      5  C   LIG    1        1.207  -0.686  -0.015  0.00  0.00    -0.030 A 
ATOM      6  C   LIG    1        1.176  -2.192  -0.019  0.00  0.00    +0.116 C 
ATOM      7  N   LIG    1        2.470  -2.732  -0.447  0.00  0.00    -0.312 NA
ATOM      8  H   LIG    1        2.473  -3.824  -0.317  0.00  0.00    +0.122 HD
ATOM      9  C   LIG    1        3.556  -2.148   0.357  0.00  0.00    +0.086 C 
ATOM     10  C   LIG    1        3.728  -0.685  -0.050  0.00  0.00    +0.050 C 
ATOM     11  C   LIG    1        0.002  -0.004   0.002  0.00  0.00    +0.020 A 
ENDROOT
BRANCH   1  12
ATOM     12  C   LIG    1       -1.303   2.116   0.020  0.00  0.00    +0.339 C 
ATOM     13  O   LIG    1       -2.349   1.499   0.021  0.00  0.00    -0.245 OA
BRANCH  12  15
ATOM     14  C   LIG    1       -2.616   4.110   0.037  0.00  0.00    +0.280 C 
ATOM     15  O   LIG    1       -1.316   3.463   0.027  0.00  0.00    -0.464 OA
ENDBRANCH  12  15
ENDBRANCH   1  12
TORSDOF 2
