REMARK  Name = ZINC13298454
REMARK                            x       y       z     vdW  Elec       q    Type
REMARK                         _______ _______ _______ _____ _____    ______ ____
ROOT
ATOM      1  N   ALA A  1        1.507  -3.438  -1.903  0.00  0.00    +0.395 N 
ATOM      2  H1  ALA A  1        2.020  -3.840  -2.673  0.00  0.00    -0.084 HD
ATOM      3  H2  ALA A  1        0.552  -3.764  -1.927  0.00  0.00    -0.084 HD
ENDROOT
BRANCH   1   4
ATOM      4  CA  ALA A  1        2.130  -3.841  -0.635  0.00  0.00    +0.014 C 
ATOM      5  CB  ALA A  1        3.611  -3.456  -0.649  0.00  0.00    -0.004 C 
BRANCH   4   6
ATOM      6  C   ALA A  1        2.001  -5.333  -0.464  0.00  0.00    +0.202 C 
ATOM      7  N   UNK A  2        2.585  -5.944   0.585  0.00  0.00    -0.286 N 
ATOM      8  C   UNK A  2        3.255  -5.279   1.706  0.00  0.00    +0.080 C 
ATOM      9  C   UNK A  2        2.667  -3.924   2.027  0.00  0.00    +0.023 C 
ATOM     10  C   UNK A  2        1.238  -4.053   2.554  0.00  0.00    +0.002 C 
ATOM     11  C   UNK A  2        1.264  -4.919   3.818  0.00  0.00    +0.000 C 
ATOM     12  C   UNK A  2        1.747  -6.317   3.442  0.00  0.00    +0.005 C 
ATOM     13  C   UNK A  2        3.157  -6.259   2.889  0.00  0.00    +0.012 C 
ATOM     14  C   UNK A  2        3.386  -7.616   2.155  0.00  0.00    +0.039 C 
ATOM     15  C   UNK A  2        2.656  -7.399   0.811  0.00  0.00    +0.185 C 
ATOM     16  O   ALA A  1        1.371  -5.983  -1.271  0.00  0.00    -0.277 OA
BRANCH  15  17
ATOM     17  C   UNK A  2        1.266  -7.976   0.881  0.00  0.00    +0.325 C 
ATOM     18  O   UNK A  2        1.111  -9.178   1.012  0.00  0.00    -0.249 OA
BRANCH  17  19
ATOM     19  O   UNK A  2        0.296  -7.241   0.806  0.00  0.00    -0.479 OA
ATOM     20  H   UNK A  2        0.416  -6.317   0.706  0.00  0.00    +0.295 HD
ENDBRANCH  17  19
ENDBRANCH  15  17
ENDBRANCH   4   6
ENDBRANCH   1   4
BRANCH   1  21
ATOM     21  C   UNK A  0        1.526  -1.973  -2.014  0.00  0.00    +0.040 C 
BRANCH  21  22
ATOM     22  C   UNK A  0        0.659  -1.376  -0.935  0.00  0.00    +0.293 C 
ATOM     23  O   UNK A  0        0.084  -2.097  -0.154  0.00  0.00    -0.253 OA
BRANCH  22  24
ATOM     24  O   UNK A  0        0.526  -0.044  -0.842  0.00  0.00    -0.466 OA
BRANCH  24  26
ATOM     25  C   UNK A  0       -0.341   1.982   0.152  0.00  0.00    +0.048 C 
ATOM     26  C   UNK A  0       -0.312   0.453   0.204  0.00  0.00    +0.228 C 
ENDBRANCH  24  26
ENDBRANCH  22  24
ENDBRANCH  21  22
BRANCH  21  27
ATOM     27  C   UNK A  0        0.992  -1.558  -3.386  0.00  0.00    -0.000 C 
BRANCH  27  28
ATOM     28  C   UNK A  0        1.941  -2.059  -4.476  0.00  0.00    +0.034 C 
BRANCH  28  29
ATOM     29  C   UNK A  0        1.414  -1.651  -5.827  0.00  0.00    -0.047 A 
ATOM     30  C   UNK A  0        0.550  -2.484  -6.513  0.00  0.00    +0.003 A 
ATOM     31  C   UNK A  0        0.067  -2.109  -7.753  0.00  0.00    +0.000 A 
ATOM     32  C   UNK A  0        0.448  -0.901  -8.307  0.00  0.00    +0.000 A 
ATOM     33  C   UNK A  0        1.311  -0.068  -7.621  0.00  0.00    +0.000 A 
ATOM     34  C   UNK A  0        1.791  -0.441  -6.379  0.00  0.00    +0.003 A 
ENDBRANCH  28  29
ENDBRANCH  27  28
ENDBRANCH  21  27
ENDBRANCH   1  21
TORSDOF 11
