REMARK  Name = ZINC13514984
REMARK                            x       y       z     vdW  Elec       q    Type
REMARK                         _______ _______ _______ _____ _____    ______ ____
ROOT
ATOM      1  C   LIG    1       -0.016   1.355   0.009  0.00  0.00    +0.174 A 
ATOM      2  C   LIG    1       -1.356   1.754   0.018  0.00  0.00    +0.168 A 
ATOM      3  N   LIG    1       -1.659   3.058   0.026  0.00  0.00    -0.197 NA
ATOM      4  C   LIG    1       -0.718   3.974   0.026  0.00  0.00    +0.195 A 
ATOM      5  N   LIG    1        0.605   3.647   0.018  0.00  0.00    -0.293 N 
ATOM      6  H   LIG    1        1.276   4.347   0.018  0.00  0.00    +0.172 HD
ATOM      7  N   LIG    1       -2.101   0.601   0.015  0.00  0.00    -0.311 N 
ATOM      8  C   LIG    1       -1.227  -0.452   0.005  0.00  0.00    +0.193 A 
ATOM      9  H   LIG    1       -3.069   0.544   0.018  0.00  0.00    +0.170 HD
ATOM     10  C   LIG    1        0.987   2.350   0.005  0.00  0.00    +0.280 A 
ATOM     11  O   LIG    1        2.168   2.047  -0.008  0.00  0.00    -0.265 OA
ATOM     12  N   LIG    1        0.002  -0.004   0.002  0.00  0.00    -0.208 NA
ENDROOT
BRANCH   4  13
ATOM     13  N   LIG    1       -1.077   5.300   0.035  0.00  0.00    -0.329 N 
ATOM     14  H   LIG    1       -0.393   5.988   0.035  0.00  0.00    +0.145 HD
ATOM     15  H   LIG    1       -2.014   5.548   0.040  0.00  0.00    +0.145 HD
ENDBRANCH   4  13
BRANCH   8  16
ATOM     16  N   LIG    1       -1.589  -1.787  -0.000  0.00  0.00    -0.329 N 
ATOM     17  H   LIG    1       -0.905  -2.475  -0.007  0.00  0.00    +0.145 HD
ATOM     18  H   LIG    1       -2.527  -2.035   0.003  0.00  0.00    +0.145 HD
ENDBRANCH   8  16
TORSDOF 2
