REMARK  Name = ZINC13453678
REMARK                            x       y       z     vdW  Elec       q    Type
REMARK                         _______ _______ _______ _____ _____    ______ ____
ROOT
ATOM      1  C   LIG    1       -2.207   0.938  -1.076  0.00  0.00    +0.125 C 
ENDROOT
BRANCH   1   2
ATOM      2  O   LIG    1       -2.132  -0.486  -1.167  0.00  0.00    -0.391 OA
ATOM      3  H   LIG    1       -1.714  -0.807  -1.978  0.00  0.00    +0.210 HD
ENDBRANCH   1   2
BRANCH   1   4
ATOM      4  C   LIG    1       -0.795   1.527  -1.120  0.00  0.00    -0.052 C 
BRANCH   4   5
ATOM      5  N   LIG    1       -0.025   1.014   0.027  0.00  0.00    +0.380 N 
ATOM      6  H   LIG    1       -0.476   1.316   0.899  0.00  0.00    -0.090 HD
ATOM      7  H   LIG    1        0.925   1.379   0.001  0.00  0.00    -0.090 HD
ATOM      8  H   LIG    1        0.002  -0.004   0.002  0.00  0.00    -0.090 HD
ENDBRANCH   4   5
ENDBRANCH   1   4
BRANCH   1   9
ATOM      9  C   LIG    1       -3.023   1.482  -2.250  0.00  0.00    +0.214 C 
BRANCH   9  10
ATOM     10  O   LIG    1       -4.373   1.025  -2.144  0.00  0.00    -0.300 OA
BRANCH  10  11
ATOM     11  N   LIG    1       -5.245   1.489  -3.223  0.00  0.00    -0.215 NA
ATOM     12  H   LIG    1       -6.185   1.141  -3.103  0.00  0.00    +0.150 HD
ATOM     13  H   LIG    1       -4.875   1.229  -4.124  0.00  0.00    +0.150 HD
ENDBRANCH  10  11
ENDBRANCH   9  10
ENDBRANCH   1   9
TORSDOF 6
