REMARK  Name = ZINC13444114
REMARK                            x       y       z     vdW  Elec       q    Type
REMARK                         _______ _______ _______ _____ _____    ______ ____
ROOT
ATOM      1  C   LIG    1       -2.886   3.153  -4.502  0.00  0.00    +0.065 C 
ATOM      2  C   LIG    1       -2.128   2.587  -3.329  0.00  0.00    +0.038 A 
ATOM      3  C   LIG    1       -1.635   1.298  -3.392  0.00  0.00    +0.023 A 
ATOM      4  C   LIG    1       -0.933   0.788  -2.310  0.00  0.00    +0.005 A 
ATOM      5  C   LIG    1       -0.763   1.595  -1.195  0.00  0.00    -0.043 A 
ATOM      6  C   LIG    1       -1.285   2.875  -1.204  0.00  0.00    +0.113 A 
ATOM      7  N   LIG    1       -1.942   3.328  -2.254  0.00  0.00    -0.260 NA
ENDROOT
BRANCH   5   8
ATOM      8  C   LIG    1       -0.013   1.086   0.008  0.00  0.00    -0.037 C 
ATOM      9  N   LIG    1       -0.627   1.582   1.240  0.00  0.00    +0.382 N 
ATOM     10  H   LIG    1       -1.119   2.463   1.052  0.00  0.00    -0.081 HD
ATOM     11  C   LIG    1       -1.598   0.584   1.779  0.00  0.00    -0.095 C 
ATOM     12  C   LIG    1        0.457   1.816   2.207  0.00  0.00    -0.078 C 
ATOM     13  C   LIG    1        1.569   2.424   1.316  0.00  0.00    -0.020 C 
ATOM     14  C   LIG    1        1.428   1.630  -0.003  0.00  0.00    -0.013 C 
ENDBRANCH   5   8
TORSDOF 1
