REMARK  Name = ZINC13153883
REMARK                            x       y       z     vdW  Elec       q    Type
REMARK                         _______ _______ _______ _____ _____    ______ ____
ROOT
ATOM      1  N   LIG    1        6.075   0.589   2.771  0.00  0.00    -0.327 N 
ATOM      2  H   LIG    1        5.452   0.594   3.514  0.00  0.00    +0.148 HD
ENDROOT
BRANCH   1   3
ATOM      3  C   LIG    1        7.403   0.570   3.005  0.00  0.00    +0.130 C 
ATOM      4  S   LIG    1        8.503   0.561   1.693  0.00  0.00    -0.019 S 
BRANCH   3   5
ATOM      5  N   LIG    1        7.864   0.557   4.271  0.00  0.00    -0.324 N 
ATOM      6  H   LIG    1        7.241   0.561   5.014  0.00  0.00    +0.148 HD
BRANCH   5   7
ATOM      7  C   LIG    1        9.307   0.536   4.525  0.00  0.00    +0.072 C 
ATOM      8  C   LIG    1        9.811  -0.908   4.482  0.00  0.00    +0.022 C 
ATOM      9  C   LIG    1       11.318  -0.930   4.747  0.00  0.00    +0.002 C 
ATOM     10  C   LIG    1       11.602  -0.332   6.126  0.00  0.00    +0.000 C 
ATOM     11  C   LIG    1       11.097   1.112   6.169  0.00  0.00    +0.002 C 
ATOM     12  C   LIG    1        9.591   1.134   5.904  0.00  0.00    +0.022 C 
ENDBRANCH   5   7
ENDBRANCH   3   5
ENDBRANCH   1   3
BRANCH   1  13
ATOM     13  C   LIG    1        5.574   0.603   1.395  0.00  0.00    +0.105 C 
BRANCH  13  14
ATOM     14  C   LIG    1        4.044   0.624   1.409  0.00  0.00    +0.040 C 
BRANCH  14  15
ATOM     15  C   LIG    1        3.521   0.638  -0.028  0.00  0.00    +0.124 C 
BRANCH  15  18
ATOM     16  C   LIG    1       -0.016   1.337   0.009  0.00  0.00    +0.101 A 
ATOM     17  C   LIG    1        1.259   1.771  -0.000  0.00  0.00    +0.104 A 
ATOM     18  N   LIG    1        2.056   0.658  -0.014  0.00  0.00    -0.338 N 
ATOM     19  C   LIG    1        1.240  -0.418  -0.012  0.00  0.00    +0.173 A 
ATOM     20  N   LIG    1        0.002  -0.004   0.002  0.00  0.00    -0.352 N 
ATOM     21  H   LIG    1       -0.781  -0.576   0.007  0.00  0.00    +0.166 HD
ENDBRANCH  15  18
ENDBRANCH  14  15
ENDBRANCH  13  14
ENDBRANCH   1  13
TORSDOF 7
