REMARK  Name = ZINC13465359
REMARK                            x       y       z     vdW  Elec       q    Type
REMARK                         _______ _______ _______ _____ _____    ______ ____
ROOT
ATOM      1  C   LIG    1       -4.059   5.016  -0.140  0.00  0.00    +0.100 A 
ATOM      2  C   LIG    1       -3.008   3.995  -0.045  0.00  0.00    +0.021 A 
ATOM      3  C   LIG    1       -3.656   2.770  -0.057  0.00  0.00    +0.113 A 
ATOM      4  N   LIG    1       -4.974   3.005  -0.141  0.00  0.00    -0.284 N 
ATOM      5  H   LIG    1       -5.684   2.300  -0.162  0.00  0.00    +0.188 HD
ATOM      6  N   LIG    1       -5.207   4.382  -0.195  0.00  0.00    -0.173 NA
ENDROOT
BRANCH   2   7
ATOM      7  C   LIG    1       -1.565   4.224   0.040  0.00  0.00    +0.025 C 
ATOM      8  C   LIG    1       -0.779   3.388   0.799  0.00  0.00    +0.047 C 
ATOM      9  C   LIG    1        0.699   3.366   0.877  0.00  0.00    +0.008 A 
ATOM     10  C   LIG    1        1.697   4.116   0.265  0.00  0.00    +0.010 A 
ATOM     11  C   LIG    1        3.022   3.853   0.547  0.00  0.00    +0.001 A 
ATOM     12  C   LIG    1        3.356   2.845   1.437  0.00  0.00    +0.002 A 
ATOM     13  C   LIG    1        2.373   2.095   2.050  0.00  0.00    +0.024 A 
ATOM     14  C   LIG    1        1.032   2.346   1.778  0.00  0.00    +0.042 A 
ATOM     15  N   LIG    1       -0.134   1.752   2.247  0.00  0.00    -0.281 N 
ATOM     16  H   LIG    1       -0.156   1.020   2.883  0.00  0.00    +0.155 HD
ATOM     17  C   LIG    1       -1.225   2.318   1.704  0.00  0.00    +0.249 C 
ATOM     18  O   LIG    1       -2.380   2.001   1.924  0.00  0.00    -0.270 OA
ENDBRANCH   2   7
BRANCH   1  22
ATOM     19  C   LIG    1       -3.490   9.228  -0.226  0.00  0.00    +0.000 A 
ATOM     20  C   LIG    1       -4.511   8.656  -0.963  0.00  0.00    +0.001 A 
ATOM     21  C   LIG    1       -4.700   7.289  -0.939  0.00  0.00    +0.010 A 
ATOM     22  C   LIG    1       -3.861   6.485  -0.170  0.00  0.00    +0.003 A 
ATOM     23  C   LIG    1       -2.837   7.068   0.575  0.00  0.00    +0.010 A 
ATOM     24  C   LIG    1       -2.654   8.436   0.539  0.00  0.00    +0.001 A 
ENDBRANCH   1  22
TORSDOF 2
