REMARK  Name = ZINC13492626
REMARK                            x       y       z     vdW  Elec       q    Type
REMARK                         _______ _______ _______ _____ _____    ______ ____
ROOT
ATOM      1  C   LIG    1       -3.105  -5.220   0.017  0.00  0.00    +0.096 C 
ATOM      2  C   LIG    1       -2.847  -6.178  -1.172  0.00  0.00    +0.058 C 
ATOM      3  C   LIG    1       -3.488  -7.503  -0.689  0.00  0.00    +0.141 C 
ATOM      4  C   LIG    1       -3.156  -7.557   0.817  0.00  0.00    +0.027 C 
ATOM      5  C   LIG    1       -4.121  -6.881   1.794  0.00  0.00    +0.018 C 
ATOM      6  C   LIG    1       -2.913  -6.105   1.265  0.00  0.00    +0.024 C 
ENDROOT
BRANCH   1  10
ATOM      7  C   LIG    1       -1.187  -0.712   0.010  0.00  0.00    +0.151 A 
ATOM      8  C   LIG    1       -1.186  -2.118   0.008  0.00  0.00    +0.148 A 
ATOM      9  C   LIG    1       -2.424  -2.782   0.016  0.00  0.00    +0.167 A 
ATOM     10  N   LIG    1       -2.134  -4.123   0.011  0.00  0.00    -0.311 N 
ATOM     11  C   LIG    1       -0.776  -4.247   0.001  0.00  0.00    +0.202 A 
ATOM     12  N   LIG    1       -3.543  -2.064   0.025  0.00  0.00    -0.198 NA
ATOM     13  C   LIG    1       -3.495  -0.747   0.026  0.00  0.00    +0.226 A 
ATOM     14 CL   LIG    1       -4.986   0.143   0.038  0.00  0.00    -0.041 Cl
ATOM     15  N   LIG    1       -0.222  -3.070  -0.001  0.00  0.00    -0.231 NA
ATOM     16  N   LIG    1       -2.355  -0.079   0.024  0.00  0.00    -0.200 NA
BRANCH   7  18
ATOM     17  C   LIG    1       -0.018   1.461   0.010  0.00  0.00    +0.127 C 
ATOM     18  N   LIG    1        0.002  -0.004   0.002  0.00  0.00    -0.330 N 
ATOM     19  H   LIG    1        0.849  -0.478  -0.009  0.00  0.00    +0.147 HD
ENDBRANCH   7  18
ENDBRANCH   1  10
BRANCH   3  20
ATOM     20  O   LIG    1       -4.903  -7.475  -0.889  0.00  0.00    -0.283 OA
BRANCH  20  21
ATOM     21  P   LIG    1       -5.682  -8.558  -1.791  0.00  0.00    +0.473 P 
ATOM     22  O   LIG    1       -5.050  -8.595  -3.224  0.00  0.00    -0.228 OA
BRANCH  21  23
ATOM     23  O   LIG    1       -7.193  -8.158  -1.897  0.00  0.00    -0.303 OA
ATOM     24  H   LIG    1       -7.268  -7.282  -2.307  0.00  0.00    +0.222 HD
ENDBRANCH  21  23
BRANCH  21  25
ATOM     25  O   LIG    1       -5.561  -9.973  -1.129  0.00  0.00    -0.303 OA
ATOM     26  H   LIG    1       -4.626 -10.220  -1.064  0.00  0.00    +0.222 HD
ENDBRANCH  21  25
ENDBRANCH  20  21
ENDBRANCH   3  20
BRANCH   4  27
ATOM     27  C   LIG    1       -2.285  -8.716   1.305  0.00  0.00    +0.182 C 
BRANCH  27  28
ATOM     28  O   LIG    1       -2.749  -9.937   0.726  0.00  0.00    -0.286 OA
BRANCH  28  29
ATOM     29  P   LIG    1       -2.063 -11.363   1.021  0.00  0.00    +0.472 P 
ATOM     30  O   LIG    1       -0.534 -11.287   0.687  0.00  0.00    -0.228 OA
BRANCH  29  31
ATOM     31  O   LIG    1       -2.737 -12.462   0.131  0.00  0.00    -0.303 OA
ATOM     32  H   LIG    1       -2.622 -12.235  -0.805  0.00  0.00    +0.222 HD
ENDBRANCH  29  31
BRANCH  29  33
ATOM     33  O   LIG    1       -2.249 -11.729   2.533  0.00  0.00    -0.303 OA
ATOM     34  H   LIG    1       -1.831 -11.049   3.084  0.00  0.00    +0.222 HD
ENDBRANCH  29  33
ENDBRANCH  28  29
ENDBRANCH  27  28
ENDBRANCH   4  27
TORSDOF 11
