REMARK  Name = ZINC13538196
REMARK                            x       y       z     vdW  Elec       q    Type
REMARK                         _______ _______ _______ _____ _____    ______ ____
ROOT
ATOM      1  C   LIG    1        7.103  -2.604  -4.629  0.00  0.00    +0.091 A 
ATOM      2  C   LIG    1        6.930  -2.508  -3.232  0.00  0.00    +0.117 A 
ATOM      3  C   LIG    1        5.715  -1.835  -3.016  0.00  0.00    +0.124 A 
ATOM      4  N   LIG    1        5.201  -1.540  -4.250  0.00  0.00    -0.272 N 
ATOM      5  H   LIG    1        4.345  -1.057  -4.431  0.00  0.00    +0.189 HD
ATOM      6  C   LIG    1        5.308  -1.600  -1.695  0.00  0.00    +0.148 A 
ATOM      7  N   LIG    1        6.083  -2.034  -0.707  0.00  0.00    -0.219 NA
ATOM      8  C   LIG    1        7.217  -2.668  -0.952  0.00  0.00    +0.224 A 
ATOM      9  N   LIG    1        7.643  -2.907  -2.171  0.00  0.00    -0.232 NA
ATOM     10  N   LIG    1        6.087  -2.035  -5.216  0.00  0.00    -0.176 NA
ENDROOT
BRANCH   1  12
ATOM     11  C   LIG    1        7.761  -4.403  -6.204  0.00  0.00    +0.014 C 
ATOM     12  C   LIG    1        8.268  -3.256  -5.327  0.00  0.00    +0.035 C 
ATOM     13  C   LIG    1        8.982  -2.223  -6.202  0.00  0.00    +0.014 C 
ENDBRANCH   1  12
BRANCH   6  14
ATOM     14  N   LIG    1        4.123  -0.938  -1.426  0.00  0.00    -0.323 N 
ATOM     15  H   LIG    1        3.566  -0.626  -2.156  0.00  0.00    +0.148 HD
BRANCH  14  16
ATOM     16  C   LIG    1        3.711  -0.707  -0.039  0.00  0.00    +0.138 C 
BRANCH  16  17
ATOM     17  C   LIG    1        2.396   0.029  -0.022  0.00  0.00    -0.030 A 
ATOM     18  C   LIG    1        1.208  -0.679  -0.014  0.00  0.00    +0.005 A 
ATOM     19  C   LIG    1        0.002  -0.004   0.002  0.00  0.00    +0.000 A 
ATOM     20  C   LIG    1       -0.017   1.378   0.010  0.00  0.00    +0.000 A 
ATOM     21  C   LIG    1        1.171   2.086   0.002  0.00  0.00    +0.000 A 
ATOM     22  C   LIG    1        2.377   1.411  -0.014  0.00  0.00    +0.005 A 
ENDBRANCH  16  17
ENDBRANCH  14  16
ENDBRANCH   6  14
TORSDOF 4
