REMARK  Name = ZINC13531907
REMARK                            x       y       z     vdW  Elec       q    Type
REMARK                         _______ _______ _______ _____ _____    ______ ____
ROOT
ATOM      1  N   LIG    1       -2.391   3.888   0.009  0.00  0.00    -0.268 N 
ATOM      2  H   LIG    1       -3.245   3.437  -0.084  0.00  0.00    +0.156 HD
ATOM      3  C   LIG    1       -2.348   5.229   0.142  0.00  0.00    +0.308 C 
ATOM      4  N   LIG    1       -3.491   5.932   0.259  0.00  0.00    -0.268 N 
ATOM      5  H   LIG    1       -4.340   5.468   0.334  0.00  0.00    +0.156 HD
ATOM      6  O   LIG    1       -1.276   5.803   0.155  0.00  0.00    -0.252 OA
ENDROOT
BRANCH   4   7
ATOM      7  C   LIG    1       -3.454   7.324   0.274  0.00  0.00    +0.050 A 
ATOM      8  C   LIG    1       -2.405   8.000  -0.332  0.00  0.00    +0.044 A 
ATOM      9  C   LIG    1       -2.373   9.381  -0.321  0.00  0.00    +0.043 A 
ATOM     10 CL   LIG    1       -1.060  10.220  -1.087  0.00  0.00    -0.083 Cl
ATOM     11  C   LIG    1       -3.381  10.101   0.303  0.00  0.00    +0.021 A 
ATOM     12  C   LIG    1       -4.427   9.447   0.914  0.00  0.00    +0.018 A 
ATOM     13  C   LIG    1       -4.476   8.050   0.906  0.00  0.00    +0.080 A 
BRANCH  13  14
ATOM     14  C   LIG    1       -5.592   7.343   1.558  0.00  0.00    +0.339 C 
ATOM     15  O   LIG    1       -5.582   6.131   1.634  0.00  0.00    -0.245 OA
BRANCH  14  16
ATOM     16  O   LIG    1       -6.625   8.042   2.069  0.00  0.00    -0.477 OA
ATOM     17  H   LIG    1       -6.633   8.978   2.010  0.00  0.00    +0.295 HD
ENDBRANCH  14  16
ENDBRANCH  13  14
ENDBRANCH   4   7
BRANCH   1  20
ATOM     18  C   LIG    1        1.085   2.861   0.614  0.00  0.00    +0.021 A 
ATOM     19  C   LIG    1       -0.068   3.629   0.649  0.00  0.00    +0.026 A 
ATOM     20  C   LIG    1       -1.205   3.146   0.007  0.00  0.00    +0.053 A 
ATOM     21  C   LIG    1       -1.145   1.914  -0.631  0.00  0.00    +0.134 A 
ATOM     22  N   LIG    1       -0.030   1.212  -0.636  0.00  0.00    -0.261 NA
ATOM     23  C   LIG    1        1.065   1.645  -0.042  0.00  0.00    +0.111 A 
ENDBRANCH   1  20
TORSDOF 4
