REMARK  Name = ZINC13298436
REMARK                            x       y       z     vdW  Elec       q    Type
REMARK                         _______ _______ _______ _____ _____    ______ ____
ROOT
ATOM      1  C   LIG    1       -0.230  -5.344  -2.377  0.00  0.00    -0.008 A 
ATOM      2  C   LIG    1       -1.322  -4.739  -1.780  0.00  0.00    +0.008 A 
ATOM      3  C   LIG    1       -2.601  -5.096  -2.153  0.00  0.00    +0.009 A 
ATOM      4  C   LIG    1       -2.793  -6.068  -3.134  0.00  0.00    -0.017 A 
ATOM      5  C   LIG    1       -1.689  -6.674  -3.731  0.00  0.00    +0.009 A 
ATOM      6  C   LIG    1       -0.414  -6.305  -3.354  0.00  0.00    +0.008 A 
ENDROOT
BRANCH   4   7
ATOM      7  C   LIG    1       -4.165  -6.456  -3.538  0.00  0.00    -0.007 A 
ATOM      8  C   LIG    1       -5.114  -6.781  -2.573  0.00  0.00    +0.009 A 
ATOM      9  C   LIG    1       -6.391  -7.142  -2.954  0.00  0.00    +0.001 A 
ATOM     10  C   LIG    1       -6.737  -7.183  -4.295  0.00  0.00    +0.001 A 
ATOM     11  C   LIG    1       -5.809  -6.864  -5.265  0.00  0.00    +0.012 A 
ATOM     12  C   LIG    1       -4.517  -6.492  -4.898  0.00  0.00    +0.028 A 
BRANCH  12  13
ATOM     13  C   LIG    1       -3.521  -6.144  -5.934  0.00  0.00    +0.180 A 
ATOM     14  N   LIG    1       -2.252  -5.783  -5.732  0.00  0.00    -0.239 N 
ATOM     15  H   LIG    1       -1.802  -5.698  -4.860  0.00  0.00    +0.192 HD
ATOM     16  N   LIG    1       -1.723  -5.565  -6.887  0.00  0.00    -0.046 NA
ATOM     17  N   LIG    1       -2.603  -5.773  -7.803  0.00  0.00    -0.023 NA
ATOM     18  N   LIG    1       -3.712  -6.134  -7.254  0.00  0.00    -0.108 NA
ENDBRANCH  12  13
ENDBRANCH   4   7
BRANCH   1  19
ATOM     19  C   LIG    1        1.165  -4.950  -1.965  0.00  0.00    +0.270 C 
BRANCH  19  29
ATOM     20  C   LIG    1        1.444  -2.513  -2.505  0.00  0.00    +0.292 C 
ATOM     21  N   LIG    1        1.945  -1.724  -3.394  0.00  0.00    -0.069 NA
ATOM     22  C   LIG    1        2.539  -2.564  -4.434  0.00  0.00    +0.249 C 
ATOM     23  C   LIG    1        2.285  -3.978  -3.973  0.00  0.00    +0.356 C 
ATOM     24  O   LIG    1        2.605  -5.008  -4.527  0.00  0.00    -0.242 OA
ATOM     25  C   LIG    1        1.884  -2.305  -5.798  0.00  0.00    +0.069 C 
ATOM     26  C   LIG    1        2.871  -1.346  -6.511  0.00  0.00    +0.005 C 
ATOM     27  C   LIG    1        4.255  -1.875  -6.057  0.00  0.00    +0.005 C 
ATOM     28  C   LIG    1        4.037  -2.292  -4.585  0.00  0.00    +0.069 C 
ATOM     29  N   LIG    1        1.625  -3.838  -2.801  0.00  0.00    -0.153 N 
BRANCH  20  30
ATOM     30  C   LIG    1        0.739  -2.027  -1.265  0.00  0.00    +0.128 C 
BRANCH  30  31
ATOM     31  C   LIG    1        0.718  -0.497  -1.257  0.00  0.00    +0.012 C 
BRANCH  31  33
ATOM     32  C   LIG    1       -0.019   1.526   0.010  0.00  0.00    +0.004 C 
ATOM     33  C   LIG    1        0.002  -0.004   0.002  0.00  0.00    -0.003 C 
ENDBRANCH  31  33
ENDBRANCH  30  31
ENDBRANCH  20  30
ENDBRANCH  19  29
ENDBRANCH   1  19
TORSDOF 7
