REMARK  Name = ZINC13488372
REMARK                            x       y       z     vdW  Elec       q    Type
REMARK                         _______ _______ _______ _____ _____    ______ ____
ROOT
ATOM      1  C   LIG    1        0.027   0.051  -0.175  0.00  0.00    +0.077 C 
ATOM      2  C   LIG    1        1.345  -0.365   0.515  0.00  0.00    +0.031 C 
ATOM      3  C   LIG    1        2.207   0.907   0.339  0.00  0.00    +0.098 C 
ATOM      4  C   LIG    1        1.197   2.023   0.193  0.00  0.00    +0.216 C 
ATOM      5  O   LIG    1        1.445   3.204   0.313  0.00  0.00    -0.276 OA
ATOM      6  N   LIG    1       -0.015   1.516  -0.089  0.00  0.00    -0.298 N 
ENDROOT
BRANCH   1   7
ATOM      7  C   LIG    1       -1.170  -0.557   0.560  0.00  0.00    +0.025 C 
BRANCH   7   8
ATOM      8  C   LIG    1       -1.180  -2.073   0.351  0.00  0.00    +0.033 C 
BRANCH   8   9
ATOM      9  C   LIG    1       -2.415  -2.672   1.026  0.00  0.00    +0.115 C 
BRANCH   9  10
ATOM     10  O   LIG    1       -3.594  -2.193   0.375  0.00  0.00    -0.392 OA
ATOM     11  H   LIG    1       -3.644  -2.419  -0.564  0.00  0.00    +0.210 HD
ENDBRANCH   9  10
BRANCH   9  12
ATOM     12  C   LIG    1       -2.361  -4.198   0.925  0.00  0.00    +0.031 C 
BRANCH  12  13
ATOM     13  C   LIG    1       -3.530  -4.803   1.706  0.00  0.00    +0.002 C 
BRANCH  13  14
ATOM     14  C   LIG    1       -3.476  -6.328   1.605  0.00  0.00    -0.000 C 
BRANCH  14  16
ATOM     15  C   LIG    1       -4.590  -8.458   2.285  0.00  0.00    +0.004 C 
ATOM     16  C   LIG    1       -4.644  -6.933   2.387  0.00  0.00    -0.003 C 
ENDBRANCH  14  16
ENDBRANCH  13  14
ENDBRANCH  12  13
ENDBRANCH   9  12
ENDBRANCH   8   9
ENDBRANCH   7   8
ENDBRANCH   1   7
BRANCH   6  17
ATOM     17  C   LIG    1       -1.222   2.321  -0.290  0.00  0.00    +0.108 C 
BRANCH  17  18
ATOM     18  C   LIG    1       -1.863   2.628   1.065  0.00  0.00    +0.019 C 
BRANCH  18  19
ATOM     19  C   LIG    1       -3.124   3.469   0.854  0.00  0.00    +0.002 C 
BRANCH  19  20
ATOM     20  C   LIG    1       -3.764   3.776   2.209  0.00  0.00    +0.001 C 
BRANCH  20  21
ATOM     21  C   LIG    1       -5.025   4.617   1.998  0.00  0.00    +0.011 C 
BRANCH  21  22
ATOM     22  C   LIG    1       -5.666   4.924   3.353  0.00  0.00    +0.120 C 
BRANCH  22  23
ATOM     23  C   LIG    1       -6.907   5.752   3.146  0.00  0.00    +0.305 C 
ATOM     24  O   LIG    1       -7.245   6.065   2.029  0.00  0.00    -0.251 OA
BRANCH  23  25
ATOM     25  O   LIG    1       -7.638   6.143   4.202  0.00  0.00    -0.481 OA
ATOM     26  H   LIG    1       -7.376   5.900   5.068  0.00  0.00    +0.295 HD
ENDBRANCH  23  25
ENDBRANCH  22  23
ENDBRANCH  21  22
ENDBRANCH  20  21
ENDBRANCH  19  20
ENDBRANCH  18  19
ENDBRANCH  17  18
ENDBRANCH   6  17
TORSDOF 16
