REMARK  Name = ZINC13537284
REMARK                            x       y       z     vdW  Elec       q    Type
REMARK                         _______ _______ _______ _____ _____    ______ ____
ROOT
ATOM      1  N   LIG    1        1.347   0.066  -2.926  0.00  0.00    -0.291 N 
ATOM      2  C   LIG    1        1.760   1.449  -2.728  0.00  0.00    +0.114 C 
ATOM      3  C   LIG    1        3.213   1.569  -2.267  0.00  0.00    +0.073 C 
ATOM      4  C   LIG    1        4.074   0.681  -3.131  0.00  0.00    +0.033 A 
ATOM      5  C   LIG    1        3.563  -0.469  -3.694  0.00  0.00    +0.065 A 
ATOM      6  C   LIG    1        4.636  -1.078  -4.454  0.00  0.00    +0.012 A 
ATOM      7  C   LIG    1        4.721  -2.236  -5.227  0.00  0.00    +0.011 A 
ATOM      8  C   LIG    1        5.942  -2.506  -5.820  0.00  0.00    +0.001 A 
ATOM      9  C   LIG    1        7.034  -1.670  -5.659  0.00  0.00    +0.002 A 
ATOM     10  C   LIG    1        6.972  -0.516  -4.896  0.00  0.00    +0.026 A 
ATOM     11  C   LIG    1        5.754  -0.221  -4.288  0.00  0.00    +0.050 A 
ATOM     12  N   LIG    1        5.368   0.821  -3.485  0.00  0.00    -0.346 N 
ATOM     13  C   LIG    1        6.236   1.926  -3.071  0.00  0.00    +0.149 C 
ATOM     14  C   LIG    1        2.169  -0.867  -3.461  0.00  0.00    +0.249 C 
ATOM     15  O   LIG    1        1.771  -1.982  -3.739  0.00  0.00    -0.270 OA
ENDROOT
BRANCH   1  16
ATOM     16  C   LIG    1       -0.006  -0.331  -2.527  0.00  0.00    +0.163 C 
BRANCH  16  19
ATOM     17  C   LIG    1       -0.018   1.503   0.010  0.00  0.00    +0.065 C 
ATOM     18  C   LIG    1        0.002  -0.004   0.002  0.00  0.00    +0.035 A 
ATOM     19  C   LIG    1        0.008  -0.789  -1.092  0.00  0.00    +0.054 A 
ATOM     20  N   LIG    1        0.028  -2.085  -0.650  0.00  0.00    -0.348 N 
ATOM     21  C   LIG    1        0.034  -2.046   0.700  0.00  0.00    +0.171 A 
ATOM     22  H   LIG    1        0.037  -2.882  -1.202  0.00  0.00    +0.166 HD
ATOM     23  N   LIG    1        0.024  -0.798   1.083  0.00  0.00    -0.350 N 
ATOM     24  H   LIG    1        0.029  -0.493   2.004  0.00  0.00    +0.166 HD
ENDBRANCH  16  19
ENDBRANCH   1  16
TORSDOF 2
