REMARK  Name = ZINC13130015
REMARK                            x       y       z     vdW  Elec       q    Type
REMARK                         _______ _______ _______ _____ _____    ______ ____
ROOT
ATOM      1  C   LIG    1       -0.014   1.395  -0.169  0.00  0.00    +0.028 A 
ATOM      2  C   LIG    1        1.131   2.123  -0.116  0.00  0.00    +0.030 A 
ATOM      3  C   LIG    1        2.387   1.496  -0.071  0.00  0.00    +0.079 A 
ATOM      4  C   LIG    1        2.462   0.084  -0.082  0.00  0.00    +0.049 A 
ATOM      5  C   LIG    1        3.732  -0.524  -0.037  0.00  0.00    +0.130 A 
ATOM      6  N   LIG    1        4.804   0.257   0.014  0.00  0.00    -0.199 NA
ATOM      7  C   LIG    1        4.693   1.581   0.023  0.00  0.00    +0.215 A 
ATOM      8  C   LIG    1        1.228  -0.687  -0.140  0.00  0.00    +0.012 A 
ATOM      9  C   LIG    1        0.927  -2.069  -0.166  0.00  0.00    +0.028 A 
ATOM     10  C   LIG    1       -0.411  -2.197  -0.221  0.00  0.00    +0.083 A 
ATOM     11  N   LIG    1       -0.987  -0.958  -0.232  0.00  0.00    -0.361 N 
ATOM     12  H   LIG    1       -1.940  -0.780  -0.270  0.00  0.00    +0.165 HD
ATOM     13  N   LIG    1        3.528   2.200  -0.018  0.00  0.00    -0.215 NA
ATOM     14  C   LIG    1        0.005  -0.003  -0.182  0.00  0.00    +0.047 A 
ENDROOT
BRANCH   5  15
ATOM     15  N   LIG    1        3.859  -1.899  -0.045  0.00  0.00    -0.343 N 
ATOM     16  H   LIG    1        4.665  -2.314   0.300  0.00  0.00    +0.144 HD
ATOM     17  H   LIG    1        3.142  -2.450  -0.396  0.00  0.00    +0.144 HD
ENDBRANCH   5  15
BRANCH   7  18
ATOM     18  N   LIG    1        5.847   2.344   0.077  0.00  0.00    -0.327 N 
ATOM     19  H   LIG    1        5.789   3.312   0.085  0.00  0.00    +0.145 HD
ATOM     20  H   LIG    1        6.714   1.909   0.108  0.00  0.00    +0.145 HD
ENDBRANCH   7  18
TORSDOF 2
