REMARK  Name = ZINC13488061
REMARK                            x       y       z     vdW  Elec       q    Type
REMARK                         _______ _______ _______ _____ _____    ______ ____
ROOT
ATOM      1  C   LIG    1        6.288  -1.706  -1.395  0.00  0.00    +0.000 A 
ATOM      2  C   LIG    1        5.199  -2.224  -2.071  0.00  0.00    +0.000 A 
ATOM      3  C   LIG    1        3.973  -1.597  -1.982  0.00  0.00    +0.005 A 
ATOM      4  C   LIG    1        3.826  -0.448  -1.218  0.00  0.00    -0.027 A 
ATOM      5  C   LIG    1        4.911   0.066  -0.542  0.00  0.00    -0.041 A 
ATOM      6  C   LIG    1        4.799   1.305   0.310  0.00  0.00    +0.054 C 
ATOM      7  C   LIG    1        3.521   2.066  -0.043  0.00  0.00    +0.111 C 
ATOM      8  N   LIG    1        2.392   1.121  -0.014  0.00  0.00    -0.311 N 
ATOM      9  C   LIG    1        2.469   0.203  -1.155  0.00  0.00    +0.141 C 
ATOM     10  C   LIG    1        6.143  -0.564  -0.633  0.00  0.00    +0.004 A 
ENDROOT
BRANCH   8  11
ATOM     11  C   LIG    1        1.177   1.797   0.001  0.00  0.00    +0.122 A 
ATOM     12  C   LIG    1       -0.013   1.076   0.008  0.00  0.00    +0.045 A 
ATOM     13  C   LIG    1       -1.214   1.760   0.017  0.00  0.00    +0.020 A 
ATOM     14  C   LIG    1       -1.186   3.150   0.030  0.00  0.00    +0.036 A 
ATOM     15 BR   LIG    1       -2.798   4.138   0.050  0.00  0.00    -0.049 Br
ATOM     16  C   LIG    1        0.032   3.801   0.021  0.00  0.00    +0.128 A 
ATOM     17  N   LIG    1        1.163   3.121   0.007  0.00  0.00    -0.239 NA
ENDBRANCH   8  11
TORSDOF 1
