REMARK  Name = ZINC13530254
REMARK                            x       y       z     vdW  Elec       q    Type
REMARK                         _______ _______ _______ _____ _____    ______ ____
ROOT
ATOM      1  C   LIG    1        1.317   0.779  -0.006  0.00  0.00    +0.039 C 
ATOM      2  C   LIG    1       -0.019   1.526   0.010  0.00  0.00    +0.012 C 
ATOM      3  C   LIG    1        0.002  -0.004   0.002  0.00  0.00    -0.019 C 
ENDROOT
BRANCH   1   5
ATOM      4  C   LIG    1        1.972   1.622   2.302  0.00  0.00    +0.105 A 
ATOM      5  C   LIG    1        2.132   0.783   1.261  0.00  0.00    +0.036 A 
ATOM      6  N   LIG    1        3.148  -0.044   1.547  0.00  0.00    -0.350 N 
ATOM      7  H   LIG    1        3.452  -0.814   0.822  0.00  0.00    +0.166 HD
ATOM      8  C   LIG    1        3.620   0.246   2.728  0.00  0.00    +0.171 A 
ATOM      9  N   LIG    1        2.912   1.278   3.236  0.00  0.00    -0.352 N 
ATOM     10  H   LIG    1        2.970   1.828   4.187  0.00  0.00    +0.166 HD
ENDBRANCH   1   5
BRANCH   3  11
ATOM     11  C   LIG    1       -0.384  -0.723   1.296  0.00  0.00    -0.082 C 
BRANCH  11  12
ATOM     12  N   LIG    1       -1.604  -1.510   1.073  0.00  0.00    +0.378 N 
ATOM     13  H   LIG    1       -2.422  -0.841   0.767  0.00  0.00    -0.090 HD
ATOM     14  H   LIG    1       -1.422  -2.253   0.282  0.00  0.00    -0.090 HD
ATOM     15  H   LIG    1       -1.882  -2.027   2.004  0.00  0.00    -0.090 HD
ENDBRANCH  11  12
ENDBRANCH   3  11
TORSDOF 3
