REMARK  Name = ZINC13442505
REMARK                            x       y       z     vdW  Elec       q    Type
REMARK                         _______ _______ _______ _____ _____    ______ ____
ROOT
ATOM      1  C   LIG    1       -0.017   1.378   0.010  0.00  0.00    +0.005 A 
ATOM      2  C   LIG    1        1.171   2.086   0.002  0.00  0.00    +0.029 A 
ATOM      3  C   LIG    1        2.377   1.411  -0.013  0.00  0.00    +0.105 A 
ATOM      4  C   LIG    1        2.396   0.029  -0.020  0.00  0.00    +0.029 A 
ATOM      5  C   LIG    1        1.208  -0.679  -0.012  0.00  0.00    +0.005 A 
ATOM      6  C   LIG    1        0.002  -0.004   0.002  0.00  0.00    -0.045 A 
ENDROOT
BRANCH   3   7
ATOM      7  S   LIG    1        3.891   2.312  -0.024  0.00  0.00    +0.056 S 
ATOM      8  O   LIG    1        3.597   3.593  -0.566  0.00  0.00    -0.153 OA
ATOM      9  O   LIG    1        4.872   1.453  -0.588  0.00  0.00    -0.153 OA
BRANCH   7  10
ATOM     10  N   LIG    1        4.327   2.556   1.555  0.00  0.00    -0.204 NA
ATOM     11  H   LIG    1        5.142   3.039   1.764  0.00  0.00    +0.144 HD
ATOM     12  H   LIG    1        3.768   2.215   2.271  0.00  0.00    +0.144 HD
ENDBRANCH   7  10
ENDBRANCH   3   7
BRANCH   6  13
ATOM     13  C   LIG    1       -1.293  -0.775   0.011  0.00  0.00    +0.063 C 
BRANCH  13  14
ATOM     14  C   LIG    1       -1.745  -1.028  -1.429  0.00  0.00    +0.160 C 
BRANCH  14  15
ATOM     15  O   LIG    1       -2.973  -1.760  -1.421  0.00  0.00    -0.395 OA
ATOM     16  H   LIG    1       -3.319  -1.956  -2.302  0.00  0.00    +0.209 HD
ENDBRANCH  14  15
ENDBRANCH  13  14
ENDBRANCH   6  13
TORSDOF 5
