REMARK  Name = ZINC13163156
REMARK                            x       y       z     vdW  Elec       q    Type
REMARK                         _______ _______ _______ _____ _____    ______ ____
ROOT
ATOM      1  C   LIG    1       -2.491   3.894   0.046  0.00  0.00    +0.028 C 
ATOM      2  C   LIG    1       -3.671   3.237  -0.049  0.00  0.00    +0.074 C 
ATOM      3  C   LIG    1       -3.949   1.778  -0.076  0.00  0.00    +0.217 C 
ATOM      4  N   LIG    1       -5.211   1.428  -0.175  0.00  0.00    -0.165 NA
ATOM      5  C   LIG    1       -6.191   2.316  -0.248  0.00  0.00    +0.139 C 
ATOM      6  S   LIG    1       -7.924   2.024  -0.385  0.00  0.00    -0.026 S 
ATOM      7  S   LIG    1       -5.335   3.882  -0.168  0.00  0.00    -0.060 S 
ENDROOT
BRANCH   1  13
ATOM      8  C   LIG    1       -1.086   2.068  -0.926  0.00  0.00    +0.027 A 
ATOM      9  C   LIG    1        0.118   1.396  -0.974  0.00  0.00    +0.111 A 
ATOM     10  N   LIG    1        1.131   1.765  -0.214  0.00  0.00    -0.263 NA
ATOM     11  C   LIG    1        1.046   2.779   0.625  0.00  0.00    +0.111 A 
ATOM     12  C   LIG    1       -0.121   3.505   0.744  0.00  0.00    +0.027 A 
ATOM     13  C   LIG    1       -1.225   3.150  -0.045  0.00  0.00    -0.021 A 
ENDBRANCH   1  13
BRANCH   3  14
ATOM     14  O   LIG    1       -3.054   0.950  -0.009  0.00  0.00    -0.493 OA
ATOM     15  H   LIG    1       -2.163   1.229   0.062  0.00  0.00    +0.294 HD
ENDBRANCH   3  14
TORSDOF 2
