REMARK  Name = ZINC13531858
REMARK                            x       y       z     vdW  Elec       q    Type
REMARK                         _______ _______ _______ _____ _____    ______ ____
ROOT
ATOM      1  N   LIG    1       -1.280   1.688   0.122  0.00  0.00    -0.269 N 
ATOM      2  H   LIG    1       -1.257   2.642  -0.054  0.00  0.00    +0.156 HD
ATOM      3  C   LIG    1       -0.131   1.008   0.300  0.00  0.00    +0.308 C 
ATOM      4  N   LIG    1        1.045   1.666   0.323  0.00  0.00    -0.268 N 
ATOM      5  H   LIG    1        1.072   2.617   0.137  0.00  0.00    +0.156 HD
ATOM      6  O   LIG    1       -0.154  -0.200   0.436  0.00  0.00    -0.252 OA
ENDROOT
BRANCH   1   9
ATOM      7  C   LIG    1       -3.830  -0.941  -0.221  0.00  0.00    +0.005 A 
ATOM      8  C   LIG    1       -2.619  -0.279  -0.293  0.00  0.00    +0.023 A 
ATOM      9  C   LIG    1       -2.507   1.018   0.189  0.00  0.00    +0.037 A 
ATOM     10  C   LIG    1       -3.616   1.652   0.734  0.00  0.00    +0.061 A 
ATOM     11  C   LIG    1       -4.827   0.987   0.799  0.00  0.00    +0.125 A 
ATOM     12  F   LIG    1       -5.908   1.602   1.328  0.00  0.00    -0.205 F 
ATOM     13  C   LIG    1       -4.933  -0.309   0.322  0.00  0.00    +0.038 A 
ENDBRANCH   1   9
BRANCH   4  14
ATOM     14  C   LIG    1        2.222   0.980   0.614  0.00  0.00    +0.050 A 
ATOM     15  C   LIG    1        2.186  -0.163   1.400  0.00  0.00    +0.044 A 
ATOM     16  C   LIG    1        3.354  -0.845   1.684  0.00  0.00    +0.043 A 
ATOM     17 CL   LIG    1        3.301  -2.277   2.663  0.00  0.00    -0.083 Cl
ATOM     18  C   LIG    1        4.569  -0.388   1.194  0.00  0.00    +0.021 A 
ATOM     19  C   LIG    1        4.624   0.747   0.417  0.00  0.00    +0.018 A 
ATOM     20  C   LIG    1        3.450   1.444   0.118  0.00  0.00    +0.080 A 
BRANCH  20  21
ATOM     21  C   LIG    1        3.501   2.659  -0.714  0.00  0.00    +0.339 C 
ATOM     22  O   LIG    1        2.471   3.202  -1.060  0.00  0.00    -0.245 OA
BRANCH  21  23
ATOM     23  O   LIG    1        4.691   3.168  -1.090  0.00  0.00    -0.477 OA
ATOM     24  H   LIG    1        5.485   2.750  -0.823  0.00  0.00    +0.295 HD
ENDBRANCH  21  23
ENDBRANCH  20  21
ENDBRANCH   4  14
TORSDOF 4
