REMARK  Name = ZINC13512456
REMARK                            x       y       z     vdW  Elec       q    Type
REMARK                         _______ _______ _______ _____ _____    ______ ____
ROOT
ATOM      1  N   LIG    1        0.063  -2.800   2.385  0.00  0.00    -0.285 N 
ATOM      2  H   LIG    1        0.591  -2.318   3.041  0.00  0.00    +0.155 HD
ENDROOT
BRANCH   1   3
ATOM      3  C   LIG    1       -0.008  -4.195   2.433  0.00  0.00    +0.034 A 
ATOM      4  C   LIG    1        0.003  -4.934   1.257  0.00  0.00    +0.024 A 
ATOM      5  C   LIG    1       -0.067  -6.312   1.308  0.00  0.00    +0.014 A 
ATOM      6  C   LIG    1       -0.147  -6.957   2.528  0.00  0.00    +0.055 A 
ATOM      7  C   LIG    1       -0.158  -6.225   3.701  0.00  0.00    +0.014 A 
ATOM      8  C   LIG    1       -0.083  -4.847   3.658  0.00  0.00    +0.024 A 
BRANCH   6   9
ATOM      9  C   LIG    1       -0.224  -8.461   2.580  0.00  0.00    +0.417 C 
ATOM     10  F   LIG    1       -0.862  -8.936   1.429  0.00  0.00    -0.166 F 
ATOM     11  F   LIG    1       -0.948  -8.853   3.711  0.00  0.00    -0.166 F 
ATOM     12  F   LIG    1        1.069  -8.992   2.648  0.00  0.00    -0.166 F 
ENDBRANCH   6   9
ENDBRANCH   1   3
BRANCH   1  14
ATOM     13  C   LIG    1       -0.447  -0.734   1.298  0.00  0.00    +0.151 C 
ATOM     14  C   LIG    1       -0.610  -2.117   1.419  0.00  0.00    +0.203 C 
BRANCH  13  16
ATOM     15  C   LIG    1       -0.967   1.464   0.168  0.00  0.00    +0.092 C 
ATOM     16  C   LIG    1       -1.143  -0.027   0.298  0.00  0.00    +0.175 C 
ATOM     17  O   LIG    1       -1.886  -0.620  -0.459  0.00  0.00    -0.291 OA
ENDBRANCH  13  16
BRANCH  14  18
ATOM     18  O   LIG    1       -1.433  -2.773   0.580  0.00  0.00    -0.494 OA
ATOM     19  H   LIG    1       -1.896  -2.303  -0.085  0.00  0.00    +0.294 HD
ENDBRANCH  14  18
BRANCH  13  20
ATOM     20  C   LIG    1        0.428  -0.035   2.191  0.00  0.00    +0.108 C 
ATOM     21  N   LIG    1        1.123   0.519   2.899  0.00  0.00    -0.191 NA
ENDBRANCH  13  20
ENDBRANCH   1  14
TORSDOF 6
