REMARK  Name = ZINC13450381
REMARK                            x       y       z     vdW  Elec       q    Type
REMARK                         _______ _______ _______ _____ _____    ______ ____
ROOT
ATOM      1  C   LIG    1        2.066  -0.342   5.950  0.00  0.00    +0.044 C 
ATOM      2  C   LIG    1        1.339   0.162   4.730  0.00  0.00    -0.047 A 
ATOM      3  C   LIG    1        0.259  -0.542   4.230  0.00  0.00    +0.004 A 
ATOM      4  C   LIG    1       -0.410  -0.083   3.110  0.00  0.00    +0.007 A 
ATOM      5  C   LIG    1        0.000   1.080   2.488  0.00  0.00    -0.007 A 
ATOM      6  C   LIG    1        1.087   1.785   2.984  0.00  0.00    +0.123 A 
ATOM      7  C   LIG    1        1.753   1.325   4.111  0.00  0.00    +0.049 A 
ENDROOT
BRANCH   6   8
ATOM      8  O   LIG    1        1.495   2.927   2.370  0.00  0.00    -0.495 OA
ATOM      9  C   LIG    1        2.621   3.600   2.937  0.00  0.00    +0.277 C 
ENDBRANCH   6   8
BRANCH   5  10
ATOM     10  C   LIG    1       -0.729   1.579   1.267  0.00  0.00    +0.019 C 
BRANCH  10  11
ATOM     11  C   LIG    1       -0.013   1.086   0.008  0.00  0.00    -0.082 C 
BRANCH  11  12
ATOM     12  N   LIG    1       -0.746   1.561  -1.179  0.00  0.00    +0.378 N 
ATOM     13  H   LIG    1       -1.694   1.168  -1.169  0.00  0.00    -0.090 HD
ATOM     14  H   LIG    1       -0.269   1.260  -2.027  0.00  0.00    -0.090 HD
ATOM     15  H   LIG    1       -0.807   2.578  -1.167  0.00  0.00    -0.090 HD
ENDBRANCH  11  12
ENDBRANCH  10  11
ENDBRANCH   5  10
TORSDOF 4
