REMARK  Name = ZINC13531955
REMARK                            x       y       z     vdW  Elec       q    Type
REMARK                         _______ _______ _______ _____ _____    ______ ____
ROOT
ATOM      1  C   LIG    1        1.384  -2.553   2.271  0.00  0.00    +0.131 A 
ATOM      2  C   LIG    1        1.961  -1.798   3.282  0.00  0.00    +0.046 A 
ATOM      3  C   LIG    1        2.595  -2.424   4.337  0.00  0.00    +0.004 A 
ATOM      4  C   LIG    1        2.660  -3.807   4.397  0.00  0.00    +0.001 A 
ATOM      5  C   LIG    1        2.094  -4.574   3.404  0.00  0.00    +0.015 A 
ATOM      6  C   LIG    1        1.442  -3.955   2.330  0.00  0.00    +0.059 A 
ENDROOT
BRANCH   6   7
ATOM      7  C   LIG    1        0.830  -4.765   1.270  0.00  0.00    +0.174 C 
ATOM      8  O   LIG    1        0.271  -4.224   0.340  0.00  0.00    -0.291 OA
BRANCH   7   9
ATOM      9  C   LIG    1        0.896  -6.269   1.339  0.00  0.00    +0.166 C 
BRANCH   9  10
ATOM     10  C   LIG    1        0.197  -6.858   0.140  0.00  0.00    +0.246 C 
ATOM     11  O   LIG    1       -0.302  -6.131  -0.685  0.00  0.00    -0.285 OA
BRANCH  10  12
ATOM     12  C   LIG    1        0.123  -8.340  -0.028  0.00  0.00    +0.373 C 
ATOM     13  O   LIG    1       -0.443  -8.816  -0.999  0.00  0.00    -0.242 OA
BRANCH  12  14
ATOM     14  O   LIG    1        0.628  -9.074   0.806  0.00  0.00    -0.475 OA
ATOM     15  H   LIG    1        1.062  -8.708   1.551  0.00  0.00    +0.295 HD
ENDBRANCH  12  14
ENDBRANCH  10  12
ENDBRANCH   9  10
ENDBRANCH   7   9
ENDBRANCH   6   7
BRANCH   1  16
ATOM     16  O   LIG    1        0.761  -1.940   1.234  0.00  0.00    -0.491 OA
BRANCH  16  17
ATOM     17  C   LIG    1        0.742  -0.511   1.242  0.00  0.00    +0.229 C 
BRANCH  17  19
ATOM     18  C   LIG    1       -0.019   1.526   0.010  0.00  0.00    +0.007 C 
ATOM     19  C   LIG    1        0.002  -0.004   0.002  0.00  0.00    +0.038 C 
ENDBRANCH  17  19
ENDBRANCH  16  17
ENDBRANCH   1  16
TORSDOF 8
