REMARK  Name = ZINC13472648
REMARK                            x       y       z     vdW  Elec       q    Type
REMARK                         _______ _______ _______ _____ _____    ______ ____
ROOT
ATOM      1  C   LIG    1        0.072  -2.780  -0.015  0.00  0.00    +0.000 C 
ATOM      2  C   LIG    1       -1.145  -2.104   0.000  0.00  0.00    +0.002 C 
ATOM      3  C   LIG    1       -1.193  -0.744   0.009  0.00  0.00    +0.019 C 
ATOM      4  C   LIG    1        0.002  -0.004   0.002  0.00  0.00    +0.058 C 
ATOM      5  N   LIG    1       -0.086   1.372   0.010  0.00  0.00    -0.313 NA
ATOM      6  H   LIG    1       -0.989   1.860   0.022  0.00  0.00    +0.122 HD
ATOM      7  C   LIG    1        1.092   2.038   0.003  0.00  0.00    +0.082 C 
ATOM      8  C   LIG    1        2.342   1.437  -0.012  0.00  0.00    +0.034 C 
ATOM      9  C   LIG    1        2.439   0.054  -0.021  0.00  0.00    +0.059 C 
ATOM     10  C   LIG    1        1.238  -0.694  -0.013  0.00  0.00    +0.023 C 
ATOM     11  C   LIG    1        1.251  -2.096  -0.022  0.00  0.00    +0.006 C 
ENDROOT
BRANCH   9  12
ATOM     12  N   LIG    1        3.674  -0.577  -0.035  0.00  0.00    -0.315 NA
ATOM     13  H   LIG    1        3.724  -1.545  -0.041  0.00  0.00    +0.122 HD
BRANCH  12  14
ATOM     14  C   LIG    1        4.903   0.220  -0.042  0.00  0.00    +0.062 C 
BRANCH  14  15
ATOM     15  C   LIG    1        6.116  -0.713  -0.058  0.00  0.00    -0.064 C 
BRANCH  15  16
ATOM     16  N   LIG    1        7.346   0.105  -0.042  0.00  0.00    +0.381 N 
ATOM     17  H   LIG    1        7.290   0.776   0.733  0.00  0.00    -0.082 HD
ATOM     18  C   LIG    1        8.527  -0.761   0.158  0.00  0.00    -0.079 C 
ATOM     19  C   LIG    1        9.772   0.118   0.289  0.00  0.00    -0.019 C 
ATOM     20  C   LIG    1        9.947   0.941  -0.990  0.00  0.00    -0.004 C 
ATOM     21  C   LIG    1        8.687   1.779  -1.225  0.00  0.00    -0.019 C 
ATOM     22  C   LIG    1        7.473   0.851  -1.313  0.00  0.00    -0.079 C 
ENDBRANCH  15  16
ENDBRANCH  14  15
ENDBRANCH  12  14
ENDBRANCH   9  12
TORSDOF 4
