REMARK  Name = ZINC13520725
REMARK                            x       y       z     vdW  Elec       q    Type
REMARK                         _______ _______ _______ _____ _____    ______ ____
ROOT
ATOM      1  C   LIG    1        1.110  -2.385  -0.749  0.00  0.00    -0.016 A 
ATOM      2  C   LIG    1        0.058  -2.878   0.021  0.00  0.00    +0.008 A 
ATOM      3  C   LIG    1        0.218  -4.040   0.748  0.00  0.00    +0.002 A 
ATOM      4  C   LIG    1        1.425  -4.714   0.723  0.00  0.00    +0.023 A 
ATOM      5  C   LIG    1        2.481  -4.228  -0.037  0.00  0.00    +0.037 A 
ATOM      6  C   LIG    1        2.326  -3.063  -0.773  0.00  0.00    +0.032 A 
ENDROOT
BRANCH   1  10
ATOM      7  C   LIG    1        0.616   1.188  -3.001  0.00  0.00    +0.000 A 
ATOM      8  C   LIG    1       -0.434   0.700  -2.243  0.00  0.00    +0.001 A 
ATOM      9  C   LIG    1       -0.279  -0.460  -1.510  0.00  0.00    +0.008 A 
ATOM     10  C   LIG    1        0.938  -1.139  -1.535  0.00  0.00    -0.018 A 
ATOM     11  C   LIG    1        1.991  -0.642  -2.300  0.00  0.00    +0.008 A 
ATOM     12  C   LIG    1        1.825   0.518  -3.028  0.00  0.00    +0.001 A 
ENDBRANCH   1  10
BRANCH   5  13
ATOM     13  N   LIG    1        3.701  -4.912  -0.058  0.00  0.00    -0.251 N 
ATOM     14  H   LIG    1        4.533  -4.420  -0.141  0.00  0.00    +0.158 HD
ATOM     15  C   LIG    1        3.722  -6.257   0.036  0.00  0.00    +0.405 C 
ATOM     16  O   LIG    1        2.679  -6.881   0.043  0.00  0.00    -0.226 OA
BRANCH  15  17
ATOM     17  O   LIG    1        4.897  -6.908   0.124  0.00  0.00    -0.447 OA
BRANCH  17  18
ATOM     18  C   LIG    1        4.843  -8.355   0.223  0.00  0.00    +0.178 C 
ATOM     19  C   LIG    1        4.773  -8.763   1.696  0.00  0.00    +0.045 C 
ATOM     20  C   LIG    1        4.716 -10.289   1.801  0.00  0.00    +0.004 C 
ATOM     21  C   LIG    1        5.970 -10.891   1.164  0.00  0.00    +0.000 C 
ATOM     22  C   LIG    1        6.040 -10.483  -0.309  0.00  0.00    +0.004 C 
ATOM     23  C   LIG    1        6.097  -8.958  -0.414  0.00  0.00    +0.045 C 
ENDBRANCH  17  18
ENDBRANCH  15  17
ENDBRANCH   5  13
TORSDOF 4
