REMARK  Name = ZINC13161743
REMARK                            x       y       z     vdW  Elec       q    Type
REMARK                         _______ _______ _______ _____ _____    ______ ____
ROOT
ATOM      1  C   LIG    1       -0.452  -0.243  -1.488  0.00  0.00    +0.071 C 
ATOM      2  C   LIG    1       -1.787  -0.677  -1.513  0.00  0.00    +0.188 C 
ATOM      3  C   LIG    1       -2.375  -0.446  -0.165  0.00  0.00    +0.283 C 
ATOM      4  O   LIG    1       -3.516  -0.713   0.151  0.00  0.00    -0.267 OA
ATOM      5  N   LIG    1       -1.457   0.100   0.650  0.00  0.00    -0.280 N 
ATOM      6  C   LIG    1       -0.203   0.271  -0.089  0.00  0.00    +0.145 C 
ENDROOT
BRANCH   6   7
ATOM      7  C   LIG    1        0.174   1.729  -0.134  0.00  0.00    -0.022 A 
ATOM      8  C   LIG    1       -0.804   2.691  -0.305  0.00  0.00    +0.006 A 
ATOM      9  C   LIG    1       -0.458   4.029  -0.342  0.00  0.00    +0.004 A 
ATOM     10  C   LIG    1        0.867   4.404  -0.218  0.00  0.00    -0.045 A 
ATOM     11  C   LIG    1        1.845   3.442  -0.053  0.00  0.00    +0.004 A 
ATOM     12  C   LIG    1        1.499   2.104  -0.011  0.00  0.00    +0.006 A 
BRANCH  10  13
ATOM     13  C   LIG    1        1.244   5.863  -0.265  0.00  0.00    +0.013 C 
ATOM     14  C   LIG    1        0.541   6.608   0.872  0.00  0.00    +0.012 C 
ATOM     15  C   LIG    1        0.815   6.458  -1.607  0.00  0.00    +0.012 C 
ENDBRANCH  10  13
ENDBRANCH   6   7
BRANCH   1  16
ATOM     16  C   LIG    1        0.451  -0.279  -2.531  0.00  0.00    +0.195 C 
ATOM     17  O   LIG    1        1.663   0.301  -2.394  0.00  0.00    -0.287 OA
BRANCH  16  22
ATOM     18  C   LIG    1       -0.947  -2.893  -7.458  0.00  0.00    +0.044 C 
ATOM     19  C   LIG    1       -0.581  -2.208  -6.167  0.00  0.00    -0.050 A 
ATOM     20  C   LIG    1       -0.086  -0.916  -6.189  0.00  0.00    +0.004 A 
ATOM     21  C   LIG    1        0.252  -0.282  -5.012  0.00  0.00    +0.012 A 
ATOM     22  C   LIG    1        0.092  -0.949  -3.793  0.00  0.00    +0.022 A 
ATOM     23  C   LIG    1       -0.403  -2.256  -3.779  0.00  0.00    +0.012 A 
ATOM     24  C   LIG    1       -0.741  -2.874  -4.964  0.00  0.00    +0.004 A 
ENDBRANCH  16  22
ENDBRANCH   1  16
BRANCH   2  25
ATOM     25  O   LIG    1       -2.364  -1.159  -2.471  0.00  0.00    -0.502 OA
ATOM     26  H   LIG    1       -1.739  -1.201  -3.250  0.00  0.00    +0.292 HD
ENDBRANCH   2  25
BRANCH   5  27
ATOM     27  C   LIG    1       -1.675   0.465   2.052  0.00  0.00    +0.136 C 
BRANCH  27  28
ATOM     28  C   LIG    1       -2.164   1.888   2.131  0.00  0.00    -0.016 C 
ATOM     29  C   LIG    1       -3.283   2.163   2.754  0.00  0.00    +0.005 C 
ENDBRANCH  27  28
ENDBRANCH   5  27
TORSDOF 7
