REMARK  Name = ZINC13465610
REMARK                            x       y       z     vdW  Elec       q    Type
REMARK                         _______ _______ _______ _____ _____    ______ ____
ROOT
ATOM      1  N   LIG    1        0.059  -4.134  -0.021  0.00  0.00    -0.242 NA
ATOM      2  C   LIG    1        0.941  -4.782   0.701  0.00  0.00    +0.135 C 
ATOM      3  C   LIG    1        1.914  -4.213   1.659  0.00  0.00    +0.027 A 
ATOM      4  C   LIG    1        2.192  -2.915   2.076  0.00  0.00    +0.012 A 
ATOM      5  C   LIG    1        3.186  -2.693   3.009  0.00  0.00    +0.001 A 
ATOM      6  C   LIG    1        3.901  -3.759   3.527  0.00  0.00    +0.002 A 
ATOM      7  C   LIG    1        3.633  -5.051   3.120  0.00  0.00    +0.024 A 
ATOM      8  C   LIG    1        2.637  -5.295   2.182  0.00  0.00    +0.046 A 
ATOM      9  N   LIG    1        2.175  -6.478   1.612  0.00  0.00    -0.269 N 
ATOM     10  C   LIG    1        2.705  -7.807   1.927  0.00  0.00    +0.138 C 
ATOM     11  C   LIG    1        1.178  -6.247   0.741  0.00  0.00    +0.270 C 
ATOM     12  O   LIG    1        0.580  -7.087   0.097  0.00  0.00    -0.268 OA
ENDROOT
BRANCH   1  17
ATOM     13  C   LIG    1        0.091   1.502  -0.122  0.00  0.00    +0.044 C 
ATOM     14  C   LIG    1        0.083  -0.004  -0.094  0.00  0.00    -0.050 A 
ATOM     15  C   LIG    1       -1.031  -0.678   0.377  0.00  0.00    +0.005 A 
ATOM     16  C   LIG    1       -1.048  -2.056   0.405  0.00  0.00    +0.028 A 
ATOM     17  C   LIG    1        0.067  -2.775  -0.045  0.00  0.00    +0.065 A 
ATOM     18  C   LIG    1        1.189  -2.085  -0.521  0.00  0.00    +0.028 A 
ATOM     19  C   LIG    1        1.187  -0.707  -0.547  0.00  0.00    +0.005 A 
ENDBRANCH   1  17
TORSDOF 1
