REMARK  Name = ZINC13493584
REMARK                            x       y       z     vdW  Elec       q    Type
REMARK                         _______ _______ _______ _____ _____    ______ ____
ROOT
ATOM      1  C   LIG    1       -1.156  -0.694   0.009  0.00  0.00    +0.260 C 
ATOM      2  N   LIG    1        0.002  -0.004   0.002  0.00  0.00    -0.309 N 
ATOM      3  H   LIG    1        0.962  -0.541  -0.010  0.00  0.00    +0.149 HD
ATOM      4  O   LIG    1       -2.218  -0.100   0.023  0.00  0.00    -0.269 OA
ENDROOT
BRANCH   1   7
ATOM      5  C   LIG    1       -1.760  -4.305  -0.004  0.00  0.00    +0.020 A 
ATOM      6  C   LIG    1       -2.237  -2.990   0.013  0.00  0.00    +0.032 A 
ATOM      7  C   LIG    1       -1.136  -2.160   0.001  0.00  0.00    +0.102 A 
ATOM      8  N   LIG    1       -0.015  -2.959  -0.014  0.00  0.00    -0.357 N 
ATOM      9  H   LIG    1        0.986  -2.502  -0.021  0.00  0.00    +0.165 HD
ATOM     10  C   LIG    1       -0.407  -4.256  -0.017  0.00  0.00    +0.083 A 
ENDBRANCH   1   7
BRANCH   2  11
ATOM     11  C   LIG    1       -0.018   1.461   0.010  0.00  0.00    +0.120 C 
BRANCH  11  12
ATOM     12  C   LIG    1        1.418   1.990  -0.001  0.00  0.00    +0.103 C 
BRANCH  12  13
ATOM     13  N   LIG    1        1.398   3.459   0.007  0.00  0.00    -0.297 NA
ATOM     14  C   LIG    1        0.828   3.985  -1.242  0.00  0.00    +0.112 C 
ATOM     15  C   LIG    1        0.771   5.513  -1.167  0.00  0.00    +0.175 C 
ATOM     16  O   LIG    1        2.084   6.022  -0.913  0.00  0.00    -0.377 OA
ATOM     17  C   LIG    1        2.668   5.531   0.296  0.00  0.00    +0.175 C 
ATOM     18  C   LIG    1        2.744   4.003   0.236  0.00  0.00    +0.112 C 
ENDBRANCH  12  13
ENDBRANCH  11  12
ENDBRANCH   2  11
TORSDOF 4
