REMARK  Name = ZINC13474734
REMARK                            x       y       z     vdW  Elec       q    Type
REMARK                         _______ _______ _______ _____ _____    ______ ____
ROOT
ATOM      1  C   LIG    1        0.726  -0.685   1.184  0.00  0.00    -0.020 A 
ATOM      2  C   LIG    1        2.051  -0.330   1.367  0.00  0.00    +0.006 A 
ATOM      3  C   LIG    1        2.723  -0.724   2.505  0.00  0.00    +0.015 A 
ATOM      4  C   LIG    1        2.065  -1.482   3.473  0.00  0.00    +0.058 A 
ATOM      5  C   LIG    1        0.729  -1.837   3.284  0.00  0.00    +0.041 A 
ATOM      6  C   LIG    1        0.066  -1.431   2.144  0.00  0.00    +0.092 A 
ENDROOT
BRANCH   6   7
ATOM      7  S   LIG    1       -1.624  -1.872   1.906  0.00  0.00    -0.006 S 
ATOM      8  C   LIG    1       -2.523  -0.296   1.923  0.00  0.00    +0.200 C 
ATOM      9  O   LIG    1       -1.963  -2.641   3.051  0.00  0.00    -0.170 OA
ATOM     10  O   LIG    1       -1.669  -2.447   0.607  0.00  0.00    -0.170 OA
ENDBRANCH   6   7
BRANCH   1  12
ATOM     11  C   LIG    1       -0.007   1.277  -0.144  0.00  0.00    +0.012 C 
ATOM     12  C   LIG    1       -0.003  -0.251  -0.061  0.00  0.00    +0.015 C 
ATOM     13  C   LIG    1        0.703  -0.826  -1.291  0.00  0.00    +0.012 C 
ENDBRANCH   1  12
BRANCH   4  14
ATOM     14  C   LIG    1        2.781  -1.910   4.697  0.00  0.00    +0.341 C 
ATOM     15  O   LIG    1        2.203  -2.571   5.541  0.00  0.00    -0.248 OA
BRANCH  14  16
ATOM     16  N   LIG    1        4.064  -1.568   4.876  0.00  0.00    -0.000 NA
ATOM     17  C   LIG    1        4.965  -2.500   5.147  0.00  0.00    +0.375 C 
BRANCH  17  18
ATOM     18  N   LIG    1        6.246  -2.142   5.448  0.00  0.00    -0.291 N 
ATOM     19  H   LIG    1        6.906  -2.824   5.647  0.00  0.00    +0.254 HD
ATOM     20  H   LIG    1        6.497  -1.205   5.464  0.00  0.00    +0.254 HD
ENDBRANCH  17  18
BRANCH  17  21
ATOM     21  N   LIG    1        4.612  -3.817   5.126  0.00  0.00    -0.291 N 
ATOM     22  H   LIG    1        5.250  -4.495   5.400  0.00  0.00    +0.254 HD
ATOM     23  H   LIG    1        3.724  -4.076   4.837  0.00  0.00    +0.254 HD
ENDBRANCH  17  21
ENDBRANCH  14  16
ENDBRANCH   4  14
TORSDOF 6
