REMARK  Name = ZINC13523533
REMARK                            x       y       z     vdW  Elec       q    Type
REMARK                         _______ _______ _______ _____ _____    ______ ____
ROOT
ATOM      1  C   LIG    1        1.768   3.723   1.437  0.00  0.00    +0.165 C 
ENDROOT
BRANCH   1   2
ATOM      2  C   LIG    1        2.457   5.063   1.471  0.00  0.00    +0.237 C 
ATOM      3  N   LIG    1        3.796   5.137   1.334  0.00  0.00    -0.288 N 
ATOM      4  C   LIG    1        4.693   4.004   1.041  0.00  0.00    +0.109 C 
ATOM      5  C   LIG    1        5.941   4.646   0.386  0.00  0.00    +0.021 C 
ATOM      6  C   LIG    1        6.072   5.965   1.192  0.00  0.00    +0.033 C 
ATOM      7  C   LIG    1        4.603   6.361   1.446  0.00  0.00    +0.162 C 
ATOM      8  O   LIG    1        1.806   6.076   1.621  0.00  0.00    -0.274 OA
BRANCH   7   9
ATOM      9  C   LIG    1        4.463   6.941   2.830  0.00  0.00    +0.231 C 
ATOM     10  N   LIG    1        5.120   8.072   3.156  0.00  0.00    -0.328 N 
ATOM     11  H   LIG    1        5.030   8.446   4.046  0.00  0.00    +0.145 HD
ATOM     12  H   LIG    1        5.684   8.511   2.500  0.00  0.00    +0.145 HD
ATOM     13  O   LIG    1        3.758   6.392   3.650  0.00  0.00    -0.274 OA
ENDBRANCH   7   9
ENDBRANCH   1   2
BRANCH   1  14
ATOM     14  N   LIG    1        0.535   3.787   2.225  0.00  0.00    -0.302 N 
ATOM     15  H   LIG    1        0.090   4.638   2.360  0.00  0.00    +0.150 HD
ATOM     16  C   LIG    1        0.021   2.664   2.764  0.00  0.00    +0.234 C 
ATOM     17  O   LIG    1        0.578   1.600   2.595  0.00  0.00    -0.274 OA
BRANCH  16  18
ATOM     18  C   LIG    1       -1.248   2.730   3.575  0.00  0.00    +0.159 C 
ATOM     19  C   LIG    1       -0.936   3.188   5.017  0.00  0.00    +0.041 C 
ATOM     20  C   LIG    1       -0.774   1.835   5.749  0.00  0.00    +0.098 C 
ATOM     21  C   LIG    1       -1.581   0.864   4.916  0.00  0.00    +0.214 C 
ATOM     22  O   LIG    1       -1.945  -0.232   5.286  0.00  0.00    -0.276 OA
ATOM     23  N   LIG    1       -1.838   1.393   3.705  0.00  0.00    -0.304 N 
ATOM     24  H   LIG    1       -2.346   0.949   3.009  0.00  0.00    +0.149 HD
ENDBRANCH  16  18
ENDBRANCH   1  14
BRANCH   1  25
ATOM     25  C   LIG    1        1.429   3.360  -0.011  0.00  0.00    +0.086 C 
BRANCH  25  27
ATOM     26  C   LIG    1       -0.449   1.642   0.140  0.00  0.00    +0.105 A 
ATOM     27  C   LIG    1        0.841   1.974  -0.056  0.00  0.00    +0.035 A 
ATOM     28  N   LIG    1        1.516   0.809  -0.306  0.00  0.00    -0.350 N 
ATOM     29  C   LIG    1        0.613  -0.194  -0.253  0.00  0.00    +0.171 A 
ATOM     30  H   LIG    1        2.464   0.721  -0.486  0.00  0.00    +0.166 HD
ATOM     31  N   LIG    1       -0.560   0.312   0.014  0.00  0.00    -0.352 N 
ATOM     32  H   LIG    1       -1.382  -0.195   0.107  0.00  0.00    +0.166 HD
ENDBRANCH  25  27
ENDBRANCH   1  25
TORSDOF 6
