REMARK  Name = ZINC13466523
REMARK                            x       y       z     vdW  Elec       q    Type
REMARK                         _______ _______ _______ _____ _____    ______ ____
ROOT
ATOM      1  C   LIG    1       -2.786  -3.539   2.930  0.00  0.00    +0.173 C 
ENDROOT
BRANCH   1   2
ATOM      2  C   LIG    1       -4.034  -4.137   3.527  0.00  0.00    +0.223 C 
ATOM      3  N   LIG    1       -5.011  -3.334   3.993  0.00  0.00    -0.314 N 
ATOM      4  H   LIG    1       -4.910  -2.370   3.944  0.00  0.00    +0.149 HD
ATOM      5  O   LIG    1       -4.160  -5.342   3.587  0.00  0.00    -0.275 OA
BRANCH   3   6
ATOM      6  C   LIG    1       -6.223  -3.916   4.572  0.00  0.00    +0.115 C 
BRANCH   6   7
ATOM      7  C   LIG    1       -7.163  -2.794   5.021  0.00  0.00    +0.088 C 
BRANCH   7   8
ATOM      8  S   LIG    1       -8.665  -3.515   5.739  0.00  0.00    -0.151 S 
BRANCH   8   9
ATOM      9  C   LIG    1       -9.660  -2.074   6.213  0.00  0.00    +0.143 C 
BRANCH   9  10
ATOM     10  C   LIG    1      -10.953  -2.537   6.831  0.00  0.00    +0.115 A 
ATOM     11  C   LIG    1      -11.160  -2.774   8.139  0.00  0.00    +0.045 A 
ATOM     12  C   LIG    1      -12.505  -3.188   8.273  0.00  0.00    +0.041 A 
ATOM     13  C   LIG    1      -13.040  -3.180   7.039  0.00  0.00    +0.195 A 
ATOM     14  O   LIG    1      -12.097  -2.779   6.170  0.00  0.00    -0.467 OA
ENDBRANCH   9  10
ENDBRANCH   8   9
ENDBRANCH   7   8
ENDBRANCH   6   7
ENDBRANCH   3   6
ENDBRANCH   1   2
BRANCH   1  15
ATOM     15  S   LIG    1       -1.672  -4.868   2.399  0.00  0.00    -0.078 S 
BRANCH  15  18
ATOM     16  C   LIG    1        0.762  -2.018   1.233  0.00  0.00    +0.049 A 
ATOM     17  N   LIG    1       -0.266  -2.699   1.732  0.00  0.00    -0.228 NA
ATOM     18  C   LIG    1       -0.280  -4.018   1.734  0.00  0.00    +0.170 A 
ATOM     19  N   LIG    1        0.766  -4.733   1.234  0.00  0.00    -0.302 N 
ATOM     20  H   LIG    1        0.742  -5.703   1.246  0.00  0.00    +0.171 HD
ATOM     21  C   LIG    1        1.836  -4.088   0.722  0.00  0.00    +0.252 A 
ATOM     22  O   LIG    1        2.781  -4.712   0.271  0.00  0.00    -0.268 OA
ATOM     23  C   LIG    1        1.839  -2.682   0.719  0.00  0.00    +0.093 A 
BRANCH  16  24
ATOM     24  C   LIG    1        0.742  -0.511   1.242  0.00  0.00    +0.055 C 
BRANCH  24  26
ATOM     25  C   LIG    1       -0.019   1.526   0.010  0.00  0.00    +0.004 C 
ATOM     26  C   LIG    1        0.002  -0.004   0.002  0.00  0.00    +0.003 C 
ENDBRANCH  24  26
ENDBRANCH  16  24
ENDBRANCH  15  18
ENDBRANCH   1  15
TORSDOF 10
