REMARK  Name = ZINC13472721
REMARK                            x       y       z     vdW  Elec       q    Type
REMARK                         _______ _______ _______ _____ _____    ______ ____
ROOT
ATOM      1  C   LIG    1       -2.434   0.933   0.019  0.00  0.00    +0.040 A 
ATOM      2  C   LIG    1       -3.622   1.662   0.029  0.00  0.00    +0.126 A 
ATOM      3  N   LIG    1       -3.566   2.984   0.036  0.00  0.00    -0.222 NA
ATOM      4  C   LIG    1       -2.403   3.619   0.034  0.00  0.00    +0.214 A 
ATOM      5  N   LIG    1       -1.249   2.969   0.030  0.00  0.00    -0.200 NA
ATOM      6  C   LIG    1       -1.218   1.641   0.017  0.00  0.00    +0.129 A 
ENDROOT
BRANCH   1  13
ATOM      7  C   LIG    1       -1.693  -1.253  -0.924  0.00  0.00    +0.010 A 
ATOM      8  C   LIG    1       -1.709  -2.633  -0.924  0.00  0.00    +0.020 A 
ATOM      9  C   LIG    1       -2.484  -3.318  -0.005  0.00  0.00    +0.041 A 
ATOM     10 CL   LIG    1       -2.504  -5.054  -0.014  0.00  0.00    -0.084 Cl
ATOM     11  C   LIG    1       -3.243  -2.625   0.922  0.00  0.00    +0.020 A 
ATOM     12  C   LIG    1       -3.230  -1.245   0.934  0.00  0.00    +0.010 A 
ATOM     13  C   LIG    1       -2.451  -0.550   0.011  0.00  0.00    -0.013 A 
ENDBRANCH   1  13
BRANCH   4  14
ATOM     14  N   LIG    1       -2.394   5.003   0.042  0.00  0.00    -0.327 N 
ATOM     15  H   LIG    1       -1.551   5.482   0.041  0.00  0.00    +0.145 HD
ATOM     16  H   LIG    1       -3.231   5.493   0.049  0.00  0.00    +0.145 HD
ENDBRANCH   4  14
BRANCH   6  17
ATOM     17  N   LIG    1       -0.011   0.966   0.007  0.00  0.00    -0.343 N 
ATOM     18  H   LIG    1        0.822   1.462   0.002  0.00  0.00    +0.144 HD
ATOM     19  H   LIG    1        0.002  -0.004   0.002  0.00  0.00    +0.144 HD
ENDBRANCH   6  17
TORSDOF 3
