REMARK  Name = ZINC13473523
REMARK                            x       y       z     vdW  Elec       q    Type
REMARK                         _______ _______ _______ _____ _____    ______ ____
ROOT
ATOM      1  C   LIG    1       -1.476  -1.491   0.531  0.00  0.00    -0.043 A 
ATOM      2  C   LIG    1       -2.290  -1.184   1.607  0.00  0.00    +0.004 A 
ATOM      3  C   LIG    1       -3.473  -1.869   1.798  0.00  0.00    +0.009 A 
ATOM      4  C   LIG    1       -3.846  -2.872   0.905  0.00  0.00    -0.018 A 
ATOM      5  C   LIG    1       -3.023  -3.176  -0.177  0.00  0.00    +0.009 A 
ATOM      6  C   LIG    1       -1.845  -2.481  -0.361  0.00  0.00    +0.004 A 
ENDROOT
BRANCH   4   7
ATOM      7  C   LIG    1       -5.116  -3.612   1.106  0.00  0.00    -0.018 A 
ATOM      8  C   LIG    1       -5.940  -3.301   2.187  0.00  0.00    +0.010 A 
ATOM      9  C   LIG    1       -7.119  -3.987   2.374  0.00  0.00    +0.019 A 
ATOM     10  C   LIG    1       -7.489  -4.996   1.480  0.00  0.00    +0.052 A 
ATOM     11  C   LIG    1       -6.662  -5.306   0.397  0.00  0.00    +0.019 A 
ATOM     12  C   LIG    1       -5.487  -4.615   0.209  0.00  0.00    +0.010 A 
BRANCH  10  13
ATOM     13  C   LIG    1       -8.714  -5.711   1.674  0.00  0.00    +0.099 C 
ATOM     14  N   LIG    1       -9.687  -6.278   1.828  0.00  0.00    -0.191 NA
ENDBRANCH  10  13
ENDBRANCH   4   7
BRANCH   1  16
ATOM     15  C   LIG    1       -0.486   0.752   0.160  0.00  0.00    +0.014 C 
ATOM     16  C   LIG    1       -0.186  -0.739   0.328  0.00  0.00    +0.031 C 
BRANCH  16  17
ATOM     17  C   LIG    1        0.721  -0.943   1.543  0.00  0.00    +0.113 C 
BRANCH  17  18
ATOM     18  N   LIG    1        2.019  -0.312   1.295  0.00  0.00    -0.194 NA
ATOM     19  H   LIG    1        2.263  -0.041   0.396  0.00  0.00    +0.148 HD
BRANCH  18  20
ATOM     20  S   LIG    1        3.071  -0.062   2.549  0.00  0.00    +0.032 S 
ATOM     21  O   LIG    1        4.210   0.544   1.952  0.00  0.00    -0.158 OA
ATOM     22  O   LIG    1        3.176  -1.325   3.192  0.00  0.00    -0.158 OA
BRANCH  20  23
ATOM     23  C   LIG    1        2.229   1.124   3.634  0.00  0.00    +0.142 C 
ATOM     24  C   LIG    1        1.952   2.415   2.861  0.00  0.00    +0.033 C 
ATOM     25  C   LIG    1        3.119   1.433   4.840  0.00  0.00    +0.033 C 
ENDBRANCH  20  23
ENDBRANCH  18  20
ENDBRANCH  17  18
ENDBRANCH  16  17
ENDBRANCH   1  16
TORSDOF 7
