REMARK  Name = ZINC13518995
REMARK                            x       y       z     vdW  Elec       q    Type
REMARK                         _______ _______ _______ _____ _____    ______ ____
ROOT
ATOM      1  C   LIG    1        1.545   4.338   0.011  0.00  0.00    +0.023 C 
ATOM      2  C   LIG    1        0.930   5.682   0.407  0.00  0.00    -0.008 C 
ATOM      3  C   LIG    1        1.887   4.967   1.363  0.00  0.00    -0.066 C 
ENDROOT
BRANCH   1   5
ATOM      4  C   LIG    1       -0.705   3.152   0.026  0.00  0.00    +0.107 A 
ATOM      5  C   LIG    1        0.641   3.132   0.013  0.00  0.00    +0.060 A 
ATOM      6  N   LIG    1        1.037   1.851   0.002  0.00  0.00    -0.241 NA
ATOM      7  C   LIG    1       -0.013   1.076   0.008  0.00  0.00    +0.196 A 
ATOM      8  N   LIG    1       -1.121   1.848   0.017  0.00  0.00    -0.351 N 
ATOM      9  H   LIG    1       -2.068   1.527   0.017  0.00  0.00    +0.166 HD
ENDBRANCH   1   5
BRANCH   3  10
ATOM     10  N   LIG    1        3.231   5.552   1.510  0.00  0.00    +0.380 N 
ATOM     11  H   LIG    1        3.341   6.317   0.834  0.00  0.00    -0.090 HD
ATOM     12  H   LIG    1        3.942   4.845   1.329  0.00  0.00    -0.090 HD
ATOM     13  H   LIG    1        3.351   5.921   2.452  0.00  0.00    -0.090 HD
ENDBRANCH   3  10
TORSDOF 2
