REMARK  Name = ZINC13471675
REMARK                            x       y       z     vdW  Elec       q    Type
REMARK                         _______ _______ _______ _____ _____    ______ ____
ROOT
ATOM      1  S   LIG    1        1.209   0.579   2.379  0.00  0.00    +0.061 S 
ATOM      2  O   LIG    1        1.367   1.852   1.768  0.00  0.00    -0.153 OA
ATOM      3  O   LIG    1        2.296  -0.126   2.963  0.00  0.00    -0.153 OA
ENDROOT
BRANCH   1  11
ATOM      4  C   LIG    1        1.718  -2.205   2.447  0.00  0.00    +0.026 C 
ATOM      5  C   LIG    1        0.750  -1.876   1.308  0.00  0.00    +0.077 C 
ATOM      6  C   LIG    1        1.331  -2.373  -0.019  0.00  0.00    +0.020 C 
ATOM      7  C   LIG    1        0.428  -1.919  -1.168  0.00  0.00    +0.003 C 
ATOM      8  C   LIG    1        0.377  -0.389  -1.206  0.00  0.00    +0.020 C 
ATOM      9  C   LIG    1       -0.214   0.130   0.108  0.00  0.00    +0.077 C 
ATOM     10  C   LIG    1       -0.143   1.658   0.134  0.00  0.00    +0.026 C 
ATOM     11  N   LIG    1        0.560  -0.421   1.230  0.00  0.00    -0.171 NA
ENDBRANCH   1  11
BRANCH   1  12
ATOM     12  C   LIG    1       -0.002   0.773   3.644  0.00  0.00    +0.106 A 
ATOM     13  C   LIG    1       -0.896   1.827   3.589  0.00  0.00    +0.029 A 
ATOM     14  C   LIG    1       -1.846   1.979   4.581  0.00  0.00    +0.006 A 
ATOM     15  C   LIG    1       -1.902   1.079   5.629  0.00  0.00    -0.042 A 
ATOM     16  C   LIG    1       -1.009   0.025   5.683  0.00  0.00    +0.006 A 
ATOM     17  C   LIG    1       -0.062  -0.130   4.689  0.00  0.00    +0.029 A 
BRANCH  15  18
ATOM     18  C   LIG    1       -2.937   1.246   6.711  0.00  0.00    -0.013 C 
ATOM     19  C   LIG    1       -2.743   2.600   7.397  0.00  0.00    +0.015 C 
ATOM     20  C   LIG    1       -2.784   0.126   7.741  0.00  0.00    +0.015 C 
ATOM     21  C   LIG    1       -4.336   1.183   6.094  0.00  0.00    +0.015 C 
ENDBRANCH  15  18
ENDBRANCH   1  12
TORSDOF 3
