REMARK  Name = ZINC13492626
REMARK                            x       y       z     vdW  Elec       q    Type
REMARK                         _______ _______ _______ _____ _____    ______ ____
ROOT
ATOM      1  C   LIG    1        1.623  -5.140  -2.800  0.00  0.00    +0.096 C 
ATOM      2  C   LIG    1        2.539  -6.101  -2.001  0.00  0.00    +0.058 C 
ATOM      3  C   LIG    1        2.462  -7.410  -2.824  0.00  0.00    +0.141 C 
ATOM      4  C   LIG    1        0.993  -7.478  -3.291  0.00  0.00    +0.027 C 
ATOM      5  C   LIG    1        0.618  -6.782  -4.601  0.00  0.00    +0.018 C 
ATOM      6  C   LIG    1        0.460  -6.034  -3.275  0.00  0.00    +0.024 C 
ENDROOT
BRANCH   1  10
ATOM      7  C   LIG    1        0.601  -0.682  -1.045  0.00  0.00    +0.151 A 
ATOM      8  C   LIG    1        0.624  -2.087  -1.072  0.00  0.00    +0.148 A 
ATOM      9  C   LIG    1        1.246  -2.720  -2.161  0.00  0.00    +0.167 A 
ATOM     10  N   LIG    1        1.126  -4.068  -1.935  0.00  0.00    -0.311 N 
ATOM     11  C   LIG    1        0.458  -4.226  -0.757  0.00  0.00    +0.202 A 
ATOM     12  N   LIG    1        1.786  -1.974  -3.120  0.00  0.00    -0.198 NA
ATOM     13  C   LIG    1        1.740  -0.659  -3.053  0.00  0.00    +0.226 A 
ATOM     14 CL   LIG    1        2.462   0.268  -4.332  0.00  0.00    -0.041 Cl
ATOM     15  N   LIG    1        0.164  -3.063  -0.252  0.00  0.00    -0.231 NA
ATOM     16  N   LIG    1        1.162  -0.020  -2.051  0.00  0.00    -0.200 NA
BRANCH   7  18
ATOM     17  C   LIG    1       -0.018   1.461   0.010  0.00  0.00    +0.127 C 
ATOM     18  N   LIG    1        0.002  -0.004   0.002  0.00  0.00    -0.330 N 
ATOM     19  H   LIG    1       -0.404  -0.499   0.731  0.00  0.00    +0.147 HD
ENDBRANCH   7  18
ENDBRANCH   1  10
BRANCH   3  20
ATOM     20  O   LIG    1        3.341  -7.347  -3.949  0.00  0.00    -0.283 OA
BRANCH  20  21
ATOM     21  P   LIG    1        4.529  -8.406  -4.194  0.00  0.00    +0.473 P 
ATOM     22  O   LIG    1        5.454  -8.455  -2.931  0.00  0.00    -0.228 OA
BRANCH  21  23
ATOM     23  O   LIG    1        5.369  -7.968  -5.441  0.00  0.00    -0.303 OA
ATOM     24  H   LIG    1        5.748  -7.089  -5.284  0.00  0.00    +0.222 HD
ENDBRANCH  21  23
BRANCH  21  25
ATOM     25  O   LIG    1        3.917  -9.826  -4.449  0.00  0.00    -0.303 OA
ATOM     26  H   LIG    1        3.397 -10.097  -3.676  0.00  0.00    +0.222 HD
ENDBRANCH  21  25
ENDBRANCH  20  21
ENDBRANCH   3  20
BRANCH   4  27
ATOM     27  C   LIG    1        0.152  -8.660  -2.804  0.00  0.00    +0.182 C 
BRANCH  27  28
ATOM     28  O   LIG    1        0.904  -9.867  -2.940  0.00  0.00    -0.286 OA
BRANCH  28  29
ATOM     29  P   LIG    1        0.328 -11.311  -2.522  0.00  0.00    +0.472 P 
ATOM     30  O   LIG    1       -1.008 -11.564  -3.255  0.00  0.00    -0.228 OA
BRANCH  29  31
ATOM     31  O   LIG    1        0.094 -11.350  -0.996  0.00  0.00    -0.303 OA
ATOM     32  H   LIG    1       -0.544 -10.663  -0.749  0.00  0.00    +0.222 HD
ENDBRANCH  29  31
BRANCH  29  33
ATOM     33  O   LIG    1        1.389 -12.451  -2.932  0.00  0.00    -0.303 OA
ATOM     34  H   LIG    1        1.106 -13.349  -2.709  0.00  0.00    +0.222 HD
ENDBRANCH  29  33
ENDBRANCH  28  29
ENDBRANCH  27  28
ENDBRANCH   4  27
TORSDOF 11
