REMARK  Name = ZINC13492314
REMARK                            x       y       z     vdW  Elec       q    Type
REMARK                         _______ _______ _______ _____ _____    ______ ____
ROOT
ATOM      1  C   LIG    1       -0.062   1.117  -2.413  0.00  0.00    +0.085 C 
ATOM      2  C   LIG    1       -1.066   1.101  -3.585  0.00  0.00    +0.028 C 
ATOM      3  C   LIG    1       -0.179   1.507  -4.783  0.00  0.00    +0.041 C 
ATOM      4  C   LIG    1        0.948   2.321  -4.186  0.00  0.00    -0.001 A 
ATOM      5  C   LIG    1        1.847   3.193  -4.788  0.00  0.00    +0.120 A 
ATOM      6  C   LIG    1        2.809   3.836  -4.024  0.00  0.00    +0.046 A 
ATOM      7  C   LIG    1        2.872   3.609  -2.663  0.00  0.00    +0.004 A 
ATOM      8  C   LIG    1        1.978   2.742  -2.065  0.00  0.00    +0.005 A 
ATOM      9  C   LIG    1        1.015   2.098  -2.824  0.00  0.00    -0.024 A 
ENDROOT
BRANCH   1  10
ATOM     10  N   LIG    1       -0.723   1.572  -1.182  0.00  0.00    -0.299 NA
ATOM     11  H   LIG    1       -1.755   1.192  -1.174  0.00  0.00    +0.123 HD
BRANCH  10  12
ATOM     12  C   LIG    1       -0.013   1.086   0.008  0.00  0.00    +0.171 C 
BRANCH  12  14
ATOM     13  C   LIG    1       -1.251   1.939   2.185  0.00  0.00    +0.005 C 
ATOM     14  C   LIG    1       -0.702   1.560   1.219  0.00  0.00    -0.090 C 
ENDBRANCH  12  14
ENDBRANCH  10  12
ENDBRANCH   1  10
BRANCH   5  15
ATOM     15  O   LIG    1        1.784   3.414  -6.127  0.00  0.00    -0.506 OA
ATOM     16  H   LIG    1        2.495   4.104  -6.605  0.00  0.00    +0.292 HD
ENDBRANCH   5  15
TORSDOF 4
