REMARK  Name = ZINC13530899
REMARK                            x       y       z     vdW  Elec       q    Type
REMARK                         _______ _______ _______ _____ _____    ______ ____
ROOT
ATOM      1  C   LIG    1       -0.766   1.610   1.299  0.00  0.00    +0.207 C 
ENDROOT
BRANCH   1   2
ATOM      2  C   LIG    1       -0.212   0.985   0.017  0.00  0.00    +0.031 C 
ATOM      3  C   LIG    1       -0.982   1.524  -1.192  0.00  0.00    -0.012 C 
ATOM      4  C   LIG    1       -0.384   0.941  -2.474  0.00  0.00    -0.082 C 
ATOM      5  N   LIG    1        1.038   1.321  -2.577  0.00  0.00    +0.379 N 
ATOM      6  H   LIG    1        1.423   0.955  -3.455  0.00  0.00    -0.086 HD
ATOM      7  H   LIG    1        1.116   2.345  -2.569  0.00  0.00    -0.086 HD
ATOM      8  C   LIG    1        1.802   0.768  -1.443  0.00  0.00    -0.082 C 
ATOM      9  C   LIG    1        1.269   1.345  -0.130  0.00  0.00    -0.012 C 
ENDBRANCH   1   2
BRANCH   1  10
ATOM     10  C   LIG    1       -2.224   1.256   1.440  0.00  0.00    -0.007 A 
ATOM     11  C   LIG    1       -2.591   0.055   2.018  0.00  0.00    +0.008 A 
ATOM     12  C   LIG    1       -3.929  -0.267   2.153  0.00  0.00    +0.020 A 
ATOM     13  C   LIG    1       -4.900   0.608   1.699  0.00  0.00    +0.041 A 
ATOM     14 CL   LIG    1       -6.580   0.202   1.863  0.00  0.00    -0.084 Cl
ATOM     15  C   LIG    1       -4.532   1.808   1.116  0.00  0.00    +0.020 A 
ATOM     16  C   LIG    1       -3.194   2.131   0.987  0.00  0.00    +0.008 A 
ENDBRANCH   1  10
BRANCH   1  17
ATOM     17  O   LIG    1       -0.043   1.108   2.424  0.00  0.00    -0.484 OA
BRANCH  17  21
ATOM     18  C   LIG    1        3.148   3.358   3.756  0.00  0.00    +0.000 A 
ATOM     19  C   LIG    1        2.375   3.812   2.703  0.00  0.00    +0.004 A 
ATOM     20  C   LIG    1        1.306   3.060   2.255  0.00  0.00    +0.045 A 
ATOM     21  C   LIG    1        1.008   1.849   2.863  0.00  0.00    +0.121 A 
ATOM     22  C   LIG    1        1.782   1.399   3.923  0.00  0.00    +0.045 A 
ATOM     23  C   LIG    1        2.854   2.151   4.363  0.00  0.00    +0.004 A 
ENDBRANCH  17  21
ENDBRANCH   1  17
TORSDOF 4
