REMARK  Name = ZINC13491249
REMARK                            x       y       z     vdW  Elec       q    Type
REMARK                         _______ _______ _______ _____ _____    ______ ____
ROOT
ATOM      1  C   LIG    1        4.835  -0.572  -0.048  0.00  0.00    -0.004 C 
ATOM      2  C   LIG    1        3.554  -0.915  -0.038  0.00  0.00    -0.042 C 
ATOM      3  C   LIG    1        3.013  -2.324  -0.041  0.00  0.00    +0.040 C 
ATOM      4  C   LIG    1        1.486  -2.171  -0.025  0.00  0.00    +0.040 C 
ATOM      5  C   LIG    1        1.204  -0.688  -0.014  0.00  0.00    -0.039 A 
ATOM      6  C   LIG    1        0.002  -0.004   0.002  0.00  0.00    +0.008 A 
ATOM      7  C   LIG    1       -0.017   1.377   0.010  0.00  0.00    +0.046 A 
ATOM      8  C   LIG    1        1.175   2.089   0.002  0.00  0.00    +0.121 A 
ATOM      9  C   LIG    1        2.383   1.416  -0.013  0.00  0.00    +0.054 A 
ATOM     10  C   LIG    1        2.405   0.017  -0.021  0.00  0.00    -0.015 A 
ENDROOT
BRANCH   8  11
ATOM     11  O   LIG    1        1.154   3.448   0.009  0.00  0.00    -0.495 OA
ATOM     12  C   LIG    1       -0.128   4.078   0.024  0.00  0.00    +0.277 C 
ENDBRANCH   8  11
BRANCH   1  13
ATOM     13  C   LIG    1        5.900  -1.638  -0.065  0.00  0.00    +0.132 C 
BRANCH  13  15
ATOM     14  C   LIG    1        7.829  -2.253  -1.420  0.00  0.00    +0.213 C 
ATOM     15  N   LIG    1        6.795  -1.417  -1.203  0.00  0.00    -0.312 N 
ATOM     16  H   LIG    1        6.643  -0.669  -1.801  0.00  0.00    +0.149 HD
ATOM     17  O   LIG    1        8.019  -3.189  -0.672  0.00  0.00    -0.276 OA
BRANCH  14  19
ATOM     18  C   LIG    1        9.831  -3.108  -2.608  0.00  0.00    +0.013 C 
ATOM     19  C   LIG    1        8.750  -2.026  -2.591  0.00  0.00    +0.092 C 
ENDBRANCH  14  19
ENDBRANCH  13  15
ENDBRANCH   1  13
TORSDOF 4
