REMARK  Name = ZINC13493521
REMARK                            x       y       z     vdW  Elec       q    Type
REMARK                         _______ _______ _______ _____ _____    ______ ____
ROOT
ATOM      1  C   UNK A  0        4.612  -0.863   1.514  0.00  0.00    +0.165 C 
ENDROOT
BRANCH   1   4
ATOM      2  N   LEU A  1        4.096  -2.023  -0.608  0.00  0.00    -0.305 N 
ATOM      3  H   LEU A  1        3.899  -2.820  -0.090  0.00  0.00    +0.149 HD
ATOM      4  C   UNK A  0        4.534  -0.909   0.010  0.00  0.00    +0.232 C 
ATOM      5  O   UNK A  0        4.865   0.057  -0.644  0.00  0.00    -0.274 OA
BRANCH   2   6
ATOM      6  CA  LEU A  1        3.917  -2.033  -2.062  0.00  0.00    +0.136 C 
BRANCH   6   7
ATOM      7  C   LEU A  1        5.231  -2.354  -2.728  0.00  0.00    +0.245 C 
ATOM      8  O   LEU A  1        6.215  -2.554  -2.057  0.00  0.00    -0.299 OA
ENDBRANCH   6   7
BRANCH   6   9
ATOM      9  CB  LEU A  1        2.881  -3.092  -2.442  0.00  0.00    +0.032 C 
BRANCH   9  11
ATOM     10  CD1 LEU A  1        1.038  -1.408  -2.534  0.00  0.00    +0.007 C 
ATOM     11  CG  LEU A  1        1.517  -2.700  -1.870  0.00  0.00    -0.015 C 
ATOM     12  CD2 LEU A  1        0.509  -3.818  -2.142  0.00  0.00    +0.007 C 
ENDBRANCH   9  11
ENDBRANCH   6   9
ENDBRANCH   2   6
ENDBRANCH   1   4
BRANCH   1  13
ATOM     13  C   UNK A  0        3.227  -0.556   2.088  0.00  0.00    +0.010 C 
ATOM     14  C   UNK A  0        2.803   0.853   1.670  0.00  0.00    +0.009 C 
ATOM     15  C   UNK A  0        3.277  -0.643   3.614  0.00  0.00    +0.009 C 
ENDBRANCH   1  13
BRANCH   1  16
ATOM     16  N   UNK A  0        5.552   0.184   1.922  0.00  0.00    -0.178 NA
ATOM     17  H   UNK A  0        5.354   1.115   1.734  0.00  0.00    +0.149 HD
BRANCH  16  18
ATOM     18  S   UNK A  0        6.954  -0.222   2.706  0.00  0.00    +0.059 S 
ATOM     19  O   UNK A  0        6.587  -1.084   3.774  0.00  0.00    -0.153 OA
ATOM     20  O   UNK A  0        7.667   0.989   2.915  0.00  0.00    -0.153 OA
BRANCH  18  21
ATOM     21  C   UNK A  0        7.915  -1.186   1.588  0.00  0.00    +0.105 A 
ATOM     22  C   UNK A  0        7.768  -2.561   1.559  0.00  0.00    +0.031 A 
ATOM     23  C   UNK A  0        8.522  -3.318   0.682  0.00  0.00    +0.040 A 
ATOM     24  C   UNK A  0        9.424  -2.700  -0.167  0.00  0.00    +0.124 A 
ATOM     25  F   UNK A  0       10.161  -3.440  -1.024  0.00  0.00    -0.205 F 
ATOM     26  C   UNK A  0        9.570  -1.323  -0.137  0.00  0.00    +0.040 A 
ATOM     27  C   UNK A  0        8.812  -0.568   0.737  0.00  0.00    +0.031 A 
ENDBRANCH  18  21
ENDBRANCH  16  18
ENDBRANCH   1  16
TORSDOF 9
