REMARK  Name = ZINC13471976
REMARK                            x       y       z     vdW  Elec       q    Type
REMARK                         _______ _______ _______ _____ _____    ______ ____
ROOT
ATOM      1  C   LIG    1        0.628  -4.590  -4.743  0.00  0.00    +0.034 A 
ATOM      2  C   LIG    1        1.188  -3.753  -5.699  0.00  0.00    +0.025 A 
ATOM      3  C   LIG    1        1.277  -4.171  -7.012  0.00  0.00    +0.030 A 
ATOM      4  C   LIG    1        0.809  -5.420  -7.376  0.00  0.00    +0.105 A 
ATOM      5  C   LIG    1        0.251  -6.256  -6.426  0.00  0.00    +0.030 A 
ATOM      6  C   LIG    1        0.164  -5.846  -5.109  0.00  0.00    +0.025 A 
ENDROOT
BRANCH   1   8
ATOM      7  C   LIG    1        0.267  -2.880  -3.128  0.00  0.00    +0.220 C 
ATOM      8  N   LIG    1        0.536  -4.170  -3.411  0.00  0.00    -0.285 N 
ATOM      9  H   LIG    1        0.665  -4.807  -2.691  0.00  0.00    +0.155 HD
ATOM     10  O   LIG    1        0.241  -2.056  -4.019  0.00  0.00    -0.275 OA
BRANCH   7  11
ATOM     11  C   LIG    1       -0.003  -2.460  -1.706  0.00  0.00    +0.075 C 
BRANCH  11  12
ATOM     12  C   LIG    1        0.005  -0.933  -1.615  0.00  0.00    +0.012 C 
BRANCH  12  14
ATOM     13  C   LIG    1       -0.136   1.018  -0.061  0.00  0.00    +0.004 C 
ATOM     14  C   LIG    1       -0.144  -0.509  -0.152  0.00  0.00    -0.003 C 
ENDBRANCH  12  14
ENDBRANCH  11  12
BRANCH  11  15
ATOM     15  C   LIG    1       -1.369  -2.990  -1.268  0.00  0.00    +0.012 C 
BRANCH  15  16
ATOM     16  C   LIG    1       -2.436  -2.536  -2.266  0.00  0.00    -0.003 C 
ATOM     17  C   LIG    1       -3.776  -3.185  -1.911  0.00  0.00    +0.004 C 
ENDBRANCH  15  16
ENDBRANCH  11  15
ENDBRANCH   7  11
ENDBRANCH   1   8
BRANCH   4  18
ATOM     18  S   LIG    1        0.925  -5.949  -9.052  0.00  0.00    +0.056 S 
ATOM     19  O   LIG    1        0.989  -4.772  -9.846  0.00  0.00    -0.153 OA
ATOM     20  O   LIG    1       -0.077  -6.939  -9.236  0.00  0.00    -0.153 OA
BRANCH  18  21
ATOM     21  N   LIG    1        2.384  -6.715  -9.225  0.00  0.00    -0.204 NA
ATOM     22  H   LIG    1        2.639  -7.083 -10.085  0.00  0.00    +0.144 HD
ATOM     23  H   LIG    1        2.982  -6.796  -8.465  0.00  0.00    +0.144 HD
ENDBRANCH  18  21
ENDBRANCH   4  18
TORSDOF 8
