REMARK  Name = ZINC13491909
REMARK                            x       y       z     vdW  Elec       q    Type
REMARK                         _______ _______ _______ _____ _____    ______ ____
ROOT
ATOM      1  N   LIG    1       -2.119   1.069   1.257  0.00  0.00    +0.383 N 
ATOM      2  H   LIG    1       -2.096   0.046   1.171  0.00  0.00    -0.081 HD
ATOM      3  C   LIG    1       -2.860   1.629   0.107  0.00  0.00    -0.075 C 
ATOM      4  C   LIG    1       -2.211   1.137  -1.189  0.00  0.00    +0.021 C 
ATOM      5  C   LIG    1       -0.753   1.593  -1.229  0.00  0.00    +0.093 C 
ATOM      6  C   LIG    1       -0.082   1.089  -2.482  0.00  0.00    -0.009 A 
ATOM      7  C   LIG    1       -0.103  -0.126  -3.135  0.00  0.00    +0.007 A 
ATOM      8  C   LIG    1        0.630  -0.300  -4.294  0.00  0.00    +0.000 A 
ATOM      9  C   LIG    1        1.384   0.744  -4.799  0.00  0.00    +0.000 A 
ATOM     10  C   LIG    1        1.406   1.962  -4.145  0.00  0.00    +0.007 A 
ATOM     11  C   LIG    1        0.674   2.136  -2.989  0.00  0.00    +0.001 A 
ATOM     12  C   LIG    1        0.490   3.313  -2.060  0.00  0.00    +0.251 C 
ATOM     13  O   LIG    1       -0.689   3.026  -1.284  0.00  0.00    -0.347 OA
ATOM     14  C   LIG    1       -0.013   1.086   0.008  0.00  0.00    +0.021 C 
ATOM     15  C   LIG    1       -0.731   1.580   1.266  0.00  0.00    -0.075 C 
ENDROOT
BRANCH  12  16
ATOM     16  C   LIG    1        1.659   3.450  -1.176  0.00  0.00    +0.099 C 
ATOM     17  N   LIG    1        2.561   3.555  -0.493  0.00  0.00    -0.193 NA
ENDBRANCH  12  16
BRANCH   1  18
ATOM     18  C   LIG    1       -2.798   1.429   2.519  0.00  0.00    -0.043 C 
BRANCH  18  22
ATOM     19  C   LIG    1       -0.244   0.470   5.806  0.00  0.00    +0.000 A 
ATOM     20  C   LIG    1       -0.193   1.727   5.235  0.00  0.00    +0.000 A 
ATOM     21  C   LIG    1       -1.019   2.038   4.171  0.00  0.00    +0.002 A 
ATOM     22  C   LIG    1       -1.897   1.091   3.678  0.00  0.00    -0.064 A 
ATOM     23  C   LIG    1       -1.952  -0.166   4.252  0.00  0.00    +0.002 A 
ATOM     24  C   LIG    1       -1.122  -0.478   5.313  0.00  0.00    +0.000 A 
ENDBRANCH  18  22
ENDBRANCH   1  18
TORSDOF 3
