REMARK  Name = ZINC13546618
REMARK                            x       y       z     vdW  Elec       q    Type
REMARK                         _______ _______ _______ _____ _____    ______ ____
ROOT
ATOM      1  C   LIG    1       -0.018   1.503   0.010  0.00  0.00    +0.166 C 
ATOM      2  O   LIG    1       -1.077   2.095   0.018  0.00  0.00    -0.292 OA
ENDROOT
BRANCH   1  10
ATOM      3  C   LIG    1        2.468   1.576  -0.007  0.00  0.00    +0.013 A 
ATOM      4  C   LIG    1        3.648   2.287  -0.021  0.00  0.00    +0.022 A 
ATOM      5  C   LIG    1        3.627   3.672  -0.013  0.00  0.00    +0.059 A 
ATOM      6 CL   LIG    1        5.119   4.560  -0.024  0.00  0.00    -0.082 Cl
ATOM      7  C   LIG    1        2.419   4.353   0.002  0.00  0.00    +0.060 A 
ATOM      8 CL   LIG    1        2.403   6.089   0.012  0.00  0.00    -0.082 Cl
ATOM      9  C   LIG    1        1.230   3.655   0.010  0.00  0.00    +0.032 A 
ATOM     10  C   LIG    1        1.245   2.256   0.002  0.00  0.00    +0.019 A 
ENDBRANCH   1  10
BRANCH   1  11
ATOM     11  C   LIG    1        0.002  -0.004   0.002  0.00  0.00    +0.122 C 
BRANCH  11  12
ATOM     12  C   LIG    1       -1.433  -0.534   0.013  0.00  0.00    +0.230 C 
BRANCH  12  13
ATOM     13  O   LIG    1       -2.066  -0.171   1.242  0.00  0.00    -0.380 OA
ATOM     14  H   LIG    1       -1.626  -0.521   2.029  0.00  0.00    +0.211 HD
ENDBRANCH  12  13
BRANCH  12  15
ATOM     15  C   LIG    1       -1.416  -2.035  -0.119  0.00  0.00    +0.334 C 
ATOM     16  O   LIG    1       -1.813  -2.726   0.789  0.00  0.00    -0.248 OA
BRANCH  15  17
ATOM     17  O   LIG    1       -0.959  -2.604  -1.246  0.00  0.00    -0.479 OA
ATOM     18  H   LIG    1       -0.651  -2.068  -1.950  0.00  0.00    +0.295 HD
ENDBRANCH  15  17
ENDBRANCH  12  15
ENDBRANCH  11  12
ENDBRANCH   1  11
TORSDOF 6
