REMARK  Name = ZINC13553652
REMARK                            x       y       z     vdW  Elec       q    Type
REMARK                         _______ _______ _______ _____ _____    ______ ____
ROOT
ATOM      1  C   LIG    1       -0.018   1.503   0.010  0.00  0.00    +0.046 C 
ATOM      2  C   LIG    1        0.002  -0.004   0.002  0.00  0.00    -0.025 A 
ATOM      3  C   LIG    1        0.006  -0.687  -1.196  0.00  0.00    +0.025 A 
ATOM      4  C   LIG    1        0.025  -2.074  -1.219  0.00  0.00    +0.042 A 
ATOM      5 CL   LIG    1        0.029  -2.915  -2.737  0.00  0.00    -0.084 Cl
ATOM      6  C   LIG    1        0.041  -2.787  -0.037  0.00  0.00    +0.032 A 
ATOM      7  C   LIG    1        0.037  -2.108   1.178  0.00  0.00    +0.032 A 
ATOM      8  C   LIG    1        0.050  -2.542   2.589  0.00  0.00    +0.154 A 
ATOM      9  C   LIG    1        0.052  -1.374   3.354  0.00  0.00    +0.219 A 
ATOM     10  N   LIG    1        0.029  -0.300   2.527  0.00  0.00    -0.324 N 
ATOM     11  H   LIG    1        0.019   0.624   2.822  0.00  0.00    +0.169 HD
ATOM     12  C   LIG    1        0.023  -0.705   1.202  0.00  0.00    +0.054 A 
ENDROOT
BRANCH   8  13
ATOM     13  N   LIG    1        0.069  -3.801   3.043  0.00  0.00    -0.141 NA
ATOM     14  N   LIG    1        0.079  -4.029   4.313  0.00  0.00    -0.124 NA
BRANCH  14  15
ATOM     15  C   LIG    1        0.098  -5.296   4.771  0.00  0.00    +0.178 C 
ATOM     16  N   LIG    1        0.108  -5.538   6.122  0.00  0.00    -0.377 N 
ATOM     17  H   LIG    1        0.122  -6.451   6.451  0.00  0.00    +0.158 HD
ATOM     18  H   LIG    1        0.101  -4.797   6.748  0.00  0.00    +0.158 HD
BRANCH  15  19
ATOM     19  S   LIG    1        0.110  -6.565   3.700  0.00  0.00    -0.104 S 
ATOM     20  H   LIG    1        0.097  -6.084   2.428  0.00  0.00    +0.110 HD
ENDBRANCH  15  19
ENDBRANCH  14  15
ENDBRANCH   8  13
BRANCH   9  21
ATOM     21  O   LIG    1        0.063  -1.322   4.703  0.00  0.00    -0.492 OA
ATOM     22  H   LIG    1       -0.817  -1.320   5.104  0.00  0.00    +0.294 HD
ENDBRANCH   9  21
TORSDOF 4
