REMARK  Name = ZINC13524440
REMARK                            x       y       z     vdW  Elec       q    Type
REMARK                         _______ _______ _______ _____ _____    ______ ____
ROOT
ATOM      1  C   LIG    1        0.030  -0.638   2.392  0.00  0.00    +0.122 C 
ATOM      2  C   LIG    1       -1.322  -0.330   2.459  0.00  0.00    +0.044 C 
ATOM      3  C   LIG    1       -1.990  -0.484   3.676  0.00  0.00    +0.044 C 
ATOM      4  C   LIG    1       -1.261  -0.947   4.780  0.00  0.00    +0.025 C 
ATOM      5  C   LIG    1        0.078  -1.230   4.628  0.00  0.00    +0.083 C 
ATOM      6  N   LIG    1        0.678  -1.077   3.461  0.00  0.00    -0.301 NA
ATOM      7  H   LIG    1        1.622  -1.289   3.386  0.00  0.00    +0.123 HD
ENDROOT
BRANCH   3   8
ATOM      8  C   LIG    1       -3.431  -0.168   3.796  0.00  0.00    +0.071 A 
ATOM      9  C   LIG    1       -4.347  -0.828   4.592  0.00  0.00    +0.070 A 
ATOM     10  N   LIG    1       -5.561  -0.200   4.392  0.00  0.00    -0.333 N 
ATOM     11  C   LIG    1       -5.351   0.805   3.496  0.00  0.00    +0.167 A 
ATOM     12  H   LIG    1       -6.404  -0.431   4.811  0.00  0.00    +0.168 HD
ATOM     13  N   LIG    1       -4.085   0.820   3.152  0.00  0.00    -0.226 NA
BRANCH   9  14
ATOM     14  C   LIG    1       -4.081  -1.976   5.481  0.00  0.00    +0.000 A 
ATOM     15  C   LIG    1       -3.299  -3.043   5.033  0.00  0.00    +0.013 A 
ATOM     16  C   LIG    1       -3.054  -4.113   5.867  0.00  0.00    +0.039 A 
ATOM     17  C   LIG    1       -3.582  -4.131   7.149  0.00  0.00    +0.123 A 
ATOM     18  F   LIG    1       -3.339  -5.182   7.962  0.00  0.00    -0.205 F 
ATOM     19  C   LIG    1       -4.359  -3.075   7.599  0.00  0.00    +0.039 A 
ATOM     20  C   LIG    1       -4.606  -1.997   6.775  0.00  0.00    +0.013 A 
ENDBRANCH   9  14
BRANCH  11  21
ATOM     21  S   LIG    1       -6.584   1.912   2.898  0.00  0.00    -0.091 S 
ATOM     22  C   LIG    1       -5.684   2.994   1.753  0.00  0.00    +0.093 C 
ENDBRANCH  11  21
ENDBRANCH   3   8
BRANCH   1  23
ATOM     23  N   LIG    1        0.711  -0.489   1.189  0.00  0.00    -0.295 NA
ATOM     24  H   LIG    1        1.654  -0.707   1.135  0.00  0.00    +0.124 HD
BRANCH  23  26
ATOM     25  C   LIG    1       -0.019   1.526   0.010  0.00  0.00    +0.029 C 
ATOM     26  C   LIG    1        0.002  -0.004   0.002  0.00  0.00    +0.082 C 
BRANCH  26  27
ATOM     27  C   LIG    1        0.707  -0.490  -1.238  0.00  0.00    -0.031 A 
ATOM     28  C   LIG    1        2.089  -0.511  -1.284  0.00  0.00    +0.005 A 
ATOM     29  C   LIG    1        2.736  -0.957  -2.421  0.00  0.00    +0.000 A 
ATOM     30  C   LIG    1        2.002  -1.382  -3.512  0.00  0.00    +0.000 A 
ATOM     31  C   LIG    1        0.620  -1.362  -3.466  0.00  0.00    +0.000 A 
ATOM     32  C   LIG    1       -0.027  -0.920  -2.327  0.00  0.00    +0.005 A 
ENDBRANCH  26  27
ENDBRANCH  23  26
ENDBRANCH   1  23
TORSDOF 6
