REMARK  Name = ZINC13473194
REMARK                            x       y       z     vdW  Elec       q    Type
REMARK                         _______ _______ _______ _____ _____    ______ ____
ROOT
ATOM      1  C   LIG    1       -0.718   1.572   1.248  0.00  0.00    -0.007 A 
ATOM      2  C   LIG    1       -1.793   0.882   1.966  0.00  0.00    +0.008 A 
ATOM      3  C   LIG    1       -2.464  -0.328   1.776  0.00  0.00    +0.056 A 
ATOM      4  C   LIG    1       -3.458  -0.702   2.657  0.00  0.00    +0.121 A 
ATOM      5  C   LIG    1       -3.791   0.121   3.730  0.00  0.00    +0.047 A 
ATOM      6  C   LIG    1       -3.136   1.316   3.927  0.00  0.00    +0.030 A 
ATOM      7  C   LIG    1       -2.131   1.711   3.050  0.00  0.00    +0.050 A 
ATOM      8  N   LIG    1       -1.315   2.821   2.984  0.00  0.00    -0.338 N 
ATOM      9  C   LIG    1       -1.337   3.940   3.929  0.00  0.00    +0.150 C 
ATOM     10  C   LIG    1       -0.476   2.717   1.907  0.00  0.00    +0.085 A 
ATOM     11  I   LIG    1        0.967   4.136   1.365  0.00  0.00    -0.024 I 
ENDROOT
BRANCH   4  12
ATOM     12  O   LIG    1       -4.115  -1.879   2.477  0.00  0.00    -0.495 OA
ATOM     13  C   LIG    1       -5.133  -2.206   3.426  0.00  0.00    +0.277 C 
ENDBRANCH   4  12
BRANCH   1  14
ATOM     14  C   LIG    1       -0.013   1.086   0.008  0.00  0.00    +0.057 C 
BRANCH  14  15
ATOM     15  C   LIG    1       -0.753   1.593  -1.232  0.00  0.00    +0.109 C 
BRANCH  15  18
ATOM     16  C   LIG    1        0.162   0.960  -4.895  0.00  0.00    +0.109 C 
ATOM     17  C   LIG    1       -0.543   1.446  -3.655  0.00  0.00    +0.210 C 
ATOM     18  N   LIG    1       -0.067   1.120  -2.437  0.00  0.00    -0.315 N 
ATOM     19  H   LIG    1        0.730   0.573  -2.358  0.00  0.00    +0.149 HD
ATOM     20  O   LIG    1       -1.540   2.130  -3.753  0.00  0.00    -0.276 OA
ENDBRANCH  15  18
ENDBRANCH  14  15
ENDBRANCH   1  14
TORSDOF 4
