REMARK  Name = ZINC13488373
REMARK                            x       y       z     vdW  Elec       q    Type
REMARK                         _______ _______ _______ _____ _____    ______ ____
ROOT
ATOM      1  C   LIG    1        1.155   3.717   0.161  0.00  0.00    +0.077 C 
ATOM      2  C   LIG    1        2.592   4.280   0.127  0.00  0.00    +0.031 C 
ATOM      3  C   LIG    1        2.457   5.430  -0.898  0.00  0.00    +0.098 C 
ATOM      4  C   LIG    1        1.275   5.027  -1.753  0.00  0.00    +0.216 C 
ATOM      5  O   LIG    1        1.006   5.503  -2.836  0.00  0.00    -0.276 OA
ATOM      6  N   LIG    1        0.568   4.063  -1.139  0.00  0.00    -0.298 N 
ENDROOT
BRANCH   1   7
ATOM      7  C   LIG    1        1.185   2.198   0.340  0.00  0.00    +0.025 C 
BRANCH   7   8
ATOM      8  C   LIG    1        1.695   1.860   1.742  0.00  0.00    +0.033 C 
BRANCH   8   9
ATOM      9  C   LIG    1        1.636   0.346   1.955  0.00  0.00    +0.115 C 
BRANCH   9  10
ATOM     10  O   LIG    1        0.274  -0.086   1.934  0.00  0.00    -0.392 OA
ATOM     11  H   LIG    1       -0.278   0.320   2.617  0.00  0.00    +0.210 HD
ENDBRANCH   9  10
BRANCH   9  12
ATOM     12  C   LIG    1        2.261  -0.004   3.308  0.00  0.00    +0.031 C 
BRANCH  12  13
ATOM     13  C   LIG    1        2.316  -1.524   3.466  0.00  0.00    +0.002 C 
BRANCH  13  14
ATOM     14  C   LIG    1        2.940  -1.874   4.819  0.00  0.00    -0.000 C 
BRANCH  14  16
ATOM     15  C   LIG    1        3.619  -3.744   6.330  0.00  0.00    +0.004 C 
ATOM     16  C   LIG    1        2.995  -3.395   4.977  0.00  0.00    -0.003 C 
ENDBRANCH  14  16
ENDBRANCH  13  14
ENDBRANCH  12  13
ENDBRANCH   9  12
ENDBRANCH   8   9
ENDBRANCH   7   8
ENDBRANCH   1   7
BRANCH   6  17
ATOM     17  C   LIG    1       -0.635   3.439  -1.696  0.00  0.00    +0.108 C 
BRANCH  17  18
ATOM     18  C   LIG    1       -1.877   4.146  -1.149  0.00  0.00    +0.019 C 
BRANCH  18  19
ATOM     19  C   LIG    1       -3.133   3.494  -1.730  0.00  0.00    +0.002 C 
BRANCH  19  20
ATOM     20  C   LIG    1       -4.374   4.201  -1.183  0.00  0.00    +0.001 C 
BRANCH  20  21
ATOM     21  C   LIG    1       -5.630   3.549  -1.765  0.00  0.00    +0.011 C 
BRANCH  21  22
ATOM     22  C   LIG    1       -6.872   4.256  -1.218  0.00  0.00    +0.120 C 
BRANCH  22  23
ATOM     23  C   LIG    1       -8.109   3.614  -1.791  0.00  0.00    +0.305 C 
ATOM     24  O   LIG    1       -8.008   2.686  -2.557  0.00  0.00    -0.251 OA
BRANCH  23  25
ATOM     25  O   LIG    1       -9.323   4.073  -1.449  0.00  0.00    -0.481 OA
ATOM     26  H   LIG    1       -9.402   4.793  -0.854  0.00  0.00    +0.295 HD
ENDBRANCH  23  25
ENDBRANCH  22  23
ENDBRANCH  21  22
ENDBRANCH  20  21
ENDBRANCH  19  20
ENDBRANCH  18  19
ENDBRANCH  17  18
ENDBRANCH   6  17
TORSDOF 16
