REMARK  Name = ZINC13462664
REMARK                            x       y       z     vdW  Elec       q    Type
REMARK                         _______ _______ _______ _____ _____    ______ ____
ROOT
ATOM      1  C   LIG    1        3.453   2.392  -0.019  0.00  0.00    +0.047 A 
ATOM      2  C   LIG    1        2.472   1.423  -0.014  0.00  0.00    +0.027 A 
ATOM      3  C   LIG    1        1.124   1.783   0.001  0.00  0.00    +0.031 A 
ATOM      4  C   LIG    1        0.785   3.127   0.011  0.00  0.00    -0.022 A 
ATOM      5  C   LIG    1       -0.723   3.243   0.025  0.00  0.00    +0.055 C 
ATOM      6  C   LIG    1       -1.223   1.789   0.017  0.00  0.00    +0.106 C 
ATOM      7  C   LIG    1        1.767   4.098   0.006  0.00  0.00    +0.051 A 
ATOM      8  N   LIG    1       -0.011   0.966   0.007  0.00  0.00    -0.343 N 
ATOM      9  H   LIG    1        0.002  -0.004   0.002  0.00  0.00    +0.146 HD
ATOM     10  C   LIG    1        3.106   3.735  -0.009  0.00  0.00    +0.117 A 
ENDROOT
BRANCH  10  11
ATOM     11  O   LIG    1        4.073   4.690  -0.013  0.00  0.00    -0.507 OA
ATOM     12  H   LIG    1        4.362   4.962   0.869  0.00  0.00    +0.292 HD
ENDBRANCH  10  11
TORSDOF 1
