REMARK  Name = ZINC13472727
REMARK                            x       y       z     vdW  Elec       q    Type
REMARK                         _______ _______ _______ _____ _____    ______ ____
ROOT
ATOM      1  C   LIG    1        1.247  -2.164  -0.021  0.00  0.00    +0.064 C 
ATOM      2  C   LIG    1        0.505  -2.897   0.902  0.00  0.00    +0.094 C 
ATOM      3  N   LIG    1        0.511  -4.259   0.911  0.00  0.00    -0.289 NA
ATOM      4  H   LIG    1       -0.038  -4.757   1.582  0.00  0.00    +0.125 HD
ATOM      5  C   LIG    1        1.297  -4.850  -0.035  0.00  0.00    +0.192 C 
ATOM      6  N   LIG    1        2.022  -4.195  -0.928  0.00  0.00    -0.273 NA
ATOM      7  H   LIG    1        1.703  -4.505  -1.846  0.00  0.00    +0.126 HD
ATOM      8  C   LIG    1        2.027  -2.867  -0.957  0.00  0.00    +0.130 C 
ENDROOT
BRANCH   1  11
ATOM      9  C   LIG    1        2.383   1.420  -0.013  0.00  0.00    +0.002 A 
ATOM     10  C   LIG    1        2.413   0.040  -0.021  0.00  0.00    +0.004 A 
ATOM     11  C   LIG    1        1.220  -0.681  -0.013  0.00  0.00    -0.039 A 
ATOM     12  C   LIG    1        0.002  -0.004   0.002  0.00  0.00    +0.024 A 
ATOM     13  C   LIG    1       -0.017   1.377   0.010  0.00  0.00    +0.041 A 
ATOM     14 CL   LIG    1       -1.532   2.223   0.021  0.00  0.00    -0.084 Cl
ATOM     15  C   LIG    1        1.172   2.087   0.002  0.00  0.00    +0.020 A 
ENDBRANCH   1  11
BRANCH   5  16
ATOM     16  N   LIG    1        1.318  -6.233  -0.036  0.00  0.00    -0.303 NA
ATOM     17  H   LIG    1        0.791  -6.727   0.612  0.00  0.00    +0.121 HD
ATOM     18  H   LIG    1        1.859  -6.709  -0.685  0.00  0.00    +0.121 HD
ENDBRANCH   5  16
BRANCH   8  19
ATOM     19  N   LIG    1        2.787  -2.187  -1.893  0.00  0.00    -0.315 NA
ATOM     20  H   LIG    1        3.321  -2.680  -2.534  0.00  0.00    +0.120 HD
ATOM     21  H   LIG    1        2.784  -1.217  -1.907  0.00  0.00    +0.120 HD
ENDBRANCH   8  19
TORSDOF 3
