REMARK  Name = ZINC13529512
REMARK                            x       y       z     vdW  Elec       q    Type
REMARK                         _______ _______ _______ _____ _____    ______ ____
ROOT
ATOM      1  C   LIG    1        3.030  -2.146   1.542  0.00  0.00    +0.136 C 
ENDROOT
BRANCH   1   6
ATOM      2  C   LIG    1       -0.019   1.526   0.010  0.00  0.00    +0.003 C 
ATOM      3  C   LIG    1        1.417   2.058  -0.000  0.00  0.00    +0.019 C 
ATOM      4  C   LIG    1        2.144   1.577   1.259  0.00  0.00    +0.108 C 
ATOM      5  N   LIG    1        2.043   0.113   1.334  0.00  0.00    -0.300 N 
ATOM      6  C   LIG    1        3.149  -0.646   1.466  0.00  0.00    +0.232 C 
ATOM      7  O   LIG    1        4.241  -0.121   1.524  0.00  0.00    -0.274 OA
ATOM      8  C   LIG    1        0.714  -0.508   1.262  0.00  0.00    +0.108 C 
ATOM      9  C   LIG    1        0.002  -0.004   0.002  0.00  0.00    +0.019 C 
ENDBRANCH   1   6
BRANCH   1  10
ATOM     10  N   LIG    1        4.322  -2.758   1.204  0.00  0.00    -0.320 NA
ATOM     11  H   LIG    1        4.251  -3.764   1.185  0.00  0.00    +0.119 HD
ATOM     12  H   LIG    1        5.042  -2.458   1.845  0.00  0.00    +0.119 HD
ENDBRANCH   1  10
BRANCH   1  13
ATOM     13  C   LIG    1        2.626  -2.555   2.960  0.00  0.00    +0.008 C 
BRANCH  13  14
ATOM     14  C   LIG    1        2.383  -4.064   3.006  0.00  0.00    -0.084 C 
BRANCH  14  15
ATOM     15  N   LIG    1        1.996  -4.457   4.367  0.00  0.00    +0.378 N 
ATOM     16  H   LIG    1        1.835  -5.453   4.397  0.00  0.00    -0.090 HD
ATOM     17  H   LIG    1        1.151  -3.972   4.629  0.00  0.00    -0.090 HD
ATOM     18  H   LIG    1        2.735  -4.216   5.010  0.00  0.00    -0.090 HD
ENDBRANCH  14  15
ENDBRANCH  13  14
ENDBRANCH   1  13
TORSDOF 5
