REMARK  Name = ZINC13526606
REMARK                            x       y       z     vdW  Elec       q    Type
REMARK                         _______ _______ _______ _____ _____    ______ ____
ROOT
ATOM      1  C   LIG    1        4.117   2.434   1.397  0.00  0.00    +0.068 A 
ATOM      2  C   LIG    1        5.357   2.095   1.940  0.00  0.00    +0.059 A 
ATOM      3  C   LIG    1        5.307   2.516   3.260  0.00  0.00    +0.143 A 
ATOM      4  N   LIG    1        4.070   3.072   3.436  0.00  0.00    -0.271 N 
ATOM      5  H   LIG    1        3.742   3.457   4.264  0.00  0.00    +0.189 HD
ATOM      6  N   LIG    1        3.410   3.012   2.335  0.00  0.00    -0.178 NA
ENDROOT
BRANCH   3   7
ATOM      7  C   LIG    1        6.367   2.390   4.266  0.00  0.00    +0.355 C 
ATOM      8  O   LIG    1        6.186   2.808   5.402  0.00  0.00    -0.243 OA
BRANCH   7   9
ATOM      9  O   LIG    1        7.433   1.866   3.970  0.00  0.00    -0.476 OA
ATOM     10  H   LIG    1        7.572   1.546   3.100  0.00  0.00    +0.295 HD
ENDBRANCH   7   9
ENDBRANCH   3   7
BRANCH   1  11
ATOM     11  C   LIG    1        3.672   2.184  -0.021  0.00  0.00    +0.092 C 
BRANCH  11  14
ATOM     12  C   LIG    1       -0.017   1.378   0.010  0.00  0.00    +0.002 A 
ATOM     13  C   LIG    1        1.171   2.086   0.002  0.00  0.00    +0.004 A 
ATOM     14  C   LIG    1        2.378   1.412  -0.013  0.00  0.00    -0.040 A 
ATOM     15  C   LIG    1        2.398   0.029  -0.021  0.00  0.00    +0.024 A 
ATOM     16  C   LIG    1        1.210  -0.679  -0.013  0.00  0.00    +0.041 A 
ATOM     17 CL   LIG    1        1.234  -2.415  -0.024  0.00  0.00    -0.084 Cl
ATOM     18  C   LIG    1        0.002  -0.004   0.002  0.00  0.00    +0.020 A 
ENDBRANCH  11  14
ENDBRANCH   1  11
TORSDOF 4
