REMARK  Name = ZINC13448023
REMARK                            x       y       z     vdW  Elec       q    Type
REMARK                         _______ _______ _______ _____ _____    ______ ____
ROOT
ATOM      1  C   LIG    1       -0.018   1.507   0.010  0.00  0.00    -0.054 C 
ATOM      2  N   LIG    1        1.386   1.884  -0.017  0.00  0.00    +0.384 N 
ATOM      3  H   LIG    1        1.514   2.749  -0.555  0.00  0.00    -0.085 HD
ATOM      4  H   LIG    1        1.738   2.020   0.938  0.00  0.00    -0.085 HD
ATOM      5  C   LIG    1        2.081   0.780  -0.660  0.00  0.00    -0.040 C 
ATOM      6  C   LIG    1        1.206  -0.421  -0.383  0.00  0.00    +0.014 C 
ATOM      7  C   LIG    1        0.002  -0.004   0.002  0.00  0.00    -0.037 C 
ENDROOT
BRANCH   6   8
ATOM      8  C   LIG    1        1.620  -1.825  -0.516  0.00  0.00    +0.331 C 
ATOM      9  O   LIG    1        0.832  -2.717  -0.266  0.00  0.00    -0.246 OA
BRANCH   8  10
ATOM     10  O   LIG    1        2.872  -2.124  -0.917  0.00  0.00    -0.477 OA
ATOM     11  H   LIG    1        3.479  -1.437  -1.109  0.00  0.00    +0.295 HD
ENDBRANCH   8  10
ENDBRANCH   6   8
TORSDOF 2
