REMARK  Name = ZINC13538921
REMARK                            x       y       z     vdW  Elec       q    Type
REMARK                         _______ _______ _______ _____ _____    ______ ____
ROOT
ATOM      1  C   LIG    1        0.728  -3.216  -0.022  0.00  0.00    +0.023 C 
ATOM      2  C   LIG    1        1.237  -4.494  -0.138  0.00  0.00    +0.047 C 
ATOM      3  C   LIG    1        0.477  -5.758  -0.262  0.00  0.00    +0.010 A 
ATOM      4  C   LIG    1       -0.881  -6.055  -0.299  0.00  0.00    +0.039 A 
ATOM      5  C   LIG    1       -1.292  -7.366  -0.425  0.00  0.00    +0.106 A 
ATOM      6  C   LIG    1       -0.355  -8.382  -0.513  0.00  0.00    +0.030 A 
ATOM      7  C   LIG    1        0.995  -8.098  -0.477  0.00  0.00    +0.026 A 
ATOM      8  C   LIG    1        1.429  -6.783  -0.352  0.00  0.00    +0.042 A 
ATOM      9  N   LIG    1        2.702  -6.230  -0.291  0.00  0.00    -0.281 N 
ATOM     10  H   LIG    1        3.524  -6.744  -0.334  0.00  0.00    +0.155 HD
ATOM     11  C   LIG    1        2.650  -4.892  -0.172  0.00  0.00    +0.249 C 
ATOM     12  O   LIG    1        3.607  -4.142  -0.102  0.00  0.00    -0.270 OA
ENDROOT
BRANCH   1  18
ATOM     13  C   LIG    1        0.759   0.881   2.178  0.00  0.00    +0.001 A 
ATOM     14  C   LIG    1        1.828   1.671   1.781  0.00  0.00    +0.002 A 
ATOM     15  C   LIG    1        2.727   1.216   0.841  0.00  0.00    +0.026 A 
ATOM     16  C   LIG    1        2.566  -0.047   0.280  0.00  0.00    +0.047 A 
ATOM     17  C   LIG    1        1.483  -0.845   0.682  0.00  0.00    +0.007 A 
ATOM     18  C   LIG    1        1.596  -2.100  -0.086  0.00  0.00    +0.001 A 
ATOM     19  C   LIG    1        2.717  -1.967  -0.880  0.00  0.00    +0.091 A 
ATOM     20  N   LIG    1        3.284  -0.757  -0.660  0.00  0.00    -0.360 N 
ATOM     21  H   LIG    1        4.085  -0.434  -1.103  0.00  0.00    +0.165 HD
ATOM     22  C   LIG    1        0.583  -0.373   1.633  0.00  0.00    +0.010 A 
ENDBRANCH   1  18
BRANCH   5  23
ATOM     23  S   LIG    1       -3.011  -7.749  -0.472  0.00  0.00    +0.056 S 
ATOM     24  O   LIG    1       -3.684  -6.678   0.177  0.00  0.00    -0.153 OA
ATOM     25  O   LIG    1       -3.139  -9.099  -0.046  0.00  0.00    -0.153 OA
BRANCH  23  26
ATOM     26  N   LIG    1       -3.478  -7.708  -2.061  0.00  0.00    -0.204 NA
ATOM     27  H   LIG    1       -4.400  -7.893  -2.300  0.00  0.00    +0.144 HD
ATOM     28  H   LIG    1       -2.830  -7.498  -2.751  0.00  0.00    +0.144 HD
ENDBRANCH  23  26
ENDBRANCH   5  23
TORSDOF 3
