REMARK  Name = ZINC13301583
REMARK                            x       y       z     vdW  Elec       q    Type
REMARK                         _______ _______ _______ _____ _____    ______ ____
ROOT
ATOM      1  N   LIG    1       -0.207  -6.335   3.410  0.00  0.00    -0.257 N 
ATOM      2  C   LIG    1       -1.395  -7.031   3.214  0.00  0.00    +0.047 A 
ATOM      3  C   LIG    1       -2.722  -6.614   3.219  0.00  0.00    +0.024 A 
ATOM      4  C   LIG    1       -3.735  -7.523   2.992  0.00  0.00    +0.002 A 
ATOM      5  C   LIG    1       -3.447  -8.857   2.757  0.00  0.00    +0.001 A 
ATOM      6  C   LIG    1       -2.136  -9.290   2.748  0.00  0.00    +0.012 A 
ATOM      7  C   LIG    1       -1.108  -8.381   2.975  0.00  0.00    +0.028 A 
ATOM      8  C   LIG    1        0.366  -8.511   3.032  0.00  0.00    +0.153 C 
ATOM      9  N   LIG    1        1.079  -9.599   2.865  0.00  0.00    -0.174 NA
ATOM     10  C   LIG    1        0.859  -7.146   3.310  0.00  0.00    +0.272 C 
ATOM     11  O   LIG    1        2.024  -6.816   3.430  0.00  0.00    -0.268 OA
ENDROOT
BRANCH   9  12
ATOM     12  N   LIG    1        2.476  -9.542   2.953  0.00  0.00    -0.198 N 
ATOM     13  H   LIG    1        2.916  -8.697   3.138  0.00  0.00    +0.178 HD
ATOM     14  C   LIG    1        3.209 -10.660   2.782  0.00  0.00    +0.318 C 
ATOM     15  O   LIG    1        2.658 -11.717   2.552  0.00  0.00    -0.263 OA
BRANCH  14  16
ATOM     16  C   LIG    1        4.697 -10.599   2.876  0.00  0.00    +0.301 C 
ATOM     17  N   LIG    1        5.430 -11.717   2.705  0.00  0.00    -0.303 N 
ATOM     18  H   LIG    1        4.990 -12.562   2.521  0.00  0.00    +0.149 HD
ATOM     19  O   LIG    1        5.248  -9.542   3.107  0.00  0.00    -0.265 OA
BRANCH  17  20
ATOM     20  C   LIG    1        6.891 -11.657   2.797  0.00  0.00    +0.140 C 
BRANCH  20  21
ATOM     21  C   LIG    1        7.465 -13.032   2.569  0.00  0.00    -0.030 A 
ATOM     22  C   LIG    1        7.659 -13.886   3.638  0.00  0.00    +0.005 A 
ATOM     23  C   LIG    1        8.186 -15.147   3.429  0.00  0.00    +0.000 A 
ATOM     24  C   LIG    1        8.519 -15.553   2.150  0.00  0.00    +0.000 A 
ATOM     25  C   LIG    1        8.325 -14.699   1.081  0.00  0.00    +0.000 A 
ATOM     26  C   LIG    1        7.794 -13.440   1.290  0.00  0.00    +0.005 A 
ENDBRANCH  20  21
ENDBRANCH  17  20
ENDBRANCH  14  16
ENDBRANCH   9  12
BRANCH   1  27
ATOM     27  C   LIG    1       -0.129  -4.898   3.686  0.00  0.00    +0.210 C 
BRANCH  27  30
ATOM     28  N   LIG    1        0.052  -2.797   2.393  0.00  0.00    -0.284 N 
ATOM     29  H   LIG    1        0.127  -2.321   3.234  0.00  0.00    +0.155 HD
ATOM     30  C   LIG    1       -0.031  -4.143   2.385  0.00  0.00    +0.235 C 
ATOM     31  O   LIG    1       -0.028  -4.745   1.333  0.00  0.00    -0.274 OA
BRANCH  28  37
ATOM     32  C   LIG    1        1.524   1.061  -0.275  0.00  0.00    +0.044 C 
ATOM     33  C   LIG    1        0.735  -0.215  -0.134  0.00  0.00    -0.049 A 
ATOM     34  C   LIG    1       -0.011  -0.687  -1.199  0.00  0.00    +0.003 A 
ATOM     35  C   LIG    1       -0.736  -1.857  -1.074  0.00  0.00    +0.002 A 
ATOM     36  C   LIG    1       -0.717  -2.559   0.116  0.00  0.00    +0.023 A 
ATOM     37  C   LIG    1        0.031  -2.089   1.186  0.00  0.00    +0.034 A 
ATOM     38  C   LIG    1        0.763  -0.915   1.056  0.00  0.00    +0.026 A 
ENDBRANCH  28  37
ENDBRANCH  27  30
ENDBRANCH   1  27
TORSDOF 7
