REMARK  Name = ZINC13517799
REMARK                            x       y       z     vdW  Elec       q    Type
REMARK                         _______ _______ _______ _____ _____    ______ ____
ROOT
ATOM      1  C   LIG    1       -2.042   1.605   1.476  0.00  0.00    +0.006 A 
ATOM      2  C   LIG    1       -2.688   2.046   2.616  0.00  0.00    +0.022 A 
ATOM      3  C   LIG    1       -2.019   2.846   3.525  0.00  0.00    +0.059 A 
ATOM      4 CL   LIG    1       -2.833   3.405   4.953  0.00  0.00    -0.082 Cl
ATOM      5  C   LIG    1       -0.700   3.199   3.296  0.00  0.00    +0.060 A 
ATOM      6 CL   LIG    1        0.141   4.202   4.436  0.00  0.00    -0.082 Cl
ATOM      7  C   LIG    1       -0.053   2.753   2.158  0.00  0.00    +0.026 A 
ATOM      8  C   LIG    1       -0.723   1.954   1.250  0.00  0.00    -0.029 A 
ENDROOT
BRANCH   8   9
ATOM      9  C   LIG    1       -0.018   1.468   0.010  0.00  0.00    +0.124 C 
BRANCH   9  10
ATOM     10  C   LIG    1       -0.758   1.975  -1.229  0.00  0.00    +0.010 C 
ATOM     11  C   LIG    1       -0.007   1.544  -2.506  0.00  0.00    +0.005 C 
ATOM     12  C   LIG    1       -0.169   2.748  -3.466  0.00  0.00    +0.000 C 
ATOM     13  C   LIG    1       -0.052   3.964  -2.513  0.00  0.00    +0.000 C 
ATOM     14  C   LIG    1       -0.786   3.513  -1.234  0.00  0.00    +0.005 C 
ENDBRANCH   9  10
BRANCH   9  15
ATOM     15  C   LIG    1        0.002  -0.004   0.002  0.00  0.00    +0.071 C 
ATOM     16  N   LIG    1        0.018  -1.140  -0.004  0.00  0.00    -0.196 NA
ENDBRANCH   9  15
ENDBRANCH   8   9
TORSDOF 3
