REMARK  Name = ZINC13476440
REMARK                            x       y       z     vdW  Elec       q    Type
REMARK                         _______ _______ _______ _____ _____    ______ ____
ROOT
ATOM      1  N   LIG    1        1.135   5.560   1.462  0.00  0.00    -0.328 N 
ATOM      2  H   LIG    1        1.121   6.049   0.625  0.00  0.00    +0.147 HD
ENDROOT
BRANCH   1   3
ATOM      3  C   LIG    1        1.137   6.243   2.660  0.00  0.00    +0.130 A 
ATOM      4  C   LIG    1        1.123   7.659   2.690  0.00  0.00    +0.041 A 
ATOM      5  C   LIG    1        1.096   8.428   1.521  0.00  0.00    +0.033 A 
ATOM      6  C   LIG    1        1.078   9.790   1.612  0.00  0.00    +0.042 A 
ATOM      7 CL   LIG    1        1.051  10.745   0.162  0.00  0.00    -0.084 Cl
ATOM      8  C   LIG    1        1.081  10.423   2.853  0.00  0.00    +0.022 A 
ATOM      9  C   LIG    1        1.102   9.702   4.009  0.00  0.00    +0.030 A 
ATOM     10  C   LIG    1        1.121   8.302   3.952  0.00  0.00    +0.076 A 
ATOM     11  N   LIG    1        1.142   7.546   5.060  0.00  0.00    -0.235 NA
ATOM     12  C   LIG    1        1.159   6.237   4.972  0.00  0.00    +0.223 A 
ATOM     13  N   LIG    1        1.157   5.593   3.815  0.00  0.00    -0.220 NA
ENDBRANCH   1   3
BRANCH   1  14
ATOM     14  C   LIG    1        1.156   4.095   1.455  0.00  0.00    +0.107 C 
BRANCH  14  15
ATOM     15  C   LIG    1        1.150   3.592   0.010  0.00  0.00    +0.054 C 
BRANCH  15  22
ATOM     16  C   LIG    1       -0.017   1.378   0.010  0.00  0.00    +0.005 A 
ATOM     17  C   LIG    1        0.002  -0.004   0.002  0.00  0.00    +0.020 A 
ATOM     18  C   LIG    1        1.210  -0.679  -0.013  0.00  0.00    +0.041 A 
ATOM     19 CL   LIG    1        1.234  -2.415  -0.022  0.00  0.00    -0.084 Cl
ATOM     20  C   LIG    1        2.398   0.030  -0.021  0.00  0.00    +0.020 A 
ATOM     21  C   LIG    1        2.378   1.412  -0.013  0.00  0.00    +0.005 A 
ATOM     22  C   LIG    1        1.171   2.086   0.002  0.00  0.00    -0.046 A 
ENDBRANCH  15  22
ENDBRANCH  14  15
ENDBRANCH   1  14
TORSDOF 4
