REMARK  Name = ZINC13518989
REMARK                            x       y       z     vdW  Elec       q    Type
REMARK                         _______ _______ _______ _____ _____    ______ ____
ROOT
ATOM      1  C   LIG    1       -0.914   3.046  -1.254  0.00  0.00    +0.023 C 
ATOM      2  C   LIG    1       -2.120   2.222  -0.798  0.00  0.00    -0.008 C 
ATOM      3  C   LIG    1       -0.795   1.527  -1.120  0.00  0.00    -0.066 C 
ENDROOT
BRANCH   1   5
ATOM      4  C   LIG    1       -0.715   4.243   0.981  0.00  0.00    +0.107 A 
ATOM      5  C   LIG    1       -0.217   3.893  -0.220  0.00  0.00    +0.060 A 
ATOM      6  N   LIG    1        1.009   4.424  -0.333  0.00  0.00    -0.241 NA
ATOM      7  C   LIG    1        1.287   5.098   0.750  0.00  0.00    +0.196 A 
ATOM      8  N   LIG    1        0.239   5.008   1.597  0.00  0.00    -0.351 N 
ATOM      9  H   LIG    1        0.173   5.422   2.505  0.00  0.00    +0.166 HD
ENDBRANCH   1   5
BRANCH   3  10
ATOM     10  N   LIG    1       -0.025   1.014   0.027  0.00  0.00    +0.380 N 
ATOM     11  H   LIG    1       -0.476   1.316   0.899  0.00  0.00    -0.090 HD
ATOM     12  H   LIG    1        0.925   1.379   0.001  0.00  0.00    -0.090 HD
ATOM     13  H   LIG    1        0.002  -0.004   0.002  0.00  0.00    -0.090 HD
ENDBRANCH   3  10
TORSDOF 2
