REMARK  Name = ZINC13234187
REMARK                            x       y       z     vdW  Elec       q    Type
REMARK                         _______ _______ _______ _____ _____    ______ ____
ROOT
ATOM      1  C   LIG    1       -1.281  -0.517  -0.060  0.00  0.00    +0.220 A 
ATOM      2  N   LIG    1       -1.438  -1.827  -0.076  0.00  0.00    -0.214 NA
ATOM      3  C   LIG    1       -2.666  -2.363  -0.136  0.00  0.00    +0.078 A 
ATOM      4  C   LIG    1       -2.869  -3.749  -0.153  0.00  0.00    +0.028 A 
ATOM      5  C   LIG    1       -4.138  -4.243  -0.214  0.00  0.00    +0.002 A 
ATOM      6  C   LIG    1       -5.238  -3.391  -0.259  0.00  0.00    +0.001 A 
ATOM      7  C   LIG    1       -5.075  -2.037  -0.243  0.00  0.00    +0.013 A 
ATOM      8  C   LIG    1       -3.786  -1.497  -0.182  0.00  0.00    +0.040 A 
ATOM      9  C   LIG    1       -3.556  -0.099  -0.163  0.00  0.00    +0.129 A 
ATOM     10  N   LIG    1       -2.305   0.331  -0.097  0.00  0.00    -0.199 NA
ENDROOT
BRANCH   1  15
ATOM     11  C   LIG    1        3.501   2.017   1.237  0.00  0.00    +0.105 C 
ATOM     12  N   LIG    1        2.138   1.472   1.171  0.00  0.00    -0.302 NA
ATOM     13  C   LIG    1        1.419   1.992  -0.001  0.00  0.00    +0.103 C 
ATOM     14  C   LIG    1       -0.018   1.465   0.010  0.00  0.00    +0.123 C 
ATOM     15  N   LIG    1        0.002  -0.004   0.002  0.00  0.00    -0.297 N 
ATOM     16  C   LIG    1        0.721  -0.525   1.173  0.00  0.00    +0.123 C 
ATOM     17  C   LIG    1        2.158   0.003   1.162  0.00  0.00    +0.103 C 
ENDBRANCH   1  15
BRANCH   9  18
ATOM     18  N   LIG    1       -4.608   0.791  -0.206  0.00  0.00    -0.343 N 
ATOM     19  H   LIG    1       -5.642   0.418  -0.257  0.00  0.00    +0.144 HD
ATOM     20  H   LIG    1       -4.414   1.873  -0.191  0.00  0.00    +0.144 HD
ENDBRANCH   9  18
TORSDOF 2
