REMARK  Name = ZINC13488303
REMARK                            x       y       z     vdW  Elec       q    Type
REMARK                         _______ _______ _______ _____ _____    ______ ____
ROOT
ATOM      1  CA  HIS A  1        0.122  -4.321  -0.023  0.00  0.00    +0.188 C 
ENDROOT
BRANCH   1   3
ATOM      2  C   UNK A  0        1.250  -2.160  -0.022  0.00  0.00    +0.246 C 
ATOM      3  N   HIS A  1        0.095  -2.856  -0.014  0.00  0.00    -0.298 N 
ATOM      4  H   HIS A  1       -0.754  -2.387  -0.003  0.00  0.00    +0.150 HD
ATOM      5  O   UNK A  0        2.313  -2.748  -0.036  0.00  0.00    -0.270 OA
BRANCH   2  11
ATOM      6  C   UNK A  0       -0.017   1.375   0.010  0.00  0.00    +0.001 A 
ATOM      7  C   UNK A  0        1.170   2.087   0.002  0.00  0.00    +0.001 A 
ATOM      8  C   UNK A  0        2.383   1.422  -0.013  0.00  0.00    +0.016 A 
ATOM      9  C   UNK A  0        2.417   0.041  -0.021  0.00  0.00    +0.030 A 
ATOM     10 BR   UNK A  0        4.075  -0.867  -0.043  0.00  0.00    -0.050 Br
ATOM     11  C   UNK A  0        1.222  -0.683  -0.013  0.00  0.00    +0.051 A 
ATOM     12  C   UNK A  0        0.002  -0.004   0.002  0.00  0.00    +0.014 A 
ENDBRANCH   2  11
ENDBRANCH   1   3
BRANCH   1  13
ATOM     13  C   HIS A  1        0.241  -4.812  -1.442  0.00  0.00    +0.326 C 
ATOM     14  O   HIS A  1        0.808  -5.866  -1.677  0.00  0.00    -0.249 OA
BRANCH  13  15
ATOM     15  OXT HIS A  1       -0.229  -4.157  -2.356  0.00  0.00    -0.479 OA
ATOM     16  HXT HIS A  1       -0.665  -3.347  -2.176  0.00  0.00    +0.295 HD
ENDBRANCH  13  15
ENDBRANCH   1  13
BRANCH   1  17
ATOM     17  CB  HIS A  1       -1.169  -4.858   0.597  0.00  0.00    +0.088 C 
BRANCH  17  18
ATOM     18  CG  HIS A  1       -1.228  -4.469   2.052  0.00  0.00    +0.038 A 
ATOM     19  ND1 HIS A  1       -0.834  -5.233   3.117  0.00  0.00    -0.348 N 
ATOM     20  CE1 HIS A  1       -1.056  -4.506   4.233  0.00  0.00    +0.196 A 
ATOM     21  NE2 HIS A  1       -1.567  -3.355   3.889  0.00  0.00    -0.244 NA
ATOM     22  HD1 HIS A  1       -0.463  -6.128   3.078  0.00  0.00    +0.166 HD
ATOM     23  CD2 HIS A  1       -1.684  -3.306   2.554  0.00  0.00    +0.133 A 
ENDBRANCH  17  18
ENDBRANCH   1  17
TORSDOF 6
