REMARK  Name = ZINC13370827
REMARK                            x       y       z     vdW  Elec       q    Type
REMARK                         _______ _______ _______ _____ _____    ______ ____
ROOT
ATOM      1  C   LIG    1        0.990   2.031  -2.500  0.00  0.00    +0.012 C 
ATOM      2  C   LIG    1        0.929   0.500  -2.591  0.00  0.00    -0.025 C 
ATOM      3  C   LIG    1       -0.416   0.125  -3.212  0.00  0.00    +0.008 C 
ATOM      4  C   LIG    1       -0.603  -1.388  -3.234  0.00  0.00    +0.018 C 
ATOM      5  C   LIG    1       -0.504  -1.966  -1.823  0.00  0.00    +0.065 C 
ATOM      6  C   LIG    1       -0.600  -3.498  -1.913  0.00  0.00    +0.023 C 
ATOM      7  C   LIG    1        0.844  -1.597  -1.205  0.00  0.00    +0.026 C 
ATOM      8  C   LIG    1        2.074  -0.011  -3.459  0.00  0.00    +0.008 C 
ATOM      9  C   LIG    1        3.415   0.500  -2.941  0.00  0.00    +0.012 C 
ATOM     10  C   LIG    1        3.660   0.125  -1.488  0.00  0.00    -0.004 C 
ATOM     11  C   LIG    1        4.126  -1.337  -1.469  0.00  0.00    +0.016 C 
ATOM     12  C   LIG    1        4.793   0.983  -0.904  0.00  0.00    -0.013 C 
ATOM     13  C   LIG    1        4.296   2.436  -0.978  0.00  0.00    +0.013 C 
ATOM     14  C   LIG    1        6.047   0.871  -1.755  0.00  0.00    +0.008 C 
ATOM     15  C   LIG    1        7.234   1.573  -1.079  0.00  0.00    +0.005 C 
ATOM     16  C   LIG    1        7.453   0.920   0.283  0.00  0.00    -0.000 C 
ATOM     17  C   LIG    1        8.820   1.208   0.862  0.00  0.00    -0.044 C 
ATOM     18  C   LIG    1        9.169   2.695   0.854  0.00  0.00    +0.009 C 
ATOM     19  C   LIG    1        9.877   0.490  -0.015  0.00  0.00    +0.009 C 
ATOM     20  C   LIG    1        8.977   0.640   2.273  0.00  0.00    -0.069 C 
ATOM     21  C   LIG    1        7.797   1.006   3.165  0.00  0.00    -0.015 C 
ATOM     22  C   LIG    1        6.496   0.510   2.541  0.00  0.00    +0.006 C 
ATOM     23  C   LIG    1        6.264   1.214   1.193  0.00  0.00    -0.019 C 
ATOM     24  C   LIG    1        6.090   2.704   1.461  0.00  0.00    +0.012 C 
ATOM     25  C   LIG    1        5.022   0.602   0.549  0.00  0.00    +0.072 C 
ATOM     26  C   LIG    1        3.756   0.910   1.315  0.00  0.00    +0.160 C 
ATOM     27  O   LIG    1        3.752   1.387   2.432  0.00  0.00    -0.292 OA
ATOM     28  C   LIG    1        2.484   0.579   0.655  0.00  0.00    +0.046 C 
ATOM     29  C   LIG    1        2.434   0.222  -0.634  0.00  0.00    -0.056 C 
ATOM     30  C   LIG    1        1.056  -0.088  -1.189  0.00  0.00    +0.023 C 
ENDROOT
BRANCH  20  31
ATOM     31  N   LIG    1       10.219   1.161   2.866  0.00  0.00    +0.380 N 
ATOM     32  H   LIG    1       10.158   2.165   2.948  0.00  0.00    -0.090 HD
ATOM     33  H   LIG    1       11.001   0.920   2.276  0.00  0.00    -0.090 HD
ATOM     34  H   LIG    1       10.351   0.757   3.781  0.00  0.00    -0.090 HD
ENDBRANCH  20  31
BRANCH   5  35
ATOM     35  C   LIG    1       -1.633  -1.462  -0.966  0.00  0.00    +0.311 C 
ATOM     36  O   LIG    1       -2.788  -1.691  -1.283  0.00  0.00    -0.250 OA
BRANCH  35  37
ATOM     37  O   LIG    1       -1.393  -0.825   0.045  0.00  0.00    -0.480 OA
ATOM     38  H   LIG    1       -0.505  -0.650   0.289  0.00  0.00    +0.295 HD
ENDBRANCH  35  37
ENDBRANCH   5  35
TORSDOF 3
