REMARK  Name = ZINC13446265
REMARK                            x       y       z     vdW  Elec       q    Type
REMARK                         _______ _______ _______ _____ _____    ______ ____
ROOT
ATOM      1  C   LIG    1        1.603   6.018  -0.313  0.00  0.00    +0.283 C 
ATOM      2  N   LIG    1        2.785   5.428  -0.045  0.00  0.00    -0.282 N 
ATOM      3  C   LIG    1        3.989   6.236   0.194  0.00  0.00    +0.109 C 
ATOM      4  C   LIG    1        4.610   5.817   1.530  0.00  0.00    +0.019 C 
ATOM      5  C   LIG    1        4.858   4.307   1.522  0.00  0.00    +0.004 C 
ATOM      6  C   LIG    1        3.526   3.571   1.357  0.00  0.00    +0.034 C 
ATOM      7  C   LIG    1        2.893   3.964   0.018  0.00  0.00    +0.185 C 
ATOM      8  O   LIG    1        0.592   5.350  -0.378  0.00  0.00    -0.267 OA
ENDROOT
BRANCH   1   9
ATOM      9  C   LIG    1        1.538   7.492  -0.528  0.00  0.00    +0.223 C 
ATOM     10  O   LIG    1        2.557   8.136  -0.611  0.00  0.00    -0.287 OA
BRANCH   9  11
ATOM     11  C   LIG    1        0.202   8.179  -0.643  0.00  0.00    +0.032 C 
ATOM     12  C   LIG    1       -0.597   7.958   0.643  0.00  0.00    +0.019 C 
ATOM     13  C   LIG    1       -0.570   7.597  -1.829  0.00  0.00    +0.019 C 
BRANCH  11  15
ATOM     14  C   LIG    1       -0.942  10.375  -0.976  0.00  0.00    +0.005 C 
ATOM     15  C   LIG    1        0.415   9.678  -0.860  0.00  0.00    +0.011 C 
ENDBRANCH  11  15
ENDBRANCH   9  11
ENDBRANCH   1   9
BRANCH   7  16
ATOM     16  C   LIG    1        1.520   3.351  -0.090  0.00  0.00    +0.328 C 
ATOM     17  O   LIG    1        0.718   3.503   0.801  0.00  0.00    -0.249 OA
BRANCH  16  18
ATOM     18  O   LIG    1        1.189   2.636  -1.177  0.00  0.00    -0.463 OA
BRANCH  18  19
ATOM     19  C   LIG    1       -0.150   2.075  -1.213  0.00  0.00    +0.232 C 
BRANCH  19  20
ATOM     20  C   LIG    1       -0.343   1.299  -2.518  0.00  0.00    +0.041 C 
BRANCH  20  21
ATOM     21  C   LIG    1       -1.753   0.708  -2.556  0.00  0.00    +0.007 C 
BRANCH  21  22
ATOM     22  C   LIG    1       -1.946  -0.067  -3.861  0.00  0.00    -0.011 C 
ATOM     23  C   LIG    1       -1.880   0.901  -5.044  0.00  0.00    +0.003 C 
ATOM     24  C   LIG    1       -2.073   0.125  -6.349  0.00  0.00    +0.000 C 
ATOM     25  C   LIG    1       -3.436  -0.569  -6.333  0.00  0.00    +0.000 C 
ATOM     26  C   LIG    1       -3.502  -1.537  -5.150  0.00  0.00    +0.000 C 
ATOM     27  C   LIG    1       -3.309  -0.761  -3.845  0.00  0.00    +0.003 C 
ENDBRANCH  21  22
ENDBRANCH  20  21
ENDBRANCH  19  20
ENDBRANCH  18  19
ENDBRANCH  16  18
ENDBRANCH   7  16
TORSDOF 9
