REMARK  Name = ZINC13493576
REMARK                            x       y       z     vdW  Elec       q    Type
REMARK                         _______ _______ _______ _____ _____    ______ ____
ROOT
ATOM      1  N   LIG    1       -0.721   1.571  -1.179  0.00  0.00    -0.306 N 
ATOM      2  H   LIG    1       -1.516   2.118  -1.079  0.00  0.00    +0.149 HD
ATOM      3  C   LIG    1       -0.268   1.258  -2.409  0.00  0.00    +0.261 C 
ATOM      4  O   LIG    1        0.730   0.573  -2.534  0.00  0.00    -0.269 OA
ENDROOT
BRANCH   3   5
ATOM      5  C   LIG    1       -0.978   1.744  -3.597  0.00  0.00    +0.102 A 
ATOM      6  C   LIG    1       -0.626   1.509  -4.910  0.00  0.00    +0.032 A 
ATOM      7  C   LIG    1       -1.575   2.152  -5.711  0.00  0.00    +0.020 A 
ATOM      8  C   LIG    1       -2.464   2.764  -4.892  0.00  0.00    +0.083 A 
ATOM      9  N   LIG    1       -2.112   2.524  -3.606  0.00  0.00    -0.357 N 
ATOM     10  H   LIG    1       -2.582   2.847  -2.821  0.00  0.00    +0.165 HD
ENDBRANCH   3   5
BRANCH   1  11
ATOM     11  C   LIG    1       -0.013   1.086   0.008  0.00  0.00    +0.140 C 
BRANCH  11  14
ATOM     12  C   LIG    1       -1.010   3.229   2.953  0.00  0.00    +0.003 A 
ATOM     13  C   LIG    1       -0.360   2.779   1.818  0.00  0.00    +0.005 A 
ATOM     14  C   LIG    1       -0.718   1.572   1.248  0.00  0.00    -0.028 A 
ATOM     15  C   LIG    1       -1.719   0.808   1.817  0.00  0.00    +0.043 A 
ATOM     16  C   LIG    1       -2.367   1.254   2.956  0.00  0.00    +0.124 A 
ATOM     17  F   LIG    1       -3.345   0.508   3.514  0.00  0.00    -0.205 F 
ATOM     18  C   LIG    1       -2.011   2.467   3.524  0.00  0.00    +0.038 A 
ENDBRANCH  11  14
ENDBRANCH   1  11
TORSDOF 3
