REMARK  Name = ZINC13488997
REMARK                            x       y       z     vdW  Elec       q    Type
REMARK                         _______ _______ _______ _____ _____    ______ ____
ROOT
ATOM      1  C   LIG    1       -2.438   0.970   0.019  0.00  0.00    +0.003 A 
ATOM      2  C   LIG    1       -3.448   1.267   0.962  0.00  0.00    -0.006 A 
ATOM      3  C   LIG    1       -3.295   2.276   1.925  0.00  0.00    +0.029 A 
ATOM      4  C   LIG    1       -4.314   2.503   2.802  0.00  0.00    +0.111 A 
ATOM      5  N   LIG    1       -5.437   1.799   2.766  0.00  0.00    -0.263 NA
ATOM      6  C   LIG    1       -5.651   0.849   1.885  0.00  0.00    +0.119 A 
ATOM      7  C   LIG    1       -4.661   0.532   0.942  0.00  0.00    +0.001 A 
ATOM      8  C   LIG    1       -4.840  -0.489  -0.007  0.00  0.00    +0.012 A 
ATOM      9  C   LIG    1       -3.856  -0.766  -0.905  0.00  0.00    +0.024 A 
ATOM     10  C   LIG    1       -2.655  -0.051  -0.906  0.00  0.00    +0.032 A 
ENDROOT
BRANCH  10  11
ATOM     11  N   LIG    1       -1.669  -0.359  -1.838  0.00  0.00    -0.357 N 
ATOM     12  H   LIG    1       -1.816  -1.068  -2.483  0.00  0.00    +0.142 HD
ATOM     13  H   LIG    1       -0.834   0.136  -1.843  0.00  0.00    +0.142 HD
ENDBRANCH  10  11
BRANCH   1  15
ATOM     14  C   LIG    1       -0.013   1.076   0.008  0.00  0.00    +0.009 C 
ATOM     15  C   LIG    1       -1.172   1.724   0.017  0.00  0.00    +0.002 C 
ENDBRANCH   1  15
TORSDOF 2
