REMARK  Name = ZINC13488291
REMARK                            x       y       z     vdW  Elec       q    Type
REMARK                         _______ _______ _______ _____ _____    ______ ____
ROOT
ATOM      1  C   UNK A  0        3.319   3.625   1.153  0.00  0.00    +0.246 C 
ATOM      2  N   ASN A  1        2.634   3.529  -0.004  0.00  0.00    -0.298 N 
ATOM      3  H   ASN A  1        3.067   3.747  -0.844  0.00  0.00    +0.150 HD
ATOM      4  O   UNK A  0        2.776   3.352   2.205  0.00  0.00    -0.270 OA
ENDROOT
BRANCH   1  10
ATOM      5  C   UNK A  0        6.675   4.786  -0.069  0.00  0.00    +0.001 A 
ATOM      6  C   UNK A  0        7.376   4.884   1.120  0.00  0.00    +0.001 A 
ATOM      7  C   UNK A  0        6.762   4.574   2.320  0.00  0.00    +0.016 A 
ATOM      8  C   UNK A  0        5.443   4.165   2.338  0.00  0.00    +0.030 A 
ATOM      9 BR   UNK A  0        4.604   3.741   3.980  0.00  0.00    -0.050 Br
ATOM     10  C   UNK A  0        4.730   4.064   1.141  0.00  0.00    +0.051 A 
ATOM     11  C   UNK A  0        5.359   4.373  -0.066  0.00  0.00    +0.014 A 
ENDBRANCH   1  10
BRANCH   2  12
ATOM     12  CA  ASN A  1        1.235   3.094   0.007  0.00  0.00    +0.191 C 
BRANCH  12  13
ATOM     13  C   ASN A  1        1.177   1.588  -0.001  0.00  0.00    +0.326 C 
ATOM     14  O   ASN A  1        2.199   0.944  -0.014  0.00  0.00    -0.249 OA
BRANCH  13  15
ATOM     15  OXT ASN A  1       -0.011   0.963   0.007  0.00  0.00    -0.479 OA
ATOM     16  HXT ASN A  1       -0.804   1.462   0.018  0.00  0.00    +0.295 HD
ENDBRANCH  13  15
ENDBRANCH  12  13
BRANCH  12  17
ATOM     17  CB  ASN A  1        0.522   3.639  -1.233  0.00  0.00    +0.129 C 
BRANCH  17  18
ATOM     18  CG  ASN A  1        0.473   5.143  -1.164  0.00  0.00    +0.213 C 
ATOM     19  ND2 ASN A  1       -0.112   5.844  -2.155  0.00  0.00    -0.329 N 
ATOM     20 HD21 ASN A  1       -0.144   6.813  -2.111  0.00  0.00    +0.145 HD
ATOM     21 HD22 ASN A  1       -0.502   5.380  -2.913  0.00  0.00    +0.145 HD
ATOM     22  OD1 ASN A  1        0.960   5.723  -0.216  0.00  0.00    -0.276 OA
ENDBRANCH  17  18
ENDBRANCH  12  17
ENDBRANCH   2  12
TORSDOF 6
