REMARK  Name = ZINC13517585
REMARK                            x       y       z     vdW  Elec       q    Type
REMARK                         _______ _______ _______ _____ _____    ______ ____
ROOT
ATOM      1  C   LIG    1       -0.017   1.378   0.010  0.00  0.00    +0.029 A 
ATOM      2  C   LIG    1        1.172   2.081   0.002  0.00  0.00    +0.006 A 
ATOM      3  C   LIG    1        2.384   1.408  -0.015  0.00  0.00    -0.041 A 
ATOM      4  C   LIG    1        2.403   0.029  -0.026  0.00  0.00    -0.029 A 
ATOM      5  C   LIG    1        3.693  -0.747  -0.057  0.00  0.00    +0.117 C 
ATOM      6  N   LIG    1        4.816   0.106   0.345  0.00  0.00    -0.307 NA
ATOM      7  H   LIG    1        4.777   0.315   1.331  0.00  0.00    +0.123 HD
ATOM      8  C   LIG    1        4.830   1.341  -0.456  0.00  0.00    +0.089 C 
ATOM      9  C   LIG    1        1.208  -0.675  -0.015  0.00  0.00    +0.033 A 
ATOM     10  C   LIG    1        3.655   2.217  -0.017  0.00  0.00    +0.056 C 
ATOM     11  C   LIG    1        0.002  -0.004   0.002  0.00  0.00    +0.105 A 
ENDROOT
BRANCH  11  12
ATOM     12  S   LIG    1       -1.511  -0.907   0.014  0.00  0.00    +0.056 S 
ATOM     13  O   LIG    1       -2.492  -0.049   0.581  0.00  0.00    -0.153 OA
ATOM     14  O   LIG    1       -1.215  -2.188   0.555  0.00  0.00    -0.153 OA
BRANCH  12  15
ATOM     15  N   LIG    1       -1.949  -1.150  -1.564  0.00  0.00    -0.204 NA
ATOM     16  H   LIG    1       -2.763  -1.634  -1.773  0.00  0.00    +0.144 HD
ATOM     17  H   LIG    1       -1.391  -0.808  -2.281  0.00  0.00    +0.144 HD
ENDBRANCH  12  15
ENDBRANCH  11  12
BRANCH   8  18
ATOM     18  C   LIG    1        6.146   2.087  -0.227  0.00  0.00    +0.232 C 
ATOM     19  F   LIG    1        7.216   1.272  -0.612  0.00  0.00    -0.247 F 
ENDBRANCH   8  18
TORSDOF 3
