REMARK  Name = ZINC13119575
REMARK                            x       y       z     vdW  Elec       q    Type
REMARK                         _______ _______ _______ _____ _____    ______ ____
ROOT
ATOM      1  C   LIG    1       -4.963  -2.619   0.035  0.00  0.00    +0.100 C 
ATOM      2  C   LIG    1       -5.019  -4.018   0.040  0.00  0.00    +0.027 C 
ATOM      3  C   LIG    1       -6.266  -4.616   0.049  0.00  0.00    +0.038 C 
ATOM      4  C   LIG    1       -7.391  -3.789   0.053  0.00  0.00    +0.136 C 
ATOM      5  N   LIG    1       -7.242  -2.472   0.049  0.00  0.00    -0.225 NA
ATOM      6  N   LIG    1       -6.086  -1.914   0.045  0.00  0.00    -0.245 NA
ATOM      7  H   LIG    1       -6.058  -1.322  -0.785  0.00  0.00    +0.142 HD
ENDROOT
BRANCH   1  11
ATOM      8  C   LIG    1       -1.200  -0.637   0.010  0.00  0.00    +0.120 A 
ATOM      9  C   LIG    1       -2.374   0.104   0.019  0.00  0.00    +0.046 A 
ATOM     10  C   LIG    1       -3.595  -0.535   0.028  0.00  0.00    +0.009 A 
ATOM     11  C   LIG    1       -3.651  -1.928   0.026  0.00  0.00    -0.029 A 
ATOM     12  C   LIG    1       -2.470  -2.670   0.016  0.00  0.00    +0.009 A 
ATOM     13  C   LIG    1       -1.252  -2.025   0.003  0.00  0.00    +0.046 A 
BRANCH   8  15
ATOM     14  C   LIG    1       -0.017   1.425   0.010  0.00  0.00    +0.277 C 
ATOM     15  O   LIG    1        0.002  -0.004   0.002  0.00  0.00    -0.495 OA
ENDBRANCH   8  15
ENDBRANCH   1  11
BRANCH   4  16
ATOM     16  N   LIG    1       -8.664  -4.345   0.062  0.00  0.00    -0.314 NA
ATOM     17  H   LIG    1       -9.445  -3.770   0.065  0.00  0.00    +0.120 HD
ATOM     18  H   LIG    1       -8.773  -5.309   0.065  0.00  0.00    +0.120 HD
ENDBRANCH   4  16
BRANCH   5  19
ATOM     19  C   LIG    1       -8.437  -1.625   0.053  0.00  0.00    +0.104 C 
BRANCH  19  20
ATOM     20  C   LIG    1       -8.845  -1.325   1.497  0.00  0.00    +0.028 C 
BRANCH  20  21
ATOM     21  C   LIG    1      -10.093  -0.440   1.502  0.00  0.00    +0.122 C 
BRANCH  21  22
ATOM     22  C   LIG    1      -10.494  -0.146   2.924  0.00  0.00    +0.305 C 
ATOM     23  O   LIG    1       -9.843  -0.601   3.848  0.00  0.00    -0.251 OA
BRANCH  22  24
ATOM     24  O   LIG    1      -11.471   0.548   3.150  0.00  0.00    -0.481 OA
ATOM     25  H   LIG    1      -11.971   0.899   2.440  0.00  0.00    +0.295 HD
ENDBRANCH  22  24
ENDBRANCH  21  22
ENDBRANCH  20  21
ENDBRANCH  19  20
ENDBRANCH   5  19
TORSDOF 8
