REMARK  Name = ZINC13209889
REMARK                            x       y       z     vdW  Elec       q    Type
REMARK                         _______ _______ _______ _____ _____    ______ ____
ROOT
ATOM      1  C   LIG    1       -3.519  -1.077   0.179  0.00  0.00    +0.001 A 
ATOM      2  C   LIG    1       -3.410  -2.432  -0.088  0.00  0.00    +0.001 A 
ATOM      3  C   LIG    1       -2.170  -3.021  -0.223  0.00  0.00    +0.012 A 
ATOM      4  C   LIG    1       -1.014  -2.249  -0.091  0.00  0.00    +0.033 A 
ATOM      5  C   LIG    1       -1.125  -0.871   0.181  0.00  0.00    +0.028 A 
ATOM      6  C   LIG    1       -2.389  -0.298   0.319  0.00  0.00    +0.012 A 
ENDROOT
BRANCH   5   7
ATOM      7  C   LIG    1        0.087  -0.041   0.323  0.00  0.00    +0.139 A 
ATOM      8  N   LIG    1        0.114   1.315   0.480  0.00  0.00    -0.344 N 
ATOM      9  C   LIG    1        1.427   1.681   0.574  0.00  0.00    +0.104 A 
ATOM     10  C   LIG    1        2.161   0.551   0.474  0.00  0.00    +0.130 A 
ATOM     11  H   LIG    1       -0.677   1.925   0.519  0.00  0.00    +0.167 HD
ATOM     12  N   LIG    1        1.327  -0.481   0.322  0.00  0.00    -0.236 NA
ENDBRANCH   5   7
BRANCH   4  13
ATOM     13  C   LIG    1        0.315  -2.873  -0.235  0.00  0.00    +0.194 C 
ATOM     14  O   LIG    1        0.772  -3.546   0.668  0.00  0.00    -0.287 OA
BRANCH  13  15
ATOM     15  C   LIG    1        1.091  -2.678  -1.477  0.00  0.00    +0.022 A 
ATOM     16  C   LIG    1        0.597  -1.854  -2.491  0.00  0.00    +0.013 A 
ATOM     17  C   LIG    1        1.329  -1.673  -3.645  0.00  0.00    +0.021 A 
ATOM     18  C   LIG    1        2.546  -2.314  -3.805  0.00  0.00    +0.041 A 
ATOM     19 CL   LIG    1        3.459  -2.086  -5.264  0.00  0.00    -0.084 Cl
ATOM     20  C   LIG    1        3.039  -3.137  -2.805  0.00  0.00    +0.021 A 
ATOM     21  C   LIG    1        2.320  -3.322  -1.644  0.00  0.00    +0.013 A 
ENDBRANCH  13  15
ENDBRANCH   4  13
TORSDOF 3
