REMARK  Name = ZINC13519063
REMARK                            x       y       z     vdW  Elec       q    Type
REMARK                         _______ _______ _______ _____ _____    ______ ____
ROOT
ATOM      1  C   LIG    1        2.696   3.548  -0.005  0.00  0.00    +0.012 C 
ENDROOT
BRANCH   1   2
ATOM      2  C   LIG    1        1.235   3.094   0.007  0.00  0.00    +0.120 C 
BRANCH   2   3
ATOM      3  C   LIG    1        1.177   1.588  -0.001  0.00  0.00    +0.305 C 
ATOM      4  O   LIG    1        2.199   0.944  -0.014  0.00  0.00    -0.251 OA
BRANCH   3   5
ATOM      5  O   LIG    1       -0.011   0.963   0.007  0.00  0.00    -0.481 OA
ATOM      6  H   LIG    1       -0.804   1.462   0.018  0.00  0.00    +0.295 HD
ENDBRANCH   3   5
ENDBRANCH   2   3
ENDBRANCH   1   2
BRANCH   1   7
ATOM      7  C   LIG    1        2.755   5.077   0.003  0.00  0.00    +0.011 C 
BRANCH   7   8
ATOM      8  C   LIG    1        4.217   5.531  -0.009  0.00  0.00    +0.065 C 
BRANCH   8   9
ATOM      9  S   LIG    1        4.287   7.343   0.001  0.00  0.00    -0.178 S 
ATOM     10  H   LIG    1        5.604   7.618  -0.011  0.00  0.00    +0.102 HD
ENDBRANCH   8   9
ENDBRANCH   7   8
ENDBRANCH   1   7
TORSDOF 6
