REMARK  Name = ZINC13523014
REMARK                            x       y       z     vdW  Elec       q    Type
REMARK                         _______ _______ _______ _____ _____    ______ ____
ROOT
ATOM      1  N   LIG    1       -4.287   1.042   0.041  0.00  0.00    +0.388 N 
ATOM      2  H   LIG    1       -4.266   0.015   0.031  0.00  0.00    -0.084 HD
ATOM      3  H   LIG    1       -4.777   1.382  -0.795  0.00  0.00    -0.084 HD
ENDROOT
BRANCH   1   4
ATOM      4  C   LIG    1       -2.904   1.556   0.038  0.00  0.00    -0.067 C 
ATOM      5  C   LIG    1       -2.188   1.063  -1.221  0.00  0.00    -0.009 C 
ATOM      6  C   LIG    1       -0.753   1.593  -1.232  0.00  0.00    -0.012 C 
ATOM      7  C   LIG    1       -0.013   1.086   0.008  0.00  0.00    +0.007 C 
ATOM      8  C   LIG    1       -0.729   1.579   1.267  0.00  0.00    -0.012 C 
ATOM      9  C   LIG    1       -0.750   3.109   1.275  0.00  0.00    +0.007 C 
ATOM     10  C   LIG    1       -1.490   3.616   0.036  0.00  0.00    -0.012 C 
ATOM     11  C   LIG    1       -0.773   3.123  -1.223  0.00  0.00    +0.007 C 
ATOM     12  C   LIG    1       -2.925   3.086   0.047  0.00  0.00    -0.009 C 
ATOM     13  C   LIG    1       -2.164   1.050   1.278  0.00  0.00    -0.009 C 
ENDBRANCH   1   4
BRANCH   1  14
ATOM     14  C   LIG    1       -5.002   1.503   1.246  0.00  0.00    +0.016 C 
BRANCH  14  19
ATOM     15  C   LIG    1       -8.210   2.109   4.288  0.00  0.00    +0.020 C 
ATOM     16  C   LIG    1       -8.978   0.836   3.843  0.00  0.00    +0.020 C 
ATOM     17  C   LIG    1       -8.656   0.792   2.329  0.00  0.00    +0.108 C 
ATOM     18  N   LIG    1       -7.259   1.252   2.226  0.00  0.00    -0.303 N 
ATOM     19  C   LIG    1       -6.409   0.963   1.221  0.00  0.00    +0.199 C 
ATOM     20  O   LIG    1       -6.776   0.267   0.298  0.00  0.00    -0.278 OA
ATOM     21  C   LIG    1       -6.946   2.074   3.404  0.00  0.00    +0.108 C 
ENDBRANCH  14  19
ENDBRANCH   1  14
TORSDOF 3
