REMARK  Name = ZINC13474220
REMARK                            x       y       z     vdW  Elec       q    Type
REMARK                         _______ _______ _______ _____ _____    ______ ____
ROOT
ATOM      1  C   LIG    1       -0.018   1.503   0.010  0.00  0.00    +0.068 C 
ATOM      2  C   LIG    1        0.002  -0.004   0.002  0.00  0.00    +0.066 C 
ATOM      3  N   LIG    1        0.022  -0.659   1.122  0.00  0.00    -0.177 NA
ENDROOT
BRANCH   2   4
ATOM      4  C   LIG    1       -0.000  -0.735  -1.279  0.00  0.00    -0.001 A 
ATOM      5  C   LIG    1       -0.015  -0.033  -2.487  0.00  0.00    +0.010 A 
ATOM      6  C   LIG    1       -0.017  -0.722  -3.682  0.00  0.00    +0.002 A 
ATOM      7  C   LIG    1       -0.004  -2.106  -3.686  0.00  0.00    +0.015 A 
ATOM      8  C   LIG    1        0.011  -2.808  -2.494  0.00  0.00    +0.018 A 
ATOM      9 BR   LIG    1        0.028  -4.699  -2.512  0.00  0.00    -0.050 Br
ATOM     10  C   LIG    1        0.019  -2.131  -1.291  0.00  0.00    +0.025 A 
ENDBRANCH   2   4
BRANCH   3  11
ATOM     11  N   LIG    1        0.024   0.035   2.339  0.00  0.00    -0.259 N 
ATOM     12  H   LIG    1        0.011   1.005   2.345  0.00  0.00    +0.191 HD
ATOM     13  C   LIG    1        0.044  -0.655   3.520  0.00  0.00    +0.142 C 
BRANCH  13  14
ATOM     14  N   LIG    1        0.046   0.022   4.708  0.00  0.00    -0.338 N 
ATOM     15  H   LIG    1        0.061  -0.467   5.545  0.00  0.00    +0.144 HD
ATOM     16  H   LIG    1        0.033   0.992   4.713  0.00  0.00    +0.144 HD
ENDBRANCH  13  14
BRANCH  13  17
ATOM     17  S   LIG    1        0.067  -2.315   3.511  0.00  0.00    -0.109 S 
ATOM     18  H   LIG    1        0.061  -2.761   2.226  0.00  0.00    +0.110 HD
ENDBRANCH  13  17
ENDBRANCH   3  11
TORSDOF 4
