REMARK  Name = ZINC13493583
REMARK                            x       y       z     vdW  Elec       q    Type
REMARK                         _______ _______ _______ _____ _____    ______ ____
ROOT
ATOM      1  C   LIG    1        0.600  -0.516  -1.239  0.00  0.00    +0.138 C 
ENDROOT
BRANCH   1   2
ATOM      2  C   LIG    1       -0.286  -0.163  -2.406  0.00  0.00    +0.030 A 
ATOM      3  C   LIG    1       -1.234  -0.955  -2.947  0.00  0.00    +0.024 A 
ATOM      4  C   LIG    1       -1.822  -0.243  -4.011  0.00  0.00    +0.019 A 
ATOM      5  C   LIG    1       -1.212   0.958  -4.079  0.00  0.00    +0.083 A 
ATOM      6  N   LIG    1       -0.272   1.015  -3.092  0.00  0.00    -0.363 N 
ATOM      7  H   LIG    1        0.312   1.768  -2.911  0.00  0.00    +0.165 HD
ENDBRANCH   1   2
BRANCH   1   9
ATOM      8  C   LIG    1       -0.018   1.465   0.010  0.00  0.00    +0.106 C 
ATOM      9  N   LIG    1        0.002  -0.004   0.002  0.00  0.00    -0.289 NA
BRANCH   9  10
ATOM     10  C   LIG    1        0.706  -0.527   1.180  0.00  0.00    +0.173 C 
BRANCH  10  11
ATOM     11  C   LIG    1       -0.055  -0.194   2.395  0.00  0.00    -0.090 C 
ATOM     12  C   LIG    1       -0.663   0.071   3.364  0.00  0.00    +0.005 C 
ENDBRANCH  10  11
ENDBRANCH   9  10
ENDBRANCH   1   9
TORSDOF 4
