REMARK  Name = ZINC13523524
REMARK                            x       y       z     vdW  Elec       q    Type
REMARK                         _______ _______ _______ _____ _____    ______ ____
ROOT
ATOM      1  C   LIG    1        1.769   3.723   1.442  0.00  0.00    +0.165 C 
ENDROOT
BRANCH   1   2
ATOM      2  C   LIG    1        2.110   5.191   1.437  0.00  0.00    +0.237 C 
ATOM      3  N   LIG    1        1.306   6.067   0.804  0.00  0.00    -0.288 N 
ATOM      4  C   LIG    1        0.064   5.730   0.085  0.00  0.00    +0.109 C 
ATOM      5  C   LIG    1       -0.768   7.036   0.096  0.00  0.00    +0.021 C 
ATOM      6  C   LIG    1        0.337   8.111  -0.076  0.00  0.00    +0.033 C 
ATOM      7  C   LIG    1        1.518   7.520   0.721  0.00  0.00    +0.162 C 
ATOM      8  O   LIG    1        3.108   5.583   2.003  0.00  0.00    -0.274 OA
BRANCH   7   9
ATOM      9  C   LIG    1        1.554   8.113   2.106  0.00  0.00    +0.231 C 
ATOM     10  N   LIG    1        1.739   9.438   2.267  0.00  0.00    -0.328 N 
ATOM     11  H   LIG    1        1.762   9.819   3.159  0.00  0.00    +0.145 HD
ATOM     12  H   LIG    1        1.850  10.010   1.492  0.00  0.00    +0.145 HD
ATOM     13  O   LIG    1        1.415   7.397   3.075  0.00  0.00    -0.274 OA
ENDBRANCH   7   9
ENDBRANCH   1   2
BRANCH   1  14
ATOM     14  N   LIG    1        2.791   2.986   2.190  0.00  0.00    -0.302 N 
ATOM     15  H   LIG    1        3.686   3.349   2.274  0.00  0.00    +0.150 HD
ATOM     16  C   LIG    1        2.486   1.804   2.762  0.00  0.00    +0.234 C 
ATOM     17  O   LIG    1        1.367   1.351   2.657  0.00  0.00    -0.274 OA
BRANCH  16  18
ATOM     18  C   LIG    1        3.537   1.047   3.531  0.00  0.00    +0.159 C 
ATOM     19  C   LIG    1        4.445   0.258   2.562  0.00  0.00    +0.041 C 
ATOM     20  C   LIG    1        3.752  -1.124   2.536  0.00  0.00    +0.098 C 
ATOM     21  C   LIG    1        3.009  -1.192   3.852  0.00  0.00    +0.214 C 
ATOM     22  O   LIG    1        2.569  -2.207   4.350  0.00  0.00    -0.276 OA
ATOM     23  N   LIG    1        2.908   0.037   4.391  0.00  0.00    -0.304 N 
ATOM     24  H   LIG    1        2.477   0.232   5.238  0.00  0.00    +0.149 HD
ENDBRANCH  16  18
ENDBRANCH   1  14
BRANCH   1  25
ATOM     25  C   LIG    1        1.719   3.206   0.002  0.00  0.00    +0.086 C 
BRANCH  25  27
ATOM     26  C   LIG    1       -0.016   1.337   0.009  0.00  0.00    +0.105 A 
ATOM     27  C   LIG    1        1.259   1.771  -0.000  0.00  0.00    +0.035 A 
ATOM     28  N   LIG    1        2.056   0.658  -0.014  0.00  0.00    -0.350 N 
ATOM     29  C   LIG    1        1.240  -0.418  -0.012  0.00  0.00    +0.171 A 
ATOM     30  H   LIG    1        3.026   0.645  -0.023  0.00  0.00    +0.166 HD
ATOM     31  N   LIG    1        0.002  -0.004   0.002  0.00  0.00    -0.352 N 
ATOM     32  H   LIG    1       -0.781  -0.576   0.007  0.00  0.00    +0.166 HD
ENDBRANCH  25  27
ENDBRANCH   1  25
TORSDOF 6
