REMARK  Name = ZINC13469871
REMARK                            x       y       z     vdW  Elec       q    Type
REMARK                         _______ _______ _______ _____ _____    ______ ____
ROOT
ATOM      1  C   LIG    1       -0.000  -0.734  -1.279  0.00  0.00    -0.002 A 
ATOM      2  C   LIG    1       -0.015  -0.031  -2.486  0.00  0.00    +0.013 A 
ATOM      3  C   LIG    1       -0.017  -0.718  -3.681  0.00  0.00    +0.047 A 
ATOM      4  C   LIG    1       -0.005  -2.107  -3.686  0.00  0.00    +0.129 A 
ATOM      5  C   LIG    1        0.010  -2.810  -2.488  0.00  0.00    +0.047 A 
ATOM      6  C   LIG    1        0.019  -2.131  -1.289  0.00  0.00    +0.013 A 
ENDROOT
BRANCH   1   8
ATOM      7  C   LIG    1       -0.018   1.503   0.010  0.00  0.00    +0.068 C 
ATOM      8  C   LIG    1        0.002  -0.004   0.002  0.00  0.00    +0.065 C 
ATOM      9  N   LIG    1        0.022  -0.659   1.122  0.00  0.00    -0.177 NA
BRANCH   9  10
ATOM     10  N   LIG    1        0.024   0.035   2.339  0.00  0.00    -0.259 N 
ATOM     11  H   LIG    1        0.011   1.005   2.345  0.00  0.00    +0.191 HD
ATOM     12  C   LIG    1        0.044  -0.655   3.520  0.00  0.00    +0.142 C 
BRANCH  12  13
ATOM     13  N   LIG    1        0.063  -2.022   3.512  0.00  0.00    -0.338 N 
ATOM     14  H   LIG    1        0.077  -2.512   4.350  0.00  0.00    +0.144 HD
ATOM     15  H   LIG    1        0.061  -2.503   2.670  0.00  0.00    +0.144 HD
ENDBRANCH  12  13
BRANCH  12  16
ATOM     16  S   LIG    1        0.047   0.167   4.962  0.00  0.00    -0.109 S 
ATOM     17  H   LIG    1        0.026   1.505   4.721  0.00  0.00    +0.110 HD
ENDBRANCH  12  16
ENDBRANCH   9  10
ENDBRANCH   1   8
BRANCH   4  18
ATOM     18  O   LIG    1       -0.008  -2.780  -4.866  0.00  0.00    -0.453 OA
BRANCH  18  19
ATOM     19  C   LIG    1        0.005  -4.137  -4.826  0.00  0.00    +0.168 A 
ATOM     20  C   LIG    1        1.208  -4.840  -4.809  0.00  0.00    +0.103 A 
ATOM     21 CL   LIG    1        2.723  -3.993  -4.838  0.00  0.00    -0.078 Cl
ATOM     22  C   LIG    1        1.178  -6.220  -4.768  0.00  0.00    +0.134 A 
ATOM     23  N   LIG    1        0.030  -6.871  -4.746  0.00  0.00    -0.260 NA
ATOM     24  C   LIG    1       -1.129  -6.241  -4.761  0.00  0.00    +0.134 A 
ATOM     25  C   LIG    1       -1.185  -4.862  -4.796  0.00  0.00    +0.103 A 
ATOM     26 CL   LIG    1       -2.715  -4.043  -4.809  0.00  0.00    -0.078 Cl
ENDBRANCH  18  19
ENDBRANCH   4  18
TORSDOF 6
