REMARK  Name = ZINC13284373
REMARK                            x       y       z     vdW  Elec       q    Type
REMARK                         _______ _______ _______ _____ _____    ______ ____
ROOT
ATOM      1  C   UNK A  0       -1.330   7.972   2.218  0.00  0.00    +0.030 A 
ATOM      2  C   UNK A  0       -2.371   7.305   2.859  0.00  0.00    +0.024 A 
ATOM      3  C   UNK A  0       -2.452   5.933   2.796  0.00  0.00    +0.015 A 
ATOM      4  C   UNK A  0       -1.489   5.208   2.088  0.00  0.00    +0.037 A 
ATOM      5  C   UNK A  0       -0.443   5.880   1.450  0.00  0.00    +0.015 A 
ATOM      6  C   UNK A  0       -0.370   7.253   1.512  0.00  0.00    +0.024 A 
ENDROOT
BRANCH   4   7
ATOM      7  C   UNK A  0       -1.574   3.737   2.019  0.00  0.00    +0.245 C 
ATOM      8  N   LYS A  1       -0.645   3.040   1.336  0.00  0.00    -0.298 N 
ATOM      9  H   LYS A  1        0.080   3.506   0.889  0.00  0.00    +0.150 HD
ATOM     10  O   UNK A  0       -2.482   3.154   2.578  0.00  0.00    -0.270 OA
BRANCH   8  11
ATOM     11  CA  LYS A  1       -0.729   1.579   1.267  0.00  0.00    +0.182 C 
BRANCH  11  12
ATOM     12  C   LYS A  1       -0.074   0.981   2.485  0.00  0.00    +0.325 C 
ATOM     13  O   LYS A  1        0.413   1.700   3.324  0.00  0.00    -0.249 OA
BRANCH  12  14
ATOM     14  OXT LYS A  1       -0.032  -0.352   2.637  0.00  0.00    -0.479 OA
ATOM     15  HXT LYS A  1       -0.409  -0.911   1.986  0.00  0.00    +0.295 HD
ENDBRANCH  12  14
ENDBRANCH  11  12
BRANCH  11  16
ATOM     16  CB  LYS A  1       -0.013   1.086   0.008  0.00  0.00    +0.034 C 
BRANCH  16  17
ATOM     17  CG  LYS A  1       -0.753   1.593  -1.232  0.00  0.00    +0.000 C 
BRANCH  17  18
ATOM     18  CD  LYS A  1       -0.037   1.099  -2.490  0.00  0.00    -0.019 C 
BRANCH  18  19
ATOM     19  CE  LYS A  1       -0.777   1.606  -3.730  0.00  0.00    -0.086 C 
BRANCH  19  20
ATOM     20  NZ  LYS A  1       -0.091   1.107  -4.935  0.00  0.00    +0.378 N 
ATOM     21  HZ1 LYS A  1       -0.118   0.081  -4.938  0.00  0.00    -0.090 HD
ATOM     22  HZ2 LYS A  1        0.880   1.415  -4.938  0.00  0.00    -0.090 HD
ATOM     23  HZ3 LYS A  1       -0.559   1.454  -5.771  0.00  0.00    -0.090 HD
ENDBRANCH  19  20
ENDBRANCH  18  19
ENDBRANCH  17  18
ENDBRANCH  16  17
ENDBRANCH  11  16
ENDBRANCH   8  11
ENDBRANCH   4   7
BRANCH   1  25
ATOM     24  C   UNK A  0       -2.260  10.116   3.026  0.00  0.00    +0.129 C 
ATOM     25  N   UNK A  0       -1.250   9.359   2.283  0.00  0.00    -0.327 N 
BRANCH  25  26
ATOM     26  C   UNK A  0       -0.157  10.062   1.609  0.00  0.00    +0.161 C 
BRANCH  26  27
ATOM     27  C   UNK A  0       -0.572  10.404   0.201  0.00  0.00    +0.077 A 
ATOM     28  C   UNK A  0       -1.108  11.661  -0.075  0.00  0.00    +0.138 A 
ATOM     29  N   UNK A  0       -1.477  11.983  -1.296  0.00  0.00    -0.232 NA
ATOM     30  C   UNK A  0       -1.336  11.095  -2.283  0.00  0.00    +0.185 A 
ATOM     31  C   UNK A  0       -0.790   9.818  -1.997  0.00  0.00    +0.148 A 
ATOM     32  C   UNK A  0       -0.651   8.871  -3.105  0.00  0.00    +0.149 A 
ATOM     33  N   UNK A  0       -1.045   9.267  -4.307  0.00  0.00    -0.198 NA
ATOM     34  C   UNK A  0       -1.550  10.481  -4.503  0.00  0.00    +0.216 A 
ATOM     35  N   UNK A  0       -1.696  11.371  -3.542  0.00  0.00    -0.193 NA
ATOM     36  N   UNK A  0       -0.419   9.515  -0.758  0.00  0.00    -0.242 NA
BRANCH  32  37
ATOM     37  N   UNK A  0       -0.129   7.612  -2.905  0.00  0.00    -0.341 N 
ATOM     38  H   UNK A  0        0.154   7.340  -2.018  0.00  0.00    +0.144 HD
ATOM     39  H   UNK A  0       -0.045   6.997  -3.651  0.00  0.00    +0.144 HD
ENDBRANCH  32  37
BRANCH  34  40
ATOM     40  N   UNK A  0       -1.941  10.828  -5.782  0.00  0.00    -0.327 N 
ATOM     41  H   UNK A  0       -1.844  10.193  -6.509  0.00  0.00    +0.145 HD
ATOM     42  H   UNK A  0       -2.312  11.708  -5.954  0.00  0.00    +0.145 HD
ENDBRANCH  34  40
ENDBRANCH  26  27
ENDBRANCH  25  26
ENDBRANCH   1  25
TORSDOF 14
