REMARK  Name = ZINC13517803
REMARK                            x       y       z     vdW  Elec       q    Type
REMARK                         _______ _______ _______ _____ _____    ______ ____
ROOT
ATOM      1  C   LIG    1        1.208  -0.679  -0.013  0.00  0.00    +0.006 A 
ATOM      2  C   LIG    1        0.002  -0.004   0.002  0.00  0.00    +0.022 A 
ATOM      3  C   LIG    1       -0.017   1.379   0.010  0.00  0.00    +0.059 A 
ATOM      4 CL   LIG    1       -1.531   2.227   0.021  0.00  0.00    -0.082 Cl
ATOM      5  C   LIG    1        1.174   2.087   0.002  0.00  0.00    +0.060 A 
ATOM      6 CL   LIG    1        1.152   3.822   0.011  0.00  0.00    -0.082 Cl
ATOM      7  C   LIG    1        2.380   1.410  -0.013  0.00  0.00    +0.026 A 
ATOM      8  C   LIG    1        2.397   0.028  -0.021  0.00  0.00    -0.029 A 
ENDROOT
BRANCH   8   9
ATOM      9  C   LIG    1        3.711  -0.709  -0.037  0.00  0.00    +0.124 C 
BRANCH   9  10
ATOM     10  C   LIG    1        4.497  -0.323  -1.292  0.00  0.00    +0.010 C 
ATOM     11  C   LIG    1        3.715  -0.741  -2.554  0.00  0.00    +0.005 C 
ATOM     12  C   LIG    1        4.813  -1.210  -3.542  0.00  0.00    +0.000 C 
ATOM     13  C   LIG    1        5.820  -1.936  -2.615  0.00  0.00    +0.000 C 
ATOM     14  C   LIG    1        5.835  -1.082  -1.331  0.00  0.00    +0.005 C 
ENDBRANCH   9  10
BRANCH   9  15
ATOM     15  C   LIG    1        4.490  -0.350   1.159  0.00  0.00    +0.071 C 
ATOM     16  N   LIG    1        5.091  -0.074   2.083  0.00  0.00    -0.196 NA
ENDBRANCH   9  15
ENDBRANCH   8   9
TORSDOF 3
