REMARK  Name = ZINC13520504
REMARK                            x       y       z     vdW  Elec       q    Type
REMARK                         _______ _______ _______ _____ _____    ______ ____
ROOT
ATOM      1  C   LIG    1        5.835  -2.252   1.262  0.00  0.00    +0.024 A 
ATOM      2  C   LIG    1        6.802  -1.338   0.890  0.00  0.00    +0.122 A 
ATOM      3  N   LIG    1        7.642  -0.875   1.804  0.00  0.00    -0.223 NA
ATOM      4  C   LIG    1        7.565  -1.275   3.065  0.00  0.00    +0.214 A 
ATOM      5  N   LIG    1        6.653  -2.149   3.462  0.00  0.00    -0.200 NA
ATOM      6  C   LIG    1        5.775  -2.651   2.599  0.00  0.00    +0.126 A 
ENDROOT
BRANCH   4   7
ATOM      7  N   LIG    1        8.460  -0.766   3.990  0.00  0.00    -0.327 N 
ATOM      8  H   LIG    1        8.415  -1.051   4.916  0.00  0.00    +0.145 HD
ATOM      9  H   LIG    1        9.133  -0.126   3.712  0.00  0.00    +0.145 HD
ENDBRANCH   4   7
BRANCH   6  10
ATOM     10  N   LIG    1        4.819  -3.561   3.019  0.00  0.00    -0.343 N 
ATOM     11  H   LIG    1        4.784  -3.833   3.949  0.00  0.00    +0.144 HD
ATOM     12  H   LIG    1        4.184  -3.926   2.382  0.00  0.00    +0.144 HD
ENDBRANCH   6  10
BRANCH   1  13
ATOM     13  C   LIG    1        4.863  -2.801   0.250  0.00  0.00    +0.125 C 
BRANCH  13  21
ATOM     14  C   LIG    1       -0.017   1.376   0.010  0.00  0.00    +0.000 A 
ATOM     15  C   LIG    1        1.173   2.080   0.002  0.00  0.00    +0.000 A 
ATOM     16  C   LIG    1        2.374   1.400  -0.015  0.00  0.00    +0.005 A 
ATOM     17  C   LIG    1        2.395   0.013  -0.024  0.00  0.00    -0.030 A 
ATOM     18  C   LIG    1        1.208  -0.688  -0.012  0.00  0.00    -0.042 A 
ATOM     19  C   LIG    1        1.180  -2.195  -0.009  0.00  0.00    +0.051 C 
ATOM     20  C   LIG    1        2.541  -2.744  -0.440  0.00  0.00    +0.090 C 
ATOM     21  N   LIG    1        3.585  -2.085   0.361  0.00  0.00    -0.294 NA
ATOM     22  C   LIG    1        3.730  -0.684  -0.048  0.00  0.00    +0.120 C 
ATOM     23  C   LIG    1        0.002  -0.004   0.002  0.00  0.00    +0.004 A 
ENDBRANCH  13  21
ENDBRANCH   1  13
TORSDOF 4
