REMARK  Name = ZINC13441232
REMARK                            x       y       z     vdW  Elec       q    Type
REMARK                         _______ _______ _______ _____ _____    ______ ____
ROOT
ATOM      1  C   LIG    1       -1.192  -3.517  -0.011  0.00  0.00    +0.064 C 
ATOM      2  C   LIG    1       -0.425  -2.220  -0.008  0.00  0.00    +0.028 A 
ATOM      3  C   LIG    1        0.911  -2.115  -0.020  0.00  0.00    -0.010 A 
ATOM      4  C   LIG    1        1.234  -0.684  -0.012  0.00  0.00    +0.008 A 
ATOM      5  C   LIG    1        2.428   0.038  -0.018  0.00  0.00    +0.056 A 
ATOM      6  C   LIG    1        2.391   1.419  -0.007  0.00  0.00    +0.121 A 
ATOM      7  C   LIG    1        1.170   2.087   0.008  0.00  0.00    +0.048 A 
ATOM      8  C   LIG    1       -0.015   1.383   0.014  0.00  0.00    +0.030 A 
ATOM      9  C   LIG    1        0.003  -0.006   0.004  0.00  0.00    +0.057 A 
ATOM     10  N   LIG    1       -0.992  -0.969   0.006  0.00  0.00    -0.280 N 
ATOM     11  C   LIG    1       -2.316  -0.717   0.021  0.00  0.00    +0.263 C 
ATOM     12  O   LIG    1       -2.906  -0.506  -1.020  0.00  0.00    -0.267 OA
ENDROOT
BRANCH  11  13
ATOM     13  C   LIG    1       -3.049  -0.696   1.302  0.00  0.00    +0.040 A 
ATOM     14  C   LIG    1       -2.359  -0.838   2.508  0.00  0.00    +0.015 A 
ATOM     15  C   LIG    1       -3.048  -0.812   3.702  0.00  0.00    +0.021 A 
ATOM     16  C   LIG    1       -4.425  -0.657   3.706  0.00  0.00    +0.041 A 
ATOM     17 CL   LIG    1       -5.287  -0.633   5.213  0.00  0.00    -0.084 Cl
ATOM     18  C   LIG    1       -5.116  -0.522   2.513  0.00  0.00    +0.021 A 
ATOM     19  C   LIG    1       -4.437  -0.540   1.313  0.00  0.00    +0.015 A 
ENDBRANCH  11  13
BRANCH   6  20
ATOM     20  O   LIG    1        3.551   2.128  -0.012  0.00  0.00    -0.495 OA
ATOM     21  C   LIG    1        3.441   3.552  -0.001  0.00  0.00    +0.277 C 
ENDBRANCH   6  20
BRANCH   3  22
ATOM     22  C   LIG    1        1.897  -3.255  -0.037  0.00  0.00    +0.133 C 
BRANCH  22  23
ATOM     23  C   LIG    1        2.240  -3.645   1.378  0.00  0.00    +0.218 C 
ATOM     24  N   LIG    1        3.110  -4.648   1.608  0.00  0.00    -0.310 N 
ATOM     25  H   LIG    1        3.515  -5.119   0.864  0.00  0.00    +0.149 HD
ATOM     26  O   LIG    1        1.733  -3.055   2.309  0.00  0.00    -0.275 OA
BRANCH  24  27
ATOM     27  C   LIG    1        3.443  -5.027   2.984  0.00  0.00    +0.095 C 
ATOM     28  C   LIG    1        2.395  -6.010   3.510  0.00  0.00    +0.030 C 
BRANCH  27  29
ATOM     29  C   LIG    1        4.822  -5.689   3.011  0.00  0.00    +0.181 C 
BRANCH  29  30
ATOM     30  O   LIG    1        4.776  -6.916   2.281  0.00  0.00    -0.381 OA
ATOM     31  C   LIG    1        6.020  -7.618   2.244  0.00  0.00    +0.194 C 
ENDBRANCH  29  30
ENDBRANCH  27  29
ENDBRANCH  24  27
ENDBRANCH  22  23
ENDBRANCH   3  22
TORSDOF 7
