REMARK  Name = ZINC13524440
REMARK                            x       y       z     vdW  Elec       q    Type
REMARK                         _______ _______ _______ _____ _____    ______ ____
ROOT
ATOM      1  C   LIG    1       -2.072  -0.647  -1.181  0.00  0.00    +0.122 C 
ATOM      2  N   LIG    1       -3.347  -1.132  -1.093  0.00  0.00    -0.301 NA
ATOM      3  H   LIG    1       -3.770  -1.388  -0.193  0.00  0.00    +0.123 HD
ATOM      4  C   LIG    1       -4.023  -1.255  -2.269  0.00  0.00    +0.083 C 
ATOM      5  C   LIG    1       -3.494  -0.934  -3.498  0.00  0.00    +0.025 C 
ATOM      6  C   LIG    1       -2.180  -0.443  -3.570  0.00  0.00    +0.042 C 
ATOM      7  C   LIG    1       -1.462  -0.300  -2.378  0.00  0.00    +0.044 C 
ENDROOT
BRANCH   6   8
ATOM      8  C   LIG    1       -1.575  -0.087  -4.866  0.00  0.00    +0.045 A 
ATOM      9  C   LIG    1       -1.625  -0.824  -6.035  0.00  0.00    +0.068 A 
ATOM     10  N   LIG    1       -0.947  -0.142  -6.978  0.00  0.00    -0.334 N 
ATOM     11  H   LIG    1       -0.816  -0.448  -7.950  0.00  0.00    +0.168 HD
ATOM     12  C   LIG    1       -0.479   0.972  -6.465  0.00  0.00    +0.145 A 
ATOM     13  N   LIG    1       -0.848   1.054  -5.157  0.00  0.00    -0.338 N 
ATOM     14  H   LIG    1       -0.633   1.799  -4.525  0.00  0.00    +0.168 HD
BRANCH   9  15
ATOM     15  C   LIG    1       -2.302  -2.128  -6.217  0.00  0.00    +0.000 A 
ATOM     16  C   LIG    1       -2.321  -3.058  -5.177  0.00  0.00    +0.013 A 
ATOM     17  C   LIG    1       -2.956  -4.270  -5.350  0.00  0.00    +0.039 A 
ATOM     18  C   LIG    1       -3.568  -4.568  -6.558  0.00  0.00    +0.123 A 
ATOM     19  F   LIG    1       -4.184  -5.759  -6.724  0.00  0.00    -0.205 F 
ATOM     20  C   LIG    1       -3.548  -3.650  -7.595  0.00  0.00    +0.039 A 
ATOM     21  C   LIG    1       -2.919  -2.433  -7.430  0.00  0.00    +0.013 A 
ENDBRANCH   9  15
BRANCH  12  22
ATOM     22  S   LIG    1        0.469   2.175  -7.335  0.00  0.00    -0.093 S 
ATOM     23  C   LIG    1        0.542   1.398  -8.968  0.00  0.00    +0.093 C 
ENDBRANCH  12  22
ENDBRANCH   6   8
BRANCH   1  24
ATOM     24  N   LIG    1       -1.372  -0.511   0.012  0.00  0.00    -0.295 NA
ATOM     25  H   LIG    1       -1.794  -0.752   0.852  0.00  0.00    +0.124 HD
BRANCH  24  27
ATOM     26  C   LIG    1       -0.019   1.526   0.010  0.00  0.00    +0.029 C 
ATOM     27  C   LIG    1        0.002  -0.004   0.002  0.00  0.00    +0.082 C 
BRANCH  27  28
ATOM     28  C   LIG    1        0.731  -0.503   1.223  0.00  0.00    -0.031 A 
ATOM     29  C   LIG    1        0.084  -0.548   2.444  0.00  0.00    +0.005 A 
ATOM     30  C   LIG    1        0.751  -1.010   3.563  0.00  0.00    +0.000 A 
ATOM     31  C   LIG    1        2.068  -1.418   3.463  0.00  0.00    +0.000 A 
ATOM     32  C   LIG    1        2.716  -1.369   2.243  0.00  0.00    +0.000 A 
ATOM     33  C   LIG    1        2.048  -0.911   1.123  0.00  0.00    +0.005 A 
ENDBRANCH  27  28
ENDBRANCH  24  27
ENDBRANCH   1  24
TORSDOF 6
