REMARK  Name = ZINC13491619
REMARK                            x       y       z     vdW  Elec       q    Type
REMARK                         _______ _______ _______ _____ _____    ______ ____
ROOT
ATOM      1  C   LIG    1       -0.014   1.209   0.009  0.00  0.00    +0.216 C 
ATOM      2  N   LIG    1        1.143   1.898   0.001  0.00  0.00    -0.290 N 
ATOM      3  C   LIG    1        1.269   3.367   0.009  0.00  0.00    +0.108 C 
ATOM      4  C   LIG    1        2.659   3.650  -0.615  0.00  0.00    +0.021 C 
ATOM      5  C   LIG    1        3.500   2.478  -0.044  0.00  0.00    +0.033 C 
ATOM      6  C   LIG    1        2.491   1.310  -0.009  0.00  0.00    +0.162 C 
ATOM      7  O   LIG    1        0.002  -0.004   0.002  0.00  0.00    -0.276 OA
ENDROOT
BRANCH   6   8
ATOM      8  C   LIG    1        2.700   0.486   1.236  0.00  0.00    +0.236 C 
ATOM      9  N   LIG    1        3.873  -0.148   1.435  0.00  0.00    -0.300 N 
ATOM     10  C   LIG    1        5.024  -0.126   0.521  0.00  0.00    +0.108 C 
ATOM     11  C   LIG    1        6.124  -1.008   1.150  0.00  0.00    +0.020 C 
ATOM     12  C   LIG    1        5.322  -1.937   2.098  0.00  0.00    +0.020 C 
ATOM     13  C   LIG    1        4.210  -0.983   2.602  0.00  0.00    +0.108 C 
ATOM     14  O   LIG    1        1.813   0.394   2.058  0.00  0.00    -0.274 OA
ENDBRANCH   6   8
BRANCH   1  15
ATOM     15  C   LIG    1       -1.330   1.944   0.019  0.00  0.00    +0.096 C 
BRANCH  15  16
ATOM     16  C   LIG    1       -2.479   0.934   0.019  0.00  0.00    +0.014 C 
BRANCH  16  17
ATOM     17  C   LIG    1       -3.814   1.681   0.029  0.00  0.00    +0.035 C 
BRANCH  17  21
ATOM     18  C   LIG    1       -7.023  -1.138   0.029  0.00  0.00    +0.000 A 
ATOM     19  C   LIG    1       -6.498  -0.689   1.226  0.00  0.00    +0.000 A 
ATOM     20  C   LIG    1       -5.460   0.224   1.226  0.00  0.00    +0.003 A 
ATOM     21  C   LIG    1       -4.946   0.686   0.029  0.00  0.00    -0.047 A 
ATOM     22  C   LIG    1       -5.475   0.241  -1.168  0.00  0.00    +0.003 A 
ATOM     23  C   LIG    1       -6.511  -0.674  -1.168  0.00  0.00    +0.000 A 
ENDBRANCH  17  21
ENDBRANCH  16  17
ENDBRANCH  15  16
ENDBRANCH   1  15
TORSDOF 5
