REMARK  Name = ZINC13440025
REMARK                            x       y       z     vdW  Elec       q    Type
REMARK                         _______ _______ _______ _____ _____    ______ ____
ROOT
ATOM      1  N   LIG    1       -0.742   1.579   1.179  0.00  0.00    -0.267 N 
ATOM      2  C   LIG    1       -1.585   0.847   1.977  0.00  0.00    +0.173 A 
ATOM      3  C   LIG    1       -2.046   1.722   2.966  0.00  0.00    +0.174 A 
ATOM      4  N   LIG    1       -1.481   2.935   2.729  0.00  0.00    -0.207 NA
ATOM      5  C   LIG    1       -2.941   1.230   3.942  0.00  0.00    +0.280 A 
ATOM      6  N   LIG    1       -3.308  -0.070   3.880  0.00  0.00    -0.293 N 
ATOM      7  C   LIG    1       -2.820  -0.876   2.895  0.00  0.00    +0.195 A 
ATOM      8  H   LIG    1       -3.940  -0.441   4.560  0.00  0.00    +0.172 HD
ATOM      9  O   LIG    1       -3.372   1.959   4.819  0.00  0.00    -0.265 OA
ATOM     10  N   LIG    1       -1.987  -0.430   1.982  0.00  0.00    -0.196 NA
ATOM     11  C   LIG    1       -0.710   2.854   1.675  0.00  0.00    +0.197 A 
ENDROOT
BRANCH   1  15
ATOM     12  C4* LIG    1        1.778   1.488  -1.371  0.00  0.00    +0.177 C 
ATOM     13  C3* LIG    1        0.552   1.893  -2.220  0.00  0.00    +0.178 C 
ATOM     14  C2* LIG    1       -0.653   1.622  -1.292  0.00  0.00    +0.195 C 
ATOM     15  C1* LIG    1       -0.013   1.086   0.008  0.00  0.00    +0.255 C 
ATOM     16  O4* LIG    1        1.334   1.607  -0.002  0.00  0.00    -0.346 OA
BRANCH  13  17
ATOM     17  O3* LIG    1        0.471   1.089  -3.398  0.00  0.00    -0.386 OA
ATOM     18  H3* LIG    1        1.232   1.176  -3.987  0.00  0.00    +0.210 HD
ENDBRANCH  13  17
BRANCH  14  19
ATOM     19  O2* LIG    1       -1.517   0.640  -1.866  0.00  0.00    -0.385 OA
ATOM     20  H2* LIG    1       -1.946   0.924  -2.685  0.00  0.00    +0.210 HD
ENDBRANCH  14  19
BRANCH  12  21
ATOM     21  C5* LIG    1        2.948   2.438  -1.636  0.00  0.00    +0.190 C 
BRANCH  21  22
ATOM     22  O5* LIG    1        4.083   2.018  -0.875  0.00  0.00    -0.392 OA
ATOM     23  H5* LIG    1        4.864   2.576  -0.994  0.00  0.00    +0.210 HD
ENDBRANCH  21  22
ENDBRANCH  12  21
ENDBRANCH   1  15
BRANCH   7  24
ATOM     24  N   LIG    1       -3.210  -2.192   2.857  0.00  0.00    -0.329 N 
ATOM     25  H   LIG    1       -2.871  -2.778   2.162  0.00  0.00    +0.145 HD
ATOM     26  H   LIG    1       -2.941  -2.645   3.707  0.00  0.00    +0.145 HD
ENDBRANCH   7  24
BRANCH  11  27
ATOM     27  N   LIG    1        0.025   3.897   1.142  0.00  0.00    -0.329 N 
ATOM     28  H   LIG    1       -0.009   4.774   1.556  0.00  0.00    +0.145 HD
ATOM     29  H   LIG    1        0.573   3.753   0.356  0.00  0.00    +0.145 HD
ENDBRANCH  11  27
TORSDOF 7
