REMARK  Name = ZINC13328041
REMARK                            x       y       z     vdW  Elec       q    Type
REMARK                         _______ _______ _______ _____ _____    ______ ____
ROOT
ATOM      1  C   UNK    1       -0.308   3.505   0.041  0.00  0.00    -0.011 C 
ATOM      2  C   UNK    1        1.167   3.096   0.043  0.00  0.00    -0.043 C 
ATOM      3  N   UNK    1        1.818   3.525   1.282  0.00  0.00    +0.388 N 
ATOM      4  H   UNK    1        2.290   4.425   1.137  0.00  0.00    -0.085 HD
ATOM      5  H   UNK    1        1.121   3.620   2.030  0.00  0.00    -0.085 HD
ATOM      6  C   UNK    1        2.802   2.493   1.641  0.00  0.00    -0.014 C 
ATOM      7  C   UNK    1        2.064   1.178   1.278  0.00  0.00    +0.130 C 
ATOM      8  C   UNK    1        1.286   1.562  -0.002  0.00  0.00    +0.127 C 
ENDROOT
BRANCH   7   9
ATOM      9  O   UNK    1        1.164   0.799   2.322  0.00  0.00    -0.391 OA
ATOM     10  H   UNK    1        0.620   0.027   2.111  0.00  0.00    +0.210 HD
ENDBRANCH   7   9
BRANCH   8  11
ATOM     11  O   UNK    1       -0.011   0.963   0.007  0.00  0.00    -0.391 OA
ATOM     12  H   UNK    1        0.002  -0.004   0.002  0.00  0.00    +0.210 HD
ENDBRANCH   8  11
BRANCH   6  13
ATOM     13  C   UNK    1        3.136   2.535   3.133  0.00  0.00    +0.143 C 
BRANCH  13  14
ATOM     14  O   UNK    1        3.822   3.752   3.433  0.00  0.00    -0.397 OA
ATOM     15  H   UNK    1        4.066   3.847   4.364  0.00  0.00    +0.209 HD
ENDBRANCH  13  14
ENDBRANCH   6  13
TORSDOF 4
