REMARK  Name = ZINC13025776
REMARK                            x       y       z     vdW  Elec       q    Type
REMARK                         _______ _______ _______ _____ _____    ______ ____
ROOT
ATOM      1  N   LIG    1        2.448   0.911  -0.124  0.00  0.00    -0.245 N 
ATOM      2  C   LIG    1        3.745   1.219  -0.323  0.00  0.00    +0.287 C 
ATOM      3  O   LIG    1        4.580   0.335  -0.364  0.00  0.00    -0.266 OA
ENDROOT
BRANCH   1   7
ATOM      4  C   LIG    1        1.244  -3.084  -0.018  0.00  0.00    +0.124 A 
ATOM      5  C   LIG    1        1.357  -2.424  -1.233  0.00  0.00    +0.047 A 
ATOM      6  C   LIG    1        1.750  -1.100  -1.268  0.00  0.00    +0.031 A 
ATOM      7  C   LIG    1        2.043  -0.431  -0.088  0.00  0.00    +0.080 A 
ATOM      8  C   LIG    1        1.930  -1.093   1.132  0.00  0.00    +0.145 A 
ATOM      9  C   LIG    1        1.530  -2.418   1.164  0.00  0.00    +0.093 A 
BRANCH   4  11
ATOM     10  C   LIG    1        0.572  -5.009  -1.242  0.00  0.00    +0.277 C 
ATOM     11  O   LIG    1        0.851  -4.386   0.013  0.00  0.00    -0.495 OA
ENDBRANCH   4  11
BRANCH   8  12
ATOM     12  O   LIG    1        2.212  -0.438   2.290  0.00  0.00    -0.493 OA
ATOM     13  C   LIG    1        2.074  -1.179   3.504  0.00  0.00    +0.277 C 
ENDBRANCH   8  12
ENDBRANCH   1   7
BRANCH   2  14
ATOM     14  C   LIG    1        4.149   2.619  -0.490  0.00  0.00    +0.190 A 
ATOM     15  C   LIG    1        5.408   3.062  -0.776  0.00  0.00    +0.054 A 
ATOM     16  C   LIG    1        5.338   4.462  -0.846  0.00  0.00    +0.042 A 
ATOM     17  C   LIG    1        4.054   4.808  -0.602  0.00  0.00    +0.196 A 
ATOM     18  O   LIG    1        3.340   3.694  -0.394  0.00  0.00    -0.458 OA
ENDBRANCH   2  14
BRANCH   1  19
ATOM     19  C   LIG    1        1.460   1.979   0.054  0.00  0.00    +0.200 C 
BRANCH  19  20
ATOM     20  C   LIG    1        1.787   2.762   1.300  0.00  0.00    +0.017 A 
ATOM     21  C   LIG    1        2.627   2.222   2.255  0.00  0.00    +0.009 A 
ATOM     22  C   LIG    1        2.927   2.940   3.397  0.00  0.00    +0.001 A 
ATOM     23  C   LIG    1        2.389   4.200   3.585  0.00  0.00    +0.003 A 
ATOM     24  C   LIG    1        1.549   4.742   2.631  0.00  0.00    +0.039 A 
ATOM     25  C   LIG    1        1.251   4.025   1.484  0.00  0.00    +0.129 A 
ATOM     26  F   LIG    1        0.435   4.556   0.548  0.00  0.00    -0.205 F 
ENDBRANCH  19  20
BRANCH  19  27
ATOM     27  C   LIG    1        0.086   1.375   0.187  0.00  0.00    +0.239 C 
ATOM     28  N   LIG    1       -0.975   2.165   0.448  0.00  0.00    -0.311 N 
ATOM     29  H   LIG    1       -0.853   3.121   0.554  0.00  0.00    +0.149 HD
ATOM     30  O   LIG    1       -0.066   0.179   0.054  0.00  0.00    -0.273 OA
BRANCH  28  31
ATOM     31  C   LIG    1       -2.312   1.579   0.570  0.00  0.00    +0.073 C 
ATOM     32  C   LIG    1       -2.985   1.502  -0.816  0.00  0.00    +0.022 C 
ATOM     33  C   LIG    1       -4.474   1.821  -0.533  0.00  0.00    +0.002 C 
ATOM     34  C   LIG    1       -4.388   2.918   0.557  0.00  0.00    +0.002 C 
ATOM     35  C   LIG    1       -3.204   2.479   1.443  0.00  0.00    +0.022 C 
ENDBRANCH  28  31
ENDBRANCH  19  27
ENDBRANCH   1  19
TORSDOF 8
