REMARK  Name = ZINC13382495
REMARK                            x       y       z     vdW  Elec       q    Type
REMARK                         _______ _______ _______ _____ _____    ______ ____
ROOT
ATOM      1  C   LIG    1       -0.800   2.152   0.924  0.00  0.00    +0.016 A 
ATOM      2  C   LIG    1       -0.345   3.452   1.160  0.00  0.00    +0.072 A 
ATOM      3  C   LIG    1       -0.958   4.254   2.135  0.00  0.00    +0.143 A 
ATOM      4  O   LIG    1       -0.530   5.512   2.370  0.00  0.00    -0.454 OA
ATOM      5  C   LIG    1        0.502   6.083   1.714  0.00  0.00    +0.146 A 
ATOM      6  C   LIG    1        0.881   7.383   2.030  0.00  0.00    +0.093 A 
ATOM      7  C   LIG    1        1.927   7.986   1.360  0.00  0.00    +0.136 A 
ATOM      8  C   LIG    1        2.618   7.293   0.349  0.00  0.00    +0.059 A 
ATOM      9  C   LIG    1        3.728   7.980  -0.344  0.00  0.00    +0.015 C 
ATOM     10  C   LIG    1        4.244   9.068   0.226  0.00  0.00    +0.020 C 
ATOM     11  C   LIG    1        3.702   9.556   1.543  0.00  0.00    +0.124 C 
ATOM     12  C   LIG    1        4.462   8.875   2.683  0.00  0.00    +0.060 C 
ATOM     13  C   LIG    1        3.899  11.070   1.639  0.00  0.00    +0.060 C 
ATOM     14  C   LIG    1        2.253   5.992   0.020  0.00  0.00    +0.142 A 
ATOM     15  O   LIG    1        2.311   9.254   1.657  0.00  0.00    -0.481 OA
ATOM     16  C   LIG    1        1.192   5.385   0.707  0.00  0.00    +0.107 A 
ATOM     17  C   LIG    1       -2.017   3.736   2.871  0.00  0.00    +0.096 A 
ATOM     18  C   LIG    1       -2.461   2.448   2.637  0.00  0.00    +0.162 A 
ATOM     19  C   LIG    1        0.782   4.008   0.387  0.00  0.00    +0.204 A 
ATOM     20  O   LIG    1        1.346   3.358  -0.475  0.00  0.00    -0.286 OA
ATOM     21  C   LIG    1       -1.852   1.653   1.663  0.00  0.00    +0.166 A 
ENDROOT
BRANCH  14  22
ATOM     22  O   LIG    1        2.915   5.318  -0.953  0.00  0.00    -0.505 OA
ATOM     23  H   LIG    1        2.540   5.434  -1.837  0.00  0.00    +0.292 HD
ENDBRANCH  14  22
BRANCH  18  24
ATOM     24  O   LIG    1       -3.497   1.951   3.361  0.00  0.00    -0.503 OA
ATOM     25  H   LIG    1       -3.229   1.502   4.175  0.00  0.00    +0.292 HD
ENDBRANCH  18  24
BRANCH  21  26
ATOM     26  O   LIG    1       -2.297   0.386   1.443  0.00  0.00    -0.491 OA
ATOM     27  C   LIG    1       -1.689  -0.657   2.209  0.00  0.00    +0.277 C 
ENDBRANCH  21  26
BRANCH   1  28
ATOM     28  C   LIG    1       -0.141   1.298  -0.128  0.00  0.00    +0.067 C 
BRANCH  28  32
ATOM     29  C   LIG    1       -1.278  -0.751  -1.693  0.00  0.00    +0.038 C 
ATOM     30  C   LIG    1       -1.224   0.659  -2.221  0.00  0.00    -0.079 C 
ATOM     31  C   LIG    1       -1.738   0.967  -3.604  0.00  0.00    +0.038 C 
ATOM     32  C   LIG    1       -0.731   1.619  -1.477  0.00  0.00    -0.023 C 
ENDBRANCH  28  32
ENDBRANCH   1  28
TORSDOF 5
