REMARK  Name = ZINC13110453
REMARK                            x       y       z     vdW  Elec       q    Type
REMARK                         _______ _______ _______ _____ _____    ______ ____
ROOT
ATOM      1  C   LIG    1        4.808  -4.015   0.171  0.00  0.00    +0.362 C 
ATOM      2  O   LIG    1        4.348  -4.633  -0.774  0.00  0.00    -0.247 OA
ENDROOT
BRANCH   1   3
ATOM      3  C   LIG    1        5.405  -4.742   1.309  0.00  0.00    +0.186 A 
ATOM      4  C   LIG    1        5.564  -6.135   1.248  0.00  0.00    +0.151 A 
ATOM      5  N   LIG    1        6.101  -6.784   2.273  0.00  0.00    -0.213 NA
ATOM      6  C   LIG    1        6.486  -6.114   3.352  0.00  0.00    +0.156 A 
ATOM      7  C   LIG    1        6.327  -4.725   3.410  0.00  0.00    +0.170 A 
ATOM      8 CL   LIG    1        6.833  -3.854   4.823  0.00  0.00    -0.058 Cl
ATOM      9  N   LIG    1        5.799  -4.077   2.394  0.00  0.00    -0.222 NA
BRANCH   4  10
ATOM     10  N   LIG    1        5.160  -6.831   0.121  0.00  0.00    -0.341 N 
ATOM     11  H   LIG    1        5.186  -7.800   0.115  0.00  0.00    +0.144 HD
ATOM     12  H   LIG    1        4.851  -6.349  -0.661  0.00  0.00    +0.144 HD
ENDBRANCH   4  10
BRANCH   6  13
ATOM     13  N   LIG    1        7.047  -6.790   4.422  0.00  0.00    -0.341 N 
ATOM     14  H   LIG    1        7.329  -6.301   5.211  0.00  0.00    +0.144 HD
ATOM     15  H   LIG    1        7.158  -7.753   4.383  0.00  0.00    +0.144 HD
ENDBRANCH   6  13
ENDBRANCH   1   3
BRANCH   1  17
ATOM     16  C   LIG    1        3.611  -2.044   0.074  0.00  0.00    +0.382 C 
ATOM     17  N   LIG    1        4.771  -2.675   0.177  0.00  0.00    +0.002 NA
BRANCH  16  18
ATOM     18  N   LIG    1        2.446  -2.754   0.075  0.00  0.00    -0.290 N 
ATOM     19  H   LIG    1        1.582  -2.282   0.072  0.00  0.00    +0.254 HD
ATOM     20  H   LIG    1        2.469  -3.724   0.080  0.00  0.00    +0.254 HD
ENDBRANCH  16  18
BRANCH  16  21
ATOM     21  N   LIG    1        3.581  -0.683  -0.033  0.00  0.00    -0.245 N 
ATOM     22  H   LIG    1        4.411  -0.182  -0.088  0.00  0.00    +0.265 HD
BRANCH  21  26
ATOM     23  C   LIG    1       -0.070   1.321  -0.124  0.00  0.00    +0.000 A 
ATOM     24  C   LIG    1        1.017   1.895   0.509  0.00  0.00    +0.003 A 
ATOM     25  C   LIG    1        2.229   1.234   0.541  0.00  0.00    +0.042 A 
ATOM     26  C   LIG    1        2.355  -0.010  -0.063  0.00  0.00    +0.100 A 
ATOM     27  C   LIG    1        1.262  -0.585  -0.698  0.00  0.00    +0.042 A 
ATOM     28  C   LIG    1        0.053   0.082  -0.727  0.00  0.00    +0.003 A 
ENDBRANCH  21  26
ENDBRANCH  16  21
ENDBRANCH   1  17
TORSDOF 7
