REMARK  Name = ZINC13471982
REMARK                            x       y       z     vdW  Elec       q    Type
REMARK                         _______ _______ _______ _____ _____    ______ ____
ROOT
ATOM      1  C   LIG    1        1.650  -4.553  -4.349  0.00  0.00    +0.048 A 
ATOM      2  C   LIG    1        2.348  -3.701  -5.195  0.00  0.00    +0.026 A 
ATOM      3  C   LIG    1        2.776  -4.152  -6.428  0.00  0.00    +0.030 A 
ATOM      4  C   LIG    1        2.511  -5.451  -6.821  0.00  0.00    +0.106 A 
ATOM      5  C   LIG    1        1.817  -6.302  -5.983  0.00  0.00    +0.045 A 
ATOM      6  C   LIG    1        1.391  -5.859  -4.745  0.00  0.00    +0.041 A 
ATOM      7 BR   LIG    1        0.447  -7.027  -3.595  0.00  0.00    -0.048 Br
ENDROOT
BRANCH   1   9
ATOM      8  C   LIG    1        0.733  -2.848  -2.966  0.00  0.00    +0.220 C 
ATOM      9  N   LIG    1        1.215  -4.099  -3.099  0.00  0.00    -0.284 N 
ATOM     10  H   LIG    1        1.260  -4.686  -2.327  0.00  0.00    +0.155 HD
ATOM     11  O   LIG    1        0.763  -2.084  -3.908  0.00  0.00    -0.275 OA
BRANCH   8  12
ATOM     12  C   LIG    1        0.156  -2.398  -1.649  0.00  0.00    +0.075 C 
BRANCH  12  13
ATOM     13  C   LIG    1        0.240  -0.873  -1.550  0.00  0.00    +0.012 C 
BRANCH  13  15
ATOM     14  C   LIG    1       -0.146   1.099  -0.065  0.00  0.00    +0.004 C 
ATOM     15  C   LIG    1       -0.230  -0.426  -0.164  0.00  0.00    -0.003 C 
ENDBRANCH  13  15
ENDBRANCH  12  13
BRANCH  12  16
ATOM     16  C   LIG    1       -1.307  -2.835  -1.557  0.00  0.00    +0.012 C 
BRANCH  16  17
ATOM     17  C   LIG    1       -2.085  -2.268  -2.746  0.00  0.00    -0.003 C 
ATOM     18  C   LIG    1       -3.510  -2.824  -2.735  0.00  0.00    +0.004 C 
ENDBRANCH  16  17
ENDBRANCH  12  16
ENDBRANCH   8  12
ENDBRANCH   1   9
BRANCH   4  19
ATOM     19  S   LIG    1        3.060  -6.021  -8.396  0.00  0.00    +0.056 S 
ATOM     20  O   LIG    1        3.210  -4.870  -9.215  0.00  0.00    -0.153 OA
ATOM     21  O   LIG    1        2.213  -7.105  -8.752  0.00  0.00    -0.153 OA
BRANCH  19  22
ATOM     22  N   LIG    1        4.576  -6.654  -8.186  0.00  0.00    -0.204 NA
ATOM     23  H   LIG    1        5.056  -7.024  -8.944  0.00  0.00    +0.144 HD
ATOM     24  H   LIG    1        4.984  -6.654  -7.306  0.00  0.00    +0.144 HD
ENDBRANCH  19  22
ENDBRANCH   4  19
TORSDOF 8
