REMARK  Name = ZINC13488688
REMARK                            x       y       z     vdW  Elec       q    Type
REMARK                         _______ _______ _______ _____ _____    ______ ____
ROOT
ATOM      1  C   LIG    1        1.431   0.097   3.944  0.00  0.00    +0.001 A 
ATOM      2  C   LIG    1        0.781   0.545   5.081  0.00  0.00    +0.005 A 
ATOM      3  C   LIG    1       -0.356   1.327   4.973  0.00  0.00    -0.023 A 
ATOM      4  C   LIG    1       -0.849   1.665   3.731  0.00  0.00    +0.017 A 
ATOM      5  C   LIG    1       -0.198   1.216   2.578  0.00  0.00    +0.018 A 
ATOM      6  C   LIG    1        0.948   0.422   2.695  0.00  0.00    +0.011 A 
ENDROOT
BRANCH   5   7
ATOM      7  C   LIG    1       -0.718   1.572   1.248  0.00  0.00    +0.171 C 
ATOM      8  O   LIG    1       -1.714   2.256   1.150  0.00  0.00    -0.292 OA
BRANCH   7   9
ATOM      9  C   LIG    1       -0.013   1.086   0.008  0.00  0.00    +0.166 C 
BRANCH   9  10
ATOM     10  C   LIG    1       -0.742   1.585  -1.213  0.00  0.00    +0.246 C 
ATOM     11  O   LIG    1       -1.732   2.265  -1.089  0.00  0.00    -0.285 OA
BRANCH  10  12
ATOM     12  C   LIG    1       -0.240   1.239  -2.574  0.00  0.00    +0.373 C 
ATOM     13  O   LIG    1        0.754   0.556  -2.698  0.00  0.00    -0.242 OA
BRANCH  12  14
ATOM     14  O   LIG    1       -0.891   1.685  -3.664  0.00  0.00    -0.475 OA
ATOM     15  H   LIG    1       -1.660   2.213  -3.568  0.00  0.00    +0.295 HD
ENDBRANCH  12  14
ENDBRANCH  10  12
ENDBRANCH   9  10
ENDBRANCH   7   9
ENDBRANCH   5   7
BRANCH   3  16
ATOM     16  C   LIG    1       -1.057   1.809   6.217  0.00  0.00    +0.216 C 
BRANCH  16  17
ATOM     17  N   LIG    1       -2.066   0.827   6.621  0.00  0.00    -0.108 NA
ATOM     18  N   LIG    1       -2.001   0.337   7.630  0.00  0.00    -0.197 NA
ATOM     19  N   LIG    1       -1.936  -0.153   8.640  0.00  0.00    -0.128 NA
ATOM     20  H   LIG    1       -1.254  -0.842   8.810  0.00  0.00    +0.228 HD
ENDBRANCH  16  17
ENDBRANCH   3  16
TORSDOF 7
