REMARK  Name = ZINC13530902
REMARK                            x       y       z     vdW  Elec       q    Type
REMARK                         _______ _______ _______ _____ _____    ______ ____
ROOT
ATOM      1  C   LIG    1        4.769   0.160  -0.153  0.00  0.00    +0.207 C 
ENDROOT
BRANCH   1   2
ATOM      2  C   LIG    1        5.047   0.445  -1.631  0.00  0.00    +0.031 C 
ATOM      3  C   LIG    1        6.311   1.300  -1.758  0.00  0.00    -0.012 C 
ATOM      4  C   LIG    1        6.549   1.633  -3.233  0.00  0.00    -0.082 C 
ATOM      5  N   LIG    1        5.389   2.370  -3.771  0.00  0.00    +0.379 N 
ATOM      6  H   LIG    1        5.248   3.225  -3.221  0.00  0.00    -0.086 HD
ATOM      7  H   LIG    1        5.571   2.618  -4.750  0.00  0.00    -0.086 HD
ATOM      8  C   LIG    1        4.173   1.539  -3.698  0.00  0.00    -0.082 C 
ATOM      9  C   LIG    1        3.863   1.204  -2.237  0.00  0.00    -0.012 C 
ENDBRANCH   1   2
BRANCH   1  10
ATOM     10  C   LIG    1        5.935  -0.587   0.442  0.00  0.00    -0.007 A 
ATOM     11  C   LIG    1        6.056  -1.949   0.243  0.00  0.00    +0.008 A 
ATOM     12  C   LIG    1        7.128  -2.634   0.784  0.00  0.00    +0.020 A 
ATOM     13  C   LIG    1        8.073  -1.957   1.535  0.00  0.00    +0.041 A 
ATOM     14 CL   LIG    1        9.417  -2.817   2.220  0.00  0.00    -0.084 Cl
ATOM     15  C   LIG    1        7.948  -0.594   1.738  0.00  0.00    +0.020 A 
ATOM     16  C   LIG    1        6.879   0.090   1.192  0.00  0.00    +0.008 A 
ENDBRANCH   1  10
BRANCH   1  17
ATOM     17  O   LIG    1        3.586  -0.632  -0.035  0.00  0.00    -0.484 OA
BRANCH  17  21
ATOM     18  C   LIG    1        0.040   1.381   0.596  0.00  0.00    +0.000 A 
ATOM     19  C   LIG    1        0.038   0.005   0.457  0.00  0.00    +0.004 A 
ATOM     20  C   LIG    1        1.223  -0.671   0.246  0.00  0.00    +0.045 A 
ATOM     21  C   LIG    1        2.418   0.031   0.173  0.00  0.00    +0.121 A 
ATOM     22  C   LIG    1        2.418   1.411   0.313  0.00  0.00    +0.045 A 
ATOM     23  C   LIG    1        1.229   2.083   0.524  0.00  0.00    +0.004 A 
ENDBRANCH  17  21
ENDBRANCH   1  17
TORSDOF 4
