REMARK  Name = ZINC13527309
REMARK                            x       y       z     vdW  Elec       q    Type
REMARK                         _______ _______ _______ _____ _____    ______ ____
ROOT
ATOM      1  C   LIG    1        1.349  -2.682   2.056  0.00  0.00    +0.030 A 
ATOM      2  C   LIG    1        0.569  -1.988   1.160  0.00  0.00    +0.048 A 
ATOM      3  C   LIG    1        0.804  -0.636   0.900  0.00  0.00    +0.124 A 
ATOM      4  C   LIG    1        1.827   0.022   1.547  0.00  0.00    +0.004 A 
ATOM      5  C   LIG    1        2.102   1.484   1.302  0.00  0.00    +0.043 C 
ATOM      6  C   LIG    1        1.433   1.925  -0.001  0.00  0.00    +0.046 C 
ATOM      7  C   LIG    1       -0.017   1.424   0.010  0.00  0.00    +0.229 C 
ATOM      8  C   LIG    1        2.628  -0.675   2.459  0.00  0.00    +0.009 A 
ATOM      9  C   LIG    1        3.770  -0.299   3.296  0.00  0.00    -0.024 A 
ATOM     10  C   LIG    1        4.136  -1.397   3.977  0.00  0.00    +0.087 A 
ATOM     11  N   LIG    1        3.323  -2.446   3.644  0.00  0.00    -0.360 N 
ATOM     12  H   LIG    1        3.393  -3.342   4.006  0.00  0.00    +0.165 HD
ATOM     13  O   LIG    1        0.002  -0.004   0.002  0.00  0.00    -0.492 OA
ATOM     14  C   LIG    1        2.388  -2.036   2.716  0.00  0.00    +0.047 A 
ENDROOT
BRANCH   9  15
ATOM     15  C   LIG    1        4.412   1.062   3.377  0.00  0.00    +0.018 C 
BRANCH  15  16
ATOM     16  C   LIG    1        3.649   1.926   4.384  0.00  0.00    -0.082 C 
BRANCH  16  17
ATOM     17  N   LIG    1        4.298   3.246   4.471  0.00  0.00    +0.378 N 
ATOM     18  H   LIG    1        5.260   3.128   4.809  0.00  0.00    -0.090 HD
ATOM     19  H   LIG    1        3.789   3.843   5.122  0.00  0.00    -0.090 HD
ATOM     20  H   LIG    1        4.319   3.687   3.553  0.00  0.00    -0.090 HD
ENDBRANCH  16  17
ENDBRANCH  15  16
ENDBRANCH   9  15
TORSDOF 3
