REMARK  Name = ZINC13476368
REMARK                            x       y       z     vdW  Elec       q    Type
REMARK                         _______ _______ _______ _____ _____    ______ ____
ROOT
ATOM      1  N   LIG    1       -1.202  -0.723   0.010  0.00  0.00    -0.210 N 
ATOM      2  C   LIG    1       -2.397  -0.131   0.117  0.00  0.00    +0.231 C 
ATOM      3  C   LIG    1       -3.483  -1.182   0.091  0.00  0.00    +0.095 C 
ATOM      4  C   LIG    1       -4.119  -1.263   1.515  0.00  0.00    +0.025 C 
ATOM      5  C   LIG    1       -2.963  -1.978   2.304  0.00  0.00    +0.016 C 
ATOM      6  C   LIG    1       -2.950  -3.220   1.340  0.00  0.00    +0.025 C 
ATOM      7  C   LIG    1       -4.448  -3.547   1.312  0.00  0.00    -0.027 C 
ATOM      8  C   LIG    1       -5.138  -2.404   1.406  0.00  0.00    -0.027 C 
ATOM      9  C   LIG    1       -2.689  -2.514  -0.051  0.00  0.00    +0.095 C 
ATOM     10  O   LIG    1       -2.580   1.063   0.218  0.00  0.00    -0.274 OA
ATOM     11  C   LIG    1       -1.249  -2.056  -0.095  0.00  0.00    +0.231 C 
ATOM     12  O   LIG    1       -0.286  -2.784  -0.206  0.00  0.00    -0.274 OA
ENDROOT
BRANCH   1  18
ATOM     13  C   LIG    1        0.776   0.044  -1.150  0.00  0.00    +0.026 A 
ATOM     14  C   LIG    1        1.961   0.753  -1.154  0.00  0.00    +0.034 A 
ATOM     15  C   LIG    1        2.377   1.415  -0.013  0.00  0.00    +0.122 A 
ATOM     16  C   LIG    1        1.609   1.368   1.135  0.00  0.00    +0.034 A 
ATOM     17  C   LIG    1        0.422   0.660   1.146  0.00  0.00    +0.026 A 
ATOM     18  C   LIG    1        0.002  -0.004   0.002  0.00  0.00    +0.044 A 
BRANCH  15  19
ATOM     19  N   LIG    1        3.648   2.173  -0.021  0.00  0.00    +0.006 N 
ATOM     20  O   LIG    1        4.322   2.214  -1.024  0.00  0.00    -0.130 OA
BRANCH  19  21
ATOM     21  O   LIG    1        4.013   2.751   0.976  0.00  0.00    -0.396 OA
ATOM     22  H   LIG    1        3.492   2.719   1.754  0.00  0.00    +0.329 HD
ENDBRANCH  19  21
ENDBRANCH  15  19
ENDBRANCH   1  18
TORSDOF 3
