REMARK  Name = ZINC13471975
REMARK                            x       y       z     vdW  Elec       q    Type
REMARK                         _______ _______ _______ _____ _____    ______ ____
ROOT
ATOM      1  C   LIG    1        0.627  -4.589  -4.743  0.00  0.00    +0.035 A 
ATOM      2  C   LIG    1        1.188  -3.752  -5.699  0.00  0.00    +0.023 A 
ATOM      3  C   LIG    1        1.277  -4.170  -7.013  0.00  0.00    +0.004 A 
ATOM      4  C   LIG    1        0.809  -5.419  -7.376  0.00  0.00    +0.028 A 
ATOM      5  C   LIG    1        0.250  -6.255  -6.426  0.00  0.00    +0.107 A 
ATOM      6  C   LIG    1        0.164  -5.846  -5.110  0.00  0.00    +0.051 A 
ENDROOT
BRANCH   1   8
ATOM      7  C   LIG    1        0.267  -2.879  -3.128  0.00  0.00    +0.220 C 
ATOM      8  N   LIG    1        0.535  -4.170  -3.411  0.00  0.00    -0.285 N 
ATOM      9  H   LIG    1        0.665  -4.807  -2.692  0.00  0.00    +0.155 HD
ATOM     10  O   LIG    1        0.241  -2.056  -4.019  0.00  0.00    -0.275 OA
BRANCH   7  11
ATOM     11  C   LIG    1       -0.003  -2.460  -1.706  0.00  0.00    +0.075 C 
BRANCH  11  12
ATOM     12  C   LIG    1        0.005  -0.933  -1.615  0.00  0.00    +0.012 C 
BRANCH  12  14
ATOM     13  C   LIG    1       -0.136   1.018  -0.061  0.00  0.00    +0.004 C 
ATOM     14  C   LIG    1       -0.143  -0.509  -0.152  0.00  0.00    -0.003 C 
ENDBRANCH  12  14
ENDBRANCH  11  12
BRANCH  11  15
ATOM     15  C   LIG    1       -1.369  -2.990  -1.268  0.00  0.00    +0.012 C 
BRANCH  15  16
ATOM     16  C   LIG    1       -2.436  -2.536  -2.266  0.00  0.00    -0.003 C 
ATOM     17  C   LIG    1       -3.776  -3.184  -1.911  0.00  0.00    +0.004 C 
ENDBRANCH  15  16
ENDBRANCH  11  15
ENDBRANCH   7  11
ENDBRANCH   1   8
BRANCH   5  18
ATOM     18  S   LIG    1       -0.345  -7.846  -6.894  0.00  0.00    +0.056 S 
ATOM     19  O   LIG    1       -0.641  -7.776  -8.283  0.00  0.00    -0.153 OA
ATOM     20  O   LIG    1       -1.317  -8.216  -5.926  0.00  0.00    -0.153 OA
BRANCH  18  21
ATOM     21  N   LIG    1        0.915  -8.908  -6.731  0.00  0.00    -0.204 NA
ATOM     22  H   LIG    1        0.789  -9.846  -6.943  0.00  0.00    +0.144 HD
ATOM     23  H   LIG    1        1.779  -8.591  -6.424  0.00  0.00    +0.144 HD
ENDBRANCH  18  21
ENDBRANCH   5  18
TORSDOF 8
