REMARK  Name = ZINC13487638
REMARK                            x       y       z     vdW  Elec       q    Type
REMARK                         _______ _______ _______ _____ _____    ______ ____
ROOT
ATOM      1  N   LIG    1       -2.600   0.917   5.761  0.00  0.00    -0.203 N 
ENDROOT
BRANCH   1   5
ATOM      2  C   LIG    1       -4.975  -2.460   5.188  0.00  0.00    +0.121 A 
ATOM      3  C   LIG    1       -3.669  -2.444   4.721  0.00  0.00    +0.047 A 
ATOM      4  C   LIG    1       -2.881  -1.326   4.911  0.00  0.00    +0.028 A 
ATOM      5  C   LIG    1       -3.397  -0.217   5.569  0.00  0.00    +0.051 A 
ATOM      6  C   LIG    1       -4.703  -0.236   6.040  0.00  0.00    +0.028 A 
ATOM      7  C   LIG    1       -5.491  -1.353   5.845  0.00  0.00    +0.047 A 
BRANCH   2   8
ATOM      8  O   LIG    1       -5.750  -3.562   5.002  0.00  0.00    -0.489 OA
BRANCH   8  12
ATOM      9  N   LIG    1       -5.065  -7.017   2.791  0.00  0.00    -0.228 N 
ATOM     10  C   LIG    1       -5.180  -7.198   4.245  0.00  0.00    +0.229 C 
ATOM     11  C   LIG    1       -5.877  -5.970   4.840  0.00  0.00    +0.088 C 
ATOM     12  C   LIG    1       -5.122  -4.707   4.421  0.00  0.00    +0.181 C 
ATOM     13  C   LIG    1       -5.142  -4.581   2.896  0.00  0.00    +0.088 C 
ATOM     14  C   LIG    1       -4.436  -5.792   2.279  0.00  0.00    +0.229 C 
BRANCH   9  16
ATOM     15  C   LIG    1       -5.305  -7.831   0.447  0.00  0.00    +0.140 C 
ATOM     16  C   LIG    1       -5.536  -7.973   1.930  0.00  0.00    +0.235 C 
ATOM     17  N   LIG    1       -6.180  -8.989   2.459  0.00  0.00    -0.293 N 
ATOM     18  H   LIG    1       -6.312  -9.041   3.476  0.00  0.00    +0.301 HD
ATOM     19  H   LIG    1       -6.550  -9.727   1.859  0.00  0.00    +0.301 HD
ENDBRANCH   9  16
ENDBRANCH   8  12
ENDBRANCH   2   8
ENDBRANCH   1   5
BRANCH   1  20
ATOM     20  S   LIG    1       -1.127   0.776   6.505  0.00  0.00    +0.043 S 
ATOM     21  C   LIG    1        0.044   0.441   5.160  0.00  0.00    +0.218 C 
ATOM     22  O   LIG    1       -0.878   2.059   7.062  0.00  0.00    -0.155 OA
ATOM     23  O   LIG    1       -1.250  -0.365   7.342  0.00  0.00    -0.155 OA
ENDBRANCH   1  20
BRANCH   1  24
ATOM     24  C   LIG    1       -3.068   2.228   5.305  0.00  0.00    +0.173 C 
BRANCH  24  25
ATOM     25  C   LIG    1       -2.778   2.380   3.834  0.00  0.00    +0.010 A 
ATOM     26  C   LIG    1       -3.516   1.962   2.796  0.00  0.00    +0.021 A 
ATOM     27  C   LIG    1       -3.049   2.218   1.440  0.00  0.00    -0.010 A 
ATOM     28  C   LIG    1       -3.663   1.873   0.216  0.00  0.00    +0.024 A 
ATOM     29  C   LIG    1       -3.060   2.200  -0.985  0.00  0.00    +0.061 A 
ATOM     30  C   LIG    1       -1.834   2.877  -1.017  0.00  0.00    +0.017 A 
ATOM     31  C   LIG    1       -1.222   3.220   0.156  0.00  0.00    +0.016 A 
ATOM     32  C   LIG    1       -1.814   2.899   1.361  0.00  0.00    +0.020 A 
ATOM     33  S   LIG    1       -1.370   3.153   3.061  0.00  0.00    -0.092 S 
BRANCH  29  34
ATOM     34  C   LIG    1       -3.720   1.829  -2.256  0.00  0.00    +0.266 C 
ATOM     35  N   LIG    1       -4.878   1.191  -2.170  0.00  0.00    -0.288 N 
ATOM     36  H   LIG    1       -5.278   0.975  -1.249  0.00  0.00    +0.301 HD
ATOM     37  H   LIG    1       -5.372   0.914  -3.018  0.00  0.00    +0.301 HD
BRANCH  34  38
ATOM     38  N   LIG    1       -3.129   2.150  -3.459  0.00  0.00    -0.250 N 
ATOM     39  H   LIG    1       -3.562   1.906  -4.292  0.00  0.00    +0.288 HD
ATOM     40  H   LIG    1       -2.280   2.618  -3.472  0.00  0.00    +0.288 HD
ENDBRANCH  34  38
ENDBRANCH  29  34
ENDBRANCH  24  25
ENDBRANCH   1  24
TORSDOF 9
