REMARK  Name = ZINC13283063
REMARK                            x       y       z     vdW  Elec       q    Type
REMARK                         _______ _______ _______ _____ _____    ______ ____
ROOT
ATOM      1  C   LIG    1       -2.911  -2.623   1.907  0.00  0.00    +0.001 A 
ATOM      2  C   LIG    1       -3.339  -1.323   1.690  0.00  0.00    +0.001 A 
ATOM      3  C   LIG    1       -2.470  -0.377   1.186  0.00  0.00    +0.009 A 
ATOM      4  C   LIG    1       -1.153  -0.729   0.898  0.00  0.00    -0.010 A 
ATOM      5  C   LIG    1       -0.718  -2.048   1.112  0.00  0.00    -0.010 A 
ATOM      6  C   LIG    1        0.705  -2.147   0.720  0.00  0.00    -0.010 A 
ATOM      7  C   LIG    1        1.603  -3.213   0.737  0.00  0.00    +0.009 A 
ATOM      8  C   LIG    1        2.901  -3.027   0.306  0.00  0.00    +0.001 A 
ATOM      9  C   LIG    1        3.322  -1.787  -0.144  0.00  0.00    +0.001 A 
ATOM     10  C   LIG    1        2.447  -0.719  -0.168  0.00  0.00    +0.009 A 
ATOM     11  C   LIG    1        1.133  -0.889   0.263  0.00  0.00    -0.010 A 
ATOM     12  C   LIG    1       -0.013   0.040   0.354  0.00  0.00    -0.009 C 
ATOM     13  C   LIG    1       -0.016   1.353   0.009  0.00  0.00    +0.017 C 
ATOM     14  C   LIG    1       -1.611  -2.989   1.622  0.00  0.00    +0.009 A 
ENDROOT
BRANCH  13  15
ATOM     15  C   LIG    1       -1.289   2.083  -0.094  0.00  0.00    -0.022 A 
ATOM     16  C   LIG    1       -2.396   1.515  -0.742  0.00  0.00    +0.027 A 
ATOM     17  C   LIG    1       -3.571   2.234  -0.810  0.00  0.00    +0.111 A 
ATOM     18  N   LIG    1       -3.658   3.442  -0.287  0.00  0.00    -0.263 NA
ATOM     19  C   LIG    1       -2.641   4.016   0.326  0.00  0.00    +0.111 A 
ATOM     20  C   LIG    1       -1.429   3.370   0.447  0.00  0.00    +0.027 A 
ENDBRANCH  13  15
TORSDOF 1
