REMARK  Name = ZINC13527454
REMARK                            x       y       z     vdW  Elec       q    Type
REMARK                         _______ _______ _______ _____ _____    ______ ____
ROOT
ATOM      1  C   LIG    1       -1.226   5.990   0.089  0.00  0.00    +0.136 A 
ATOM      2  C   LIG    1       -1.177   7.406   0.080  0.00  0.00    +0.042 A 
ATOM      3  C   LIG    1        0.031   8.106  -0.003  0.00  0.00    +0.036 A 
ATOM      4  C   LIG    1        0.014   9.486  -0.013  0.00  0.00    +0.025 A 
ATOM      5  C   LIG    1       -1.196  10.183   0.051  0.00  0.00    +0.025 A 
ATOM      6  C   LIG    1       -2.383   9.520   0.127  0.00  0.00    +0.030 A 
ATOM      7  C   LIG    1       -2.400   8.118   0.140  0.00  0.00    +0.076 A 
ATOM      8  N   LIG    1       -3.546   7.424   0.213  0.00  0.00    -0.235 NA
ATOM      9  C   LIG    1       -3.531   6.113   0.224  0.00  0.00    +0.223 A 
ATOM     10  N   LIG    1       -2.414   5.405   0.164  0.00  0.00    -0.220 NA
ENDROOT
BRANCH   4  11
ATOM     11  N   LIG    1        1.217  10.192  -0.089  0.00  0.00    -0.358 N 
ATOM     12  H   LIG    1        2.059   9.713  -0.135  0.00  0.00    +0.142 HD
ATOM     13  H   LIG    1        1.210  11.162  -0.097  0.00  0.00    +0.142 HD
ENDBRANCH   4  11
BRANCH   1  15
ATOM     14  C   LIG    1        0.558   4.760   1.262  0.00  0.00    +0.137 C 
ATOM     15  N   LIG    1       -0.069   5.240   0.028  0.00  0.00    -0.288 N 
BRANCH  15  16
ATOM     16  C   LIG    1        0.504   4.939  -1.211  0.00  0.00    +0.035 A 
ATOM     17  C   LIG    1        1.730   4.289  -1.271  0.00  0.00    +0.023 A 
ATOM     18  C   LIG    1        2.294   3.994  -2.497  0.00  0.00    +0.002 A 
ATOM     19  C   LIG    1        1.639   4.345  -3.663  0.00  0.00    +0.000 A 
ATOM     20  C   LIG    1        0.421   4.996  -3.607  0.00  0.00    +0.002 A 
ATOM     21  C   LIG    1       -0.151   5.290  -2.384  0.00  0.00    +0.023 A 
ENDBRANCH  15  16
ENDBRANCH   1  15
TORSDOF 3
