REMARK  Name = ZINC13467527
REMARK                            x       y       z     vdW  Elec       q    Type
REMARK                         _______ _______ _______ _____ _____    ______ ____
ROOT
ATOM      1  C   LIG    1        3.566   3.500  -0.115  0.00  0.00    +0.393 C 
ATOM      2  N   LIG    1        4.685   4.159  -0.217  0.00  0.00    -0.129 NA
ATOM      3  H   LIG    1        5.524   3.681  -0.298  0.00  0.00    +0.306 HD
ENDROOT
BRANCH   1   4
ATOM      4  N   LIG    1        3.583   2.127  -0.017  0.00  0.00    -0.242 N 
ATOM      5  H   LIG    1        4.428   1.657   0.061  0.00  0.00    +0.265 HD
BRANCH   4   8
ATOM      6  C   LIG    1        0.780   0.019   1.089  0.00  0.00    +0.005 A 
ATOM      7  C   LIG    1        1.967   0.727   1.105  0.00  0.00    +0.044 A 
ATOM      8  C   LIG    1        2.382   1.410  -0.031  0.00  0.00    +0.120 A 
ATOM      9  C   LIG    1        1.602   1.380  -1.180  0.00  0.00    +0.098 A 
ATOM     10 CL   LIG    1        2.116   2.233  -2.602  0.00  0.00    -0.078 Cl
ATOM     11  C   LIG    1        0.415   0.670  -1.190  0.00  0.00    +0.063 A 
ATOM     12 CL   LIG    1       -0.562   0.631  -2.624  0.00  0.00    -0.082 Cl
ATOM     13  C   LIG    1        0.005  -0.009  -0.055  0.00  0.00    +0.022 A 
ENDBRANCH   4   8
ENDBRANCH   1   4
BRANCH   1  14
ATOM     14  N   LIG    1        2.364   4.177  -0.103  0.00  0.00    -0.186 N 
ATOM     15  H   LIG    1        1.529   3.684  -0.101  0.00  0.00    +0.271 HD
BRANCH  14  16
ATOM     16  C   LIG    1        2.350   5.556  -0.096  0.00  0.00    +0.385 C 
ATOM     17  N   LIG    1        3.466   6.220  -0.202  0.00  0.00    -0.129 NA
ATOM     18  H   LIG    1        3.456   7.190  -0.197  0.00  0.00    +0.306 HD
BRANCH  16  19
ATOM     19  N   LIG    1        1.158   6.231   0.022  0.00  0.00    -0.289 N 
ATOM     20  H   LIG    1        1.140   7.198  -0.045  0.00  0.00    +0.255 HD
ATOM     21  H   LIG    1        0.336   5.739   0.174  0.00  0.00    +0.255 HD
ENDBRANCH  16  19
ENDBRANCH  14  16
ENDBRANCH   1  14
TORSDOF 5
