REMARK  Name = ZINC13522710
REMARK                            x       y       z     vdW  Elec       q    Type
REMARK                         _______ _______ _______ _____ _____    ______ ____
ROOT
ATOM      1  C   LIG    1       -0.979   3.539   0.030  0.00  0.00    +0.109 A 
ATOM      2  N   LIG    1       -1.089   2.229   0.019  0.00  0.00    -0.239 NA
ATOM      3  C   LIG    1       -0.017   1.411   0.010  0.00  0.00    +0.079 A 
ATOM      4  C   LIG    1        0.002  -0.004   0.002  0.00  0.00    +0.032 A 
ATOM      5  C   LIG    1        1.177  -0.686  -0.013  0.00  0.00    +0.048 A 
ATOM      6  C   LIG    1        2.404  -0.027  -0.021  0.00  0.00    +0.121 A 
ATOM      7  C   LIG    1        2.428   1.359  -0.014  0.00  0.00    +0.062 A 
ATOM      8  C   LIG    1        1.243   2.054   0.001  0.00  0.00    +0.043 A 
ATOM      9  S   LIG    1        0.793   3.772   0.015  0.00  0.00    -0.067 S 
ENDROOT
BRANCH   1  13
ATOM     10  C   LIG    1       -4.053   6.472   0.077  0.00  0.00    +0.027 A 
ATOM     11  C   LIG    1       -4.383   5.120   0.072  0.00  0.00    +0.023 A 
ATOM     12  C   LIG    1       -3.389   4.167   0.057  0.00  0.00    +0.012 A 
ATOM     13  C   LIG    1       -2.048   4.559   0.046  0.00  0.00    +0.007 A 
ATOM     14  C   LIG    1       -1.720   5.916   0.056  0.00  0.00    +0.012 A 
ATOM     15  C   LIG    1       -2.719   6.865   0.067  0.00  0.00    +0.023 A 
BRANCH  10  17
ATOM     16  C   LIG    1       -4.716   8.857   0.098  0.00  0.00    +0.125 C 
ATOM     17  N   LIG    1       -5.062   7.434   0.093  0.00  0.00    -0.347 N 
ATOM     18  H   LIG    1       -5.992   7.161   0.100  0.00  0.00    +0.146 HD
ENDBRANCH  10  17
ENDBRANCH   1  13
BRANCH   6  19
ATOM     19  O   LIG    1        3.565  -0.735  -0.036  0.00  0.00    -0.495 OA
ATOM     20  C   LIG    1        3.456  -2.160  -0.042  0.00  0.00    +0.277 C 
ENDBRANCH   6  19
TORSDOF 3
