REMARK  Name = ZINC13470280
REMARK                            x       y       z     vdW  Elec       q    Type
REMARK                         _______ _______ _______ _____ _____    ______ ____
ROOT
ATOM      1  P   LIG    1        3.058   4.177  -0.575  0.00  0.00    +0.204 P 
ATOM      2  O   LIG    1        3.523   3.466  -1.866  0.00  0.00    -0.291 OA
ENDROOT
BRANCH   1   3
ATOM      3  O   LIG    1        4.049   3.868   0.569  0.00  0.00    -0.344 OA
ATOM      4  H   LIG    1        4.079   2.910   0.720  0.00  0.00    +0.218 HD
ENDBRANCH   1   3
BRANCH   1   5
ATOM      5  C   LIG    1        3.000   5.976  -0.860  0.00  0.00    +0.112 C 
BRANCH   5   6
ATOM      6  C   LIG    1        4.362   6.457  -1.364  0.00  0.00    +0.107 C 
BRANCH   6   7
ATOM      7  C   LIG    1        5.340   6.488  -0.218  0.00  0.00    +0.308 C 
ATOM      8  O   LIG    1        6.351   5.808  -0.260  0.00  0.00    -0.251 OA
BRANCH   7   9
ATOM      9  O   LIG    1        5.120   7.193   0.752  0.00  0.00    -0.480 OA
ATOM     10  H   LIG    1        4.342   7.716   0.785  0.00  0.00    +0.295 HD
ENDBRANCH   7   9
ENDBRANCH   6   7
BRANCH   6  11
ATOM     11  C   LIG    1        4.222   7.862  -1.953  0.00  0.00    +0.026 C 
BRANCH  11  12
ATOM     12  C   LIG    1        5.555   8.293  -2.569  0.00  0.00    +0.121 C 
BRANCH  12  13
ATOM     13  C   LIG    1        5.416   9.677  -3.149  0.00  0.00    +0.305 C 
ATOM     14  O   LIG    1        4.351  10.264  -3.076  0.00  0.00    -0.251 OA
BRANCH  13  15
ATOM     15  O   LIG    1        6.370  10.209  -3.690  0.00  0.00    -0.481 OA
ATOM     16  H   LIG    1        7.189   9.757  -3.746  0.00  0.00    +0.295 HD
ENDBRANCH  13  15
ENDBRANCH  12  13
ENDBRANCH  11  12
ENDBRANCH   6  11
ENDBRANCH   5   6
ENDBRANCH   1   5
BRANCH   1  17
ATOM     17  C   LIG    1        1.397   3.581  -0.118  0.00  0.00    +0.112 C 
BRANCH  17  18
ATOM     18  C   LIG    1        1.417   2.055  -0.000  0.00  0.00    +0.107 C 
BRANCH  18  19
ATOM     19  C   LIG    1        2.108   1.659   1.279  0.00  0.00    +0.308 C 
ATOM     20  O   LIG    1        3.111   0.966   1.240  0.00  0.00    -0.251 OA
BRANCH  19  21
ATOM     21  O   LIG    1        1.665   2.031   2.352  0.00  0.00    -0.480 OA
ATOM     22  H   LIG    1        0.894   2.564   2.381  0.00  0.00    +0.295 HD
ENDBRANCH  19  21
ENDBRANCH  18  19
BRANCH  18  23
ATOM     23  C   LIG    1       -0.019   1.526   0.010  0.00  0.00    +0.026 C 
BRANCH  23  24
ATOM     24  C   LIG    1        0.002  -0.004   0.002  0.00  0.00    +0.121 C 
BRANCH  24  25
ATOM     25  C   LIG    1       -1.412  -0.526   0.013  0.00  0.00    +0.305 C 
ATOM     26  O   LIG    1       -2.349   0.254   0.026  0.00  0.00    -0.251 OA
BRANCH  25  27
ATOM     27  O   LIG    1       -1.618  -1.727   0.008  0.00  0.00    -0.481 OA
ATOM     28  H   LIG    1       -0.898  -2.326  -0.002  0.00  0.00    +0.295 HD
ENDBRANCH  25  27
ENDBRANCH  24  25
ENDBRANCH  23  24
ENDBRANCH  18  23
ENDBRANCH  17  18
ENDBRANCH   1  17
TORSDOF 17
