REMARK  Name = ZINC13471980
REMARK                            x       y       z     vdW  Elec       q    Type
REMARK                         _______ _______ _______ _____ _____    ______ ____
ROOT
ATOM      1  C   LIG    1        1.647  -4.536  -4.353  0.00  0.00    +0.069 A 
ATOM      2  C   LIG    1        2.342  -3.679  -5.196  0.00  0.00    +0.028 A 
ATOM      3  C   LIG    1        2.773  -4.125  -6.430  0.00  0.00    +0.030 A 
ATOM      4  C   LIG    1        2.513  -5.424  -6.828  0.00  0.00    +0.108 A 
ATOM      5  C   LIG    1        1.820  -6.281  -5.993  0.00  0.00    +0.068 A 
ATOM      6  C   LIG    1        1.391  -5.843  -4.753  0.00  0.00    +0.146 A 
ATOM      7  F   LIG    1        0.720  -6.682  -3.934  0.00  0.00    -0.203 F 
ENDROOT
BRANCH   1   9
ATOM      8  C   LIG    1        0.727  -2.836  -2.965  0.00  0.00    +0.220 C 
ATOM      9  N   LIG    1        1.210  -4.087  -3.101  0.00  0.00    -0.283 N 
ATOM     10  H   LIG    1        1.254  -4.676  -2.332  0.00  0.00    +0.155 HD
ATOM     11  O   LIG    1        0.758  -2.068  -3.904  0.00  0.00    -0.275 OA
BRANCH   8  12
ATOM     12  C   LIG    1        0.148  -2.391  -1.647  0.00  0.00    +0.075 C 
BRANCH  12  13
ATOM     13  C   LIG    1        0.236  -0.867  -1.540  0.00  0.00    +0.012 C 
BRANCH  13  15
ATOM     14  C   LIG    1       -0.149   1.099  -0.046  0.00  0.00    +0.004 C 
ATOM     15  C   LIG    1       -0.236  -0.425  -0.153  0.00  0.00    -0.003 C 
ENDBRANCH  13  15
ENDBRANCH  12  13
BRANCH  12  16
ATOM     16  C   LIG    1       -1.316  -2.825  -1.559  0.00  0.00    +0.012 C 
BRANCH  16  17
ATOM     17  C   LIG    1       -2.091  -2.247  -2.745  0.00  0.00    -0.003 C 
ATOM     18  C   LIG    1       -3.518  -2.799  -2.740  0.00  0.00    +0.004 C 
ENDBRANCH  16  17
ENDBRANCH  12  16
ENDBRANCH   8  12
ENDBRANCH   1   9
BRANCH   4  19
ATOM     19  S   LIG    1        3.064  -5.987  -8.404  0.00  0.00    +0.056 S 
ATOM     20  O   LIG    1        3.211  -4.833  -9.220  0.00  0.00    -0.153 OA
ATOM     21  O   LIG    1        2.221  -7.073  -8.765  0.00  0.00    -0.153 OA
BRANCH  19  22
ATOM     22  N   LIG    1        4.582  -6.615  -8.196  0.00  0.00    -0.204 NA
ATOM     23  H   LIG    1        5.063  -6.982  -8.954  0.00  0.00    +0.144 HD
ATOM     24  H   LIG    1        4.990  -6.617  -7.316  0.00  0.00    +0.144 HD
ENDBRANCH  19  22
ENDBRANCH   4  19
TORSDOF 8
