REMARK  Name = ZINC13209880
REMARK                            x       y       z     vdW  Elec       q    Type
REMARK                         _______ _______ _______ _____ _____    ______ ____
ROOT
ATOM      1  C   LIG    1        4.030  -0.693  -0.039  0.00  0.00    +0.004 A 
ATOM      2  C   LIG    1        3.487   0.552  -0.028  0.00  0.00    +0.028 A 
ATOM      3  C   LIG    1        2.084   0.690  -0.014  0.00  0.00    +0.066 A 
ATOM      4  C   LIG    1        1.233   1.775  -0.000  0.00  0.00    +0.138 A 
ATOM      5  N   LIG    1       -0.016   1.305   0.009  0.00  0.00    -0.243 NA
ATOM      6  C   LIG    1        0.002  -0.004   0.002  0.00  0.00    +0.204 A 
ATOM      7  N   LIG    1        1.282  -0.435  -0.013  0.00  0.00    -0.303 N 
ATOM      8  C   LIG    1        1.851  -1.681  -0.025  0.00  0.00    +0.025 A 
ATOM      9  C   LIG    1        3.190  -1.823  -0.037  0.00  0.00    +0.022 A 
ENDROOT
BRANCH   8  10
ATOM     10  C   LIG    1        0.970  -2.905  -0.024  0.00  0.00    +0.054 C 
BRANCH  10  11
ATOM     11  C   LIG    1        0.789  -3.400   1.413  0.00  0.00    +0.006 C 
BRANCH  11  12
ATOM     12  C   LIG    1       -0.105  -4.642   1.415  0.00  0.00    +0.001 C 
BRANCH  12  13
ATOM     13  C   LIG    1       -0.287  -5.137   2.851  0.00  0.00    +0.011 C 
BRANCH  13  14
ATOM     14  C   LIG    1       -1.181  -6.379   2.853  0.00  0.00    +0.120 C 
BRANCH  14  15
ATOM     15  C   LIG    1       -1.360  -6.867   4.267  0.00  0.00    +0.305 C 
ATOM     16  O   LIG    1       -0.827  -6.282   5.180  0.00  0.00    -0.251 OA
BRANCH  15  17
ATOM     17  O   LIG    1       -2.111  -7.952   4.513  0.00  0.00    -0.481 OA
ATOM     18  H   LIG    1       -2.524  -8.406   3.805  0.00  0.00    +0.295 HD
ENDBRANCH  15  17
ENDBRANCH  14  15
ENDBRANCH  13  14
ENDBRANCH  12  13
ENDBRANCH  11  12
ENDBRANCH  10  11
ENDBRANCH   8  10
TORSDOF 7
