REMARK  Name = ZINC13452330
REMARK                            x       y       z     vdW  Elec       q    Type
REMARK                         _______ _______ _______ _____ _____    ______ ____
ROOT
ATOM      1  C   LIG    1       -0.017   1.380   0.010  0.00  0.00    +0.002 A 
ATOM      2  C   LIG    1        1.154   2.132   0.003  0.00  0.00    +0.006 A 
ATOM      3  C   LIG    1        2.361   1.484  -0.013  0.00  0.00    -0.023 A 
ATOM      4  C   LIG    1        2.364   0.096  -0.022  0.00  0.00    +0.073 A 
ATOM      5  C   LIG    1        1.218  -0.673  -0.014  0.00  0.00    +0.067 A 
ATOM      6  N   LIG    1        1.658  -1.993  -0.025  0.00  0.00    -0.306 N 
ATOM      7  C   LIG    1        3.016  -2.002  -0.041  0.00  0.00    +0.328 A 
ATOM      8  O   LIG    1        3.708  -3.002  -0.051  0.00  0.00    -0.247 OA
ATOM      9  H   LIG    1        1.088  -2.778  -0.020  0.00  0.00    +0.170 HD
ATOM     10  N   LIG    1        3.477  -0.754  -0.045  0.00  0.00    -0.293 N 
ATOM     11  C   LIG    1        4.820  -0.164  -0.069  0.00  0.00    +0.111 C 
ATOM     12  C   LIG    1        4.728   1.223  -0.718  0.00  0.00    -0.051 C 
ATOM     13  C   LIG    1        3.718   2.136  -0.017  0.00  0.00    +0.023 C 
ATOM     14  C   LIG    1        0.002  -0.004   0.002  0.00  0.00    +0.028 A 
ENDROOT
BRANCH  12  15
ATOM     15  N   LIG    1        6.065   1.839  -0.686  0.00  0.00    +0.381 N 
ATOM     16  H   LIG    1        6.728   1.235  -1.187  0.00  0.00    -0.090 HD
ATOM     17  H   LIG    1        6.377   1.948   0.278  0.00  0.00    -0.090 HD
ATOM     18  H   LIG    1        6.040   2.752  -1.138  0.00  0.00    -0.090 HD
ENDBRANCH  12  15
TORSDOF 1
