REMARK  Name = ZINC13491009
REMARK                            x       y       z     vdW  Elec       q    Type
REMARK                         _______ _______ _______ _____ _____    ______ ____
ROOT
ATOM      1  N   LIG    1       -0.017   1.397   0.010  0.00  0.00    -0.316 N 
ATOM      2  C   LIG    1        0.002  -0.004   0.002  0.00  0.00    +0.104 C 
ATOM      3  C   LIG    1        0.709  -0.568   1.255  0.00  0.00    -0.000 C 
ATOM      4  C   LIG    1        2.198  -0.406   1.091  0.00  0.00    -0.081 C 
ATOM      5  N   LIG    1        2.735   0.857   1.692  0.00  0.00    +0.380 N 
ATOM      6  H   LIG    1        2.813   0.735   2.708  0.00  0.00    -0.086 HD
ATOM      7  H   LIG    1        3.664   1.044   1.297  0.00  0.00    -0.086 HD
ATOM      8  C   LIG    1        1.847   2.026   1.412  0.00  0.00    -0.063 C 
ATOM      9  C   LIG    1        1.318   2.029   0.000  0.00  0.00    +0.087 C 
ENDROOT
BRANCH   1  16
ATOM     10  C   LIG    1       -0.962   3.266  -1.190  0.00  0.00    +0.048 A 
ATOM     11  C   LIG    1       -1.762   3.707  -2.232  0.00  0.00    +0.045 A 
ATOM     12  C   LIG    1       -2.362   2.752  -3.044  0.00  0.00    +0.152 A 
ATOM     13 CL   LIG    1       -3.376   3.248  -4.364  0.00  0.00    -0.060 Cl
ATOM     14  N   LIG    1       -2.163   1.470  -2.811  0.00  0.00    -0.136 NA
ATOM     15  N   LIG    1       -1.418   1.055  -1.851  0.00  0.00    -0.133 NA
ATOM     16  C   LIG    1       -0.810   1.890  -1.022  0.00  0.00    +0.144 A 
ENDBRANCH   1  16
TORSDOF 1
