REMARK  Name = ZINC13517786
REMARK                            x       y       z     vdW  Elec       q    Type
REMARK                         _______ _______ _______ _____ _____    ______ ____
ROOT
ATOM      1  C   LIG    1       -0.013   1.086   0.008  0.00  0.00    +0.124 C 
ENDROOT
BRANCH   1   9
ATOM      2  C   LIG    1       -0.855   2.928   1.478  0.00  0.00    +0.006 A 
ATOM      3  C   LIG    1       -1.506   3.375   2.612  0.00  0.00    +0.022 A 
ATOM      4  C   LIG    1       -2.012   2.465   3.523  0.00  0.00    +0.059 A 
ATOM      5 CL   LIG    1       -2.824   3.026   4.952  0.00  0.00    -0.082 Cl
ATOM      6  C   LIG    1       -1.869   1.107   3.296  0.00  0.00    +0.060 A 
ATOM      7 CL   LIG    1       -2.503  -0.036   4.438  0.00  0.00    -0.082 Cl
ATOM      8  C   LIG    1       -1.222   0.661   2.158  0.00  0.00    +0.026 A 
ATOM      9  C   LIG    1       -0.718   1.572   1.248  0.00  0.00    -0.029 A 
ENDBRANCH   1   9
BRANCH   1  10
ATOM     10  C   LIG    1        1.423   1.615  -0.003  0.00  0.00    +0.010 C 
ATOM     11  C   LIG    1        2.139   1.122  -1.262  0.00  0.00    +0.005 C 
ATOM     12  C   LIG    1        3.574   1.652  -1.272  0.00  0.00    +0.000 C 
ATOM     13  C   LIG    1        4.314   1.145  -0.033  0.00  0.00    +0.000 C 
ATOM     14  C   LIG    1        3.598   1.638   1.226  0.00  0.00    +0.000 C 
ATOM     15  C   LIG    1        2.163   1.109   1.237  0.00  0.00    +0.005 C 
ENDBRANCH   1  10
BRANCH   1  16
ATOM     16  C   LIG    1       -0.725   1.573  -1.185  0.00  0.00    +0.071 C 
ATOM     17  N   LIG    1       -1.274   1.950  -2.105  0.00  0.00    -0.196 NA
ENDBRANCH   1  16
TORSDOF 3
