REMARK  Name = ZINC13442468
REMARK                            x       y       z     vdW  Elec       q    Type
REMARK                         _______ _______ _______ _____ _____    ______ ____
ROOT
ATOM      1  C   LIG    1       -0.600  -2.078  -0.003  0.00  0.00    +0.278 A 
ATOM      2  N   LIG    1        0.712  -2.002  -0.015  0.00  0.00    -0.101 NA
ATOM      3  N   LIG    1        1.069  -0.765  -0.018  0.00  0.00    -0.106 NA
ATOM      4  C   LIG    1        0.002  -0.004   0.002  0.00  0.00    +0.249 A 
ATOM      5  O   LIG    1       -1.076  -0.819   0.008  0.00  0.00    -0.411 OA
ENDROOT
BRANCH   4   6
ATOM      6  C   LIG    1       -0.018   1.473   0.010  0.00  0.00    +0.041 A 
ATOM      7  C   LIG    1       -1.229   2.176   0.020  0.00  0.00    +0.033 A 
ATOM      8  C   LIG    1       -1.201   3.555   0.032  0.00  0.00    +0.111 A 
ATOM      9  N   LIG    1       -0.055   4.210   0.025  0.00  0.00    -0.263 NA
ATOM     10  C   LIG    1        1.108   3.586   0.011  0.00  0.00    +0.111 A 
ATOM     11  C   LIG    1        1.174   2.209   0.003  0.00  0.00    +0.033 A 
ENDBRANCH   4   6
BRANCH   1  12
ATOM     12  S   LIG    1       -1.558  -3.556  -0.003  0.00  0.00    -0.061 S 
BRANCH  12  13
ATOM     13  C   LIG    1       -0.234  -4.790  -0.022  0.00  0.00    +0.114 C 
BRANCH  13  16
ATOM     14  C   LIG    1       -1.673  -8.067  -1.224  0.00  0.00    +0.001 A 
ATOM     15  C   LIG    1       -1.122  -6.799  -1.222  0.00  0.00    +0.004 A 
ATOM     16  C   LIG    1       -0.835  -6.172  -0.024  0.00  0.00    -0.036 A 
ATOM     17  C   LIG    1       -1.094  -6.814   1.173  0.00  0.00    +0.018 A 
ATOM     18  C   LIG    1       -1.651  -8.080   1.171  0.00  0.00    +0.014 A 
ATOM     19  I   LIG    1       -2.052  -9.051   2.983  0.00  0.00    -0.044 I 
ATOM     20  C   LIG    1       -1.937  -8.708  -0.028  0.00  0.00    +0.014 A 
ENDBRANCH  13  16
ENDBRANCH  12  13
ENDBRANCH   1  12
TORSDOF 4
