REMARK  Name = ZINC13475543
REMARK                            x       y       z     vdW  Elec       q    Type
REMARK                         _______ _______ _______ _____ _____    ______ ____
ROOT
ATOM      1  C   LIG    1        0.885   4.097   6.674  0.00  0.00    -0.027 C 
ATOM      2  C   LIG    1        1.644   4.918   7.356  0.00  0.00    -0.027 C 
ENDROOT
BRANCH   1   3
ATOM      3  C   LIG    1        1.353   3.567   5.343  0.00  0.00    +0.054 C 
BRANCH   3   5
ATOM      4  C   LIG    1        0.574   1.444   4.380  0.00  0.00    -0.004 C 
ATOM      5  C   LIG    1        1.255   2.063   5.339  0.00  0.00    -0.023 C 
BRANCH   4   7
ATOM      6  C   LIG    1       -0.562   1.582   2.242  0.00  0.00    +0.004 C 
ATOM      7  C   LIG    1        0.042   2.212   3.244  0.00  0.00    -0.002 C 
BRANCH   6   8
ATOM      8  C   LIG    1       -1.108   2.368   1.078  0.00  0.00    +0.137 C 
BRANCH   8   9
ATOM      9  O   LIG    1       -0.754   3.745   1.225  0.00  0.00    -0.388 OA
ATOM     10  H   LIG    1        0.199   3.905   1.255  0.00  0.00    +0.210 HD
ENDBRANCH   8   9
BRANCH   8  11
ATOM     11  C   LIG    1       -0.518   1.826  -0.225  0.00  0.00    +0.035 C 
BRANCH  11  12
ATOM     12  C   LIG    1       -1.165   2.539  -1.414  0.00  0.00    +0.003 C 
BRANCH  12  13
ATOM     13  C   LIG    1       -0.575   1.997  -2.717  0.00  0.00    -0.000 C 
BRANCH  13  15
ATOM     14  C   LIG    1       -0.631   2.168  -5.209  0.00  0.00    +0.004 C 
ATOM     15  C   LIG    1       -1.222   2.711  -3.906  0.00  0.00    -0.003 C 
ENDBRANCH  13  15
ENDBRANCH  12  13
ENDBRANCH  11  12
ENDBRANCH   8  11
ENDBRANCH   6   8
ENDBRANCH   4   7
ENDBRANCH   3   5
ENDBRANCH   1   3
BRANCH   2  16
ATOM     16  C   LIG    1        2.913   5.455   6.744  0.00  0.00    +0.053 C 
BRANCH  16  17
ATOM     17  C   LIG    1        2.911   6.960   6.824  0.00  0.00    -0.027 C 
ATOM     18  C   LIG    1        3.929   7.589   7.358  0.00  0.00    -0.031 C 
BRANCH  18  19
ATOM     19  C   LIG    1        5.173   6.826   7.734  0.00  0.00    +0.027 C 
BRANCH  19  20
ATOM     20  C   LIG    1        6.393   7.494   7.097  0.00  0.00    +0.013 C 
BRANCH  20  21
ATOM     21  C   LIG    1        7.656   6.719   7.479  0.00  0.00    +0.096 C 
BRANCH  21  22
ATOM     22  C   LIG    1        8.857   7.377   6.852  0.00  0.00    +0.213 C 
ATOM     23  N   LIG    1       10.088   6.864   7.052  0.00  0.00    -0.313 N 
ATOM     24  H   LIG    1       10.200   6.072   7.600  0.00  0.00    +0.149 HD
ATOM     25  O   LIG    1        8.718   8.368   6.166  0.00  0.00    -0.276 OA
BRANCH  23  26
ATOM     26  C   LIG    1       11.256   7.504   6.442  0.00  0.00    +0.132 C 
BRANCH  26  27
ATOM     27  C   LIG    1       12.519   6.729   6.824  0.00  0.00    +0.174 C 
BRANCH  27  28
ATOM     28  O   LIG    1       12.465   5.419   6.255  0.00  0.00    -0.393 OA
ATOM     29  H   LIG    1       13.235   4.871   6.456  0.00  0.00    +0.209 HD
ENDBRANCH  27  28
ENDBRANCH  26  27
ENDBRANCH  23  26
ENDBRANCH  21  22
ENDBRANCH  20  21
ENDBRANCH  19  20
ENDBRANCH  18  19
ENDBRANCH  16  17
ENDBRANCH   2  16
TORSDOF 18
