REMARK  Name = ZINC13446262
REMARK                            x       y       z     vdW  Elec       q    Type
REMARK                         _______ _______ _______ _____ _____    ______ ____
ROOT
ATOM      1  C   LIG    1        0.967  -2.747   2.703  0.00  0.00    +0.283 C 
ATOM      2  N   LIG    1        1.090  -4.083   2.585  0.00  0.00    -0.282 N 
ATOM      3  C   LIG    1        0.399  -4.806   1.508  0.00  0.00    +0.109 C 
ATOM      4  C   LIG    1        1.425  -5.643   0.738  0.00  0.00    +0.019 C 
ATOM      5  C   LIG    1        2.180  -6.545   1.717  0.00  0.00    +0.004 C 
ATOM      6  C   LIG    1        2.928  -5.682   2.736  0.00  0.00    +0.034 C 
ATOM      7  C   LIG    1        1.923  -4.845   3.526  0.00  0.00    +0.185 C 
ATOM      8  O   LIG    1        1.637  -2.145   3.518  0.00  0.00    -0.267 OA
ENDROOT
BRANCH   1   9
ATOM      9  C   LIG    1        0.009  -2.006   1.834  0.00  0.00    +0.223 C 
ATOM     10  O   LIG    1       -0.766  -2.614   1.134  0.00  0.00    -0.287 OA
BRANCH   9  11
ATOM     11  C   LIG    1        0.006  -0.499   1.828  0.00  0.00    +0.032 C 
ATOM     12  C   LIG    1       -0.299   0.016   3.237  0.00  0.00    +0.019 C 
ATOM     13  C   LIG    1        1.378   0.012   1.384  0.00  0.00    +0.019 C 
BRANCH  11  15
ATOM     14  C   LIG    1       -1.067   1.535   0.853  0.00  0.00    +0.005 C 
ATOM     15  C   LIG    1       -1.065   0.005   0.858  0.00  0.00    +0.011 C 
ENDBRANCH  11  15
ENDBRANCH   9  11
ENDBRANCH   1   9
BRANCH   7  16
ATOM     16  C   LIG    1        2.661  -3.893   4.431  0.00  0.00    +0.328 C 
ATOM     17  O   LIG    1        3.539  -3.193   3.985  0.00  0.00    -0.249 OA
BRANCH  16  18
ATOM     18  O   LIG    1        2.345  -3.824   5.734  0.00  0.00    -0.464 OA
BRANCH  18  19
ATOM     19  C   LIG    1        3.098  -2.885   6.546  0.00  0.00    +0.229 C 
ATOM     20  C   LIG    1        2.599  -2.947   7.991  0.00  0.00    +0.048 C 
ENDBRANCH  18  19
ENDBRANCH  16  18
ENDBRANCH   7  16
TORSDOF 6
