REMARK  Name = ZINC13382850
REMARK                            x       y       z     vdW  Elec       q    Type
REMARK                         _______ _______ _______ _____ _____    ______ ____
ROOT
ATOM      1  C   LIG    1        1.324   2.046   0.000  0.00  0.00    +0.188 C 
ATOM      2  C   LIG    1        2.248   1.325  -0.948  0.00  0.00    +0.008 A 
ATOM      3  C   LIG    1        3.464   1.931  -1.292  0.00  0.00    +0.035 A 
ATOM      4  C   LIG    1        4.345   1.290  -2.136  0.00  0.00    +0.071 A 
ATOM      5  N   LIG    1        4.032   0.058  -2.637  0.00  0.00    -0.302 N 
ATOM      6  C   LIG    1        5.133  -0.394  -3.497  0.00  0.00    +0.162 C 
ATOM      7  C   LIG    1        6.170   0.700  -3.475  0.00  0.00    +0.000 A 
ATOM      8  C   LIG    1        7.383   0.835  -4.076  0.00  0.00    +0.021 A 
ATOM      9  C   LIG    1        8.116   2.013  -3.838  0.00  0.00    +0.042 A 
ATOM     10  C   LIG    1        9.379   2.221  -4.425  0.00  0.00    +0.129 A 
ATOM     11  C   LIG    1       10.062   3.387  -4.164  0.00  0.00    +0.046 A 
ATOM     12  C   LIG    1        9.517   4.358  -3.329  0.00  0.00    +0.006 A 
ATOM     13  C   LIG    1        8.298   4.184  -2.749  0.00  0.00    +0.028 A 
ATOM     14  C   LIG    1        7.566   3.006  -2.988  0.00  0.00    +0.075 A 
ATOM     15  N   LIG    1        6.371   2.819  -2.427  0.00  0.00    -0.245 NA
ATOM     16  C   LIG    1        2.866  -0.534  -2.315  0.00  0.00    +0.259 A 
ATOM     17  O   LIG    1        2.606  -1.637  -2.767  0.00  0.00    -0.267 OA
ATOM     18  C   LIG    1        5.672   1.715  -2.642  0.00  0.00    +0.093 A 
ATOM     19  C   LIG    1        1.942   0.104  -1.462  0.00  0.00    +0.061 A 
ATOM     20  C   LIG    1        0.645  -0.597  -1.157  0.00  0.00    +0.273 C 
ATOM     21  O   LIG    1        0.002  -0.004   0.002  0.00  0.00    -0.457 OA
ATOM     22  C   LIG    1       -0.016   1.348   0.009  0.00  0.00    +0.344 C 
ATOM     23  O   LIG    1       -1.053   1.968   0.018  0.00  0.00    -0.247 OA
ENDROOT
BRANCH   1  25
ATOM     24  C   LIG    1        0.922   2.638   2.394  0.00  0.00    +0.007 C 
ATOM     25  C   LIG    1        1.921   2.027   1.409  0.00  0.00    +0.048 C 
ENDBRANCH   1  25
BRANCH   1  26
ATOM     26  O   LIG    1        1.157   3.398  -0.431  0.00  0.00    -0.373 OA
ATOM     27  H   LIG    1        0.568   3.920   0.132  0.00  0.00    +0.211 HD
ENDBRANCH   1  26
BRANCH  10  28
ATOM     28  O   LIG    1        9.918   1.279  -5.242  0.00  0.00    -0.494 OA
ATOM     29  C   LIG    1       11.203   1.562  -5.799  0.00  0.00    +0.277 C 
ENDBRANCH  10  28
TORSDOF 3
