REMARK  Name = ZINC13489643
REMARK                            x       y       z     vdW  Elec       q    Type
REMARK                         _______ _______ _______ _____ _____    ______ ____
ROOT
ATOM      1  C   LIG    1        2.092   4.248   0.005  0.00  0.00    +0.156 A 
ATOM      2  C   LIG    1        1.095   3.178   0.009  0.00  0.00    +0.060 A 
ATOM      3  C   LIG    1        1.163   1.781   0.001  0.00  0.00    +0.016 A 
ATOM      4  C   LIG    1       -0.013   1.076   0.008  0.00  0.00    +0.020 A 
ATOM      5  C   LIG    1       -1.222   1.757   0.017  0.00  0.00    +0.113 A 
ATOM      6  N   LIG    1       -1.271   3.071   0.031  0.00  0.00    -0.236 NA
ATOM      7  C   LIG    1       -0.166   3.807   0.024  0.00  0.00    +0.157 A 
ATOM      8  N   LIG    1        0.069   5.155   0.029  0.00  0.00    -0.258 N 
ATOM      9  H   LIG    1       -0.636   5.864   0.040  0.00  0.00    +0.191 HD
ATOM     10  N   LIG    1        1.448   5.385   0.017  0.00  0.00    -0.156 NA
ENDROOT
BRANCH   1  12
ATOM     11  C   LIG    1        4.287   5.165  -0.011  0.00  0.00    +0.218 C 
ATOM     12  N   LIG    1        3.481   4.085  -0.009  0.00  0.00    -0.268 N 
ATOM     13  H   LIG    1        3.864   3.194  -0.016  0.00  0.00    +0.156 HD
ATOM     14  O   LIG    1        3.808   6.279  -0.001  0.00  0.00    -0.275 OA
BRANCH  11  15
ATOM     15  C   LIG    1        5.784   4.989  -0.025  0.00  0.00    +0.096 C 
BRANCH  15  17
ATOM     16  C   LIG    1        7.978   6.183  -0.039  0.00  0.00    +0.004 C 
ATOM     17  C   LIG    1        6.459   6.362  -0.024  0.00  0.00    +0.006 C 
ENDBRANCH  15  17
ENDBRANCH  11  15
ENDBRANCH   1  12
TORSDOF 3
