REMARK  Name = ZINC13493055
REMARK                            x       y       z     vdW  Elec       q    Type
REMARK                         _______ _______ _______ _____ _____    ______ ____
ROOT
ATOM      1  C   LIG    1       -2.846   2.128   0.027  0.00  0.00    +0.077 A 
ATOM      2  C   LIG    1       -3.398   1.661  -1.175  0.00  0.00    +0.080 A 
ATOM      3  C   LIG    1       -2.763   1.902  -2.407  0.00  0.00    +0.031 A 
ATOM      4  C   LIG    1       -3.331   1.426  -3.547  0.00  0.00    +0.039 A 
ATOM      5  C   LIG    1       -4.537   0.699  -3.481  0.00  0.00    +0.122 A 
ATOM      6  N   LIG    1       -5.126   0.471  -2.330  0.00  0.00    -0.158 NA
ATOM      7  N   LIG    1       -4.567   0.947  -1.137  0.00  0.00    -0.220 N 
ATOM      8  C   LIG    1       -5.178   0.711   0.051  0.00  0.00    +0.227 A 
ATOM      9  N   LIG    1       -4.682   1.141   1.177  0.00  0.00    -0.197 NA
ATOM     10  C   LIG    1       -3.538   1.843   1.226  0.00  0.00    +0.281 A 
ATOM     11  O   LIG    1       -3.099   2.234   2.300  0.00  0.00    -0.265 OA
ENDROOT
BRANCH   1  16
ATOM     12  C   LIG    1        0.782   4.341   0.052  0.00  0.00    +0.003 A 
ATOM     13  C   LIG    1       -0.427   5.003  -0.064  0.00  0.00    +0.021 A 
ATOM     14  C   LIG    1       -1.610   4.290  -0.069  0.00  0.00    +0.050 A 
ATOM     15 CL   LIG    1       -3.127   5.123  -0.216  0.00  0.00    -0.083 Cl
ATOM     16  C   LIG    1       -1.584   2.898   0.038  0.00  0.00    +0.026 A 
ATOM     17  C   LIG    1       -0.359   2.237   0.161  0.00  0.00    +0.050 A 
ATOM     18 CL   LIG    1       -0.315   0.507   0.302  0.00  0.00    -0.083 Cl
ATOM     19  C   LIG    1        0.816   2.962   0.165  0.00  0.00    +0.021 A 
ENDBRANCH   1  16
BRANCH   5  20
ATOM     20  S   LIG    1       -5.265   0.086  -4.964  0.00  0.00    -0.065 S 
BRANCH  20  21
ATOM     21  C   LIG    1       -6.620  -0.890  -4.403  0.00  0.00    +0.050 A 
ATOM     22  C   LIG    1       -7.917  -0.407  -4.508  0.00  0.00    +0.021 A 
ATOM     23  C   LIG    1       -8.978  -1.174  -4.068  0.00  0.00    +0.039 A 
ATOM     24  C   LIG    1       -8.749  -2.426  -3.521  0.00  0.00    +0.126 A 
ATOM     25  F   LIG    1       -9.789  -3.174  -3.091  0.00  0.00    -0.205 F 
ATOM     26  C   LIG    1       -7.457  -2.912  -3.414  0.00  0.00    +0.077 A 
ATOM     27  C   LIG    1       -6.392  -2.150  -3.859  0.00  0.00    +0.140 A 
ATOM     28  F   LIG    1       -5.132  -2.627  -3.760  0.00  0.00    -0.204 F 
ENDBRANCH  20  21
ENDBRANCH   5  20
TORSDOF 3
