REMARK  Name = ZINC13491409
REMARK                            x       y       z     vdW  Elec       q    Type
REMARK                         _______ _______ _______ _____ _____    ______ ____
ROOT
ATOM      1  C   LIG    1       -0.013   1.086   0.008  0.00  0.00    +0.061 C 
ATOM      2  C   LIG    1       -0.729   1.579   1.267  0.00  0.00    +0.136 C 
ATOM      3  C   LIG    1        0.009   1.074   2.508  0.00  0.00    +0.061 C 
ATOM      4  C   LIG    1       -2.147   1.065   1.277  0.00  0.00    +0.017 A 
ATOM      5  C   LIG    1       -2.462  -0.148   0.708  0.00  0.00    +0.018 A 
ATOM      6  C   LIG    1       -3.781  -0.601   0.732  0.00  0.00    -0.017 A 
ATOM      7  C   LIG    1       -4.773   0.174   1.330  0.00  0.00    +0.010 A 
ATOM      8  C   LIG    1       -4.452   1.397   1.894  0.00  0.00    +0.024 A 
ATOM      9  C   LIG    1       -3.139   1.843   1.870  0.00  0.00    +0.043 A 
ATOM     10  N   LIG    1       -2.787   3.072   2.440  0.00  0.00    -0.251 N 
ATOM     11  H   LIG    1       -3.395   3.519   3.049  0.00  0.00    +0.158 HD
ATOM     12  C   LIG    1       -1.597   3.630   2.138  0.00  0.00    +0.405 C 
ATOM     13  O   LIG    1       -1.281   4.686   2.651  0.00  0.00    -0.226 OA
ATOM     14  O   LIG    1       -0.756   3.033   1.274  0.00  0.00    -0.439 OA
ENDROOT
BRANCH   6  15
ATOM     15  C   LIG    1       -4.128  -1.908   0.120  0.00  0.00    -0.016 A 
ATOM     16  C   LIG    1       -3.135  -2.683  -0.479  0.00  0.00    +0.011 A 
ATOM     17  C   LIG    1       -3.453  -3.900  -1.049  0.00  0.00    +0.040 A 
ATOM     18  C   LIG    1       -4.758  -4.358  -1.031  0.00  0.00    +0.141 A 
ATOM     19  F   LIG    1       -5.063  -5.550  -1.590  0.00  0.00    -0.204 F 
ATOM     20  C   LIG    1       -5.762  -3.589  -0.433  0.00  0.00    +0.087 A 
ATOM     21  C   LIG    1       -5.441  -2.362   0.148  0.00  0.00    +0.030 A 
BRANCH  20  22
ATOM     22  C   LIG    1       -7.114  -4.062  -0.413  0.00  0.00    +0.102 C 
ATOM     23  N   LIG    1       -8.186  -4.437  -0.397  0.00  0.00    -0.191 NA
ENDBRANCH  20  22
ENDBRANCH   6  15
TORSDOF 2
