REMARK  Name = ZINC13455558
REMARK                            x       y       z     vdW  Elec       q    Type
REMARK                         _______ _______ _______ _____ _____    ______ ____
ROOT
ATOM      1  C   ARG A  2       -1.743  -2.229   0.011  0.00  0.00    +0.234 C 
ATOM      2  N   GLY A  3       -1.479  -2.748  -1.204  0.00  0.00    -0.305 N 
ATOM      3  H   GLY A  3       -1.279  -2.161  -1.950  0.00  0.00    +0.149 HD
ATOM      4  O   ARG A  2       -1.993  -2.964   0.943  0.00  0.00    -0.274 OA
ENDROOT
BRANCH   2   5
ATOM      5  CA  GLY A  3       -1.493  -4.200  -1.400  0.00  0.00    +0.200 C 
BRANCH   5   6
ATOM      6  C   GLY A  3       -1.168  -4.517  -2.837  0.00  0.00    +0.231 C 
ATOM      7  N   ASP A  4       -1.124  -5.799  -3.251  0.00  0.00    -0.302 N 
ATOM      8  H   ASP A  4       -1.231  -6.519  -2.610  0.00  0.00    +0.150 HD
ATOM      9  O   GLY A  3       -0.946  -3.619  -3.620  0.00  0.00    -0.274 OA
BRANCH   7  10
ATOM     10  CA  ASP A  4       -0.914  -6.104  -4.668  0.00  0.00    +0.169 C 
BRANCH  10  11
ATOM     11  C   ASP A  4       -2.222  -5.987  -5.406  0.00  0.00    +0.235 C 
ATOM     12  N   SER A  5       -2.272  -6.225  -6.732  0.00  0.00    -0.299 N 
ATOM     13  H   SER A  5       -1.465  -6.471  -7.211  0.00  0.00    +0.150 HD
ATOM     14  O   ASP A  4       -3.231  -5.679  -4.807  0.00  0.00    -0.274 OA
BRANCH  12  15
ATOM     15  CA  SER A  5       -3.544  -6.111  -7.450  0.00  0.00    +0.207 C 
BRANCH  15  16
ATOM     16  C   SER A  5       -4.303  -7.408  -7.335  0.00  0.00    +0.328 C 
ATOM     17  O   SER A  5       -3.825  -8.341  -6.712  0.00  0.00    -0.249 OA
BRANCH  16  18
ATOM     18  OXT SER A  5       -5.394  -7.525  -7.866  0.00  0.00    -0.479 OA
ATOM     19  HXT SER A  5       -5.761  -6.808  -8.345  0.00  0.00    +0.295 HD
ENDBRANCH  16  18
ENDBRANCH  15  16
BRANCH  15  20
ATOM     20  CB  SER A  5       -3.272  -5.807  -8.924  0.00  0.00    +0.189 C 
BRANCH  20  21
ATOM     21  OG  SER A  5       -2.599  -6.916  -9.523  0.00  0.00    -0.393 OA
ATOM     22  H   SER A  5       -2.394  -6.793 -10.460  0.00  0.00    +0.209 HD
ENDBRANCH  20  21
ENDBRANCH  15  20
ENDBRANCH  12  15
ENDBRANCH  10  11
BRANCH  10  23
ATOM     23  CB  ASP A  4       -0.374  -7.529  -4.809  0.00  0.00    +0.152 C 
BRANCH  23  24
ATOM     24  CG  ASP A  4        0.997  -7.610  -4.190  0.00  0.00    +0.307 C 
ATOM     25  OD1 ASP A  4        1.539  -6.600  -3.774  0.00  0.00    -0.251 OA
BRANCH  24  26
ATOM     26  OD2 ASP A  4        1.565  -8.686  -4.104  0.00  0.00    -0.481 OA
ATOM     27  HD2 ASP A  4        1.148  -9.462  -4.424  0.00  0.00    +0.295 HD
ENDBRANCH  24  26
ENDBRANCH  23  24
ENDBRANCH  10  23
ENDBRANCH   7  10
ENDBRANCH   5   6
ENDBRANCH   2   5
BRANCH   1  28
ATOM     28  CA  ARG A  2       -1.729  -0.736   0.212  0.00  0.00    +0.159 C 
BRANCH  28  29
ATOM     29  N   ARG A  2       -2.485  -0.398   1.421  0.00  0.00    -0.306 N 
ATOM     30  H   ARG A  2       -3.261   0.180   1.361  0.00  0.00    +0.149 HD
ATOM     31  C   GLY A  1       -2.102  -0.891   2.615  0.00  0.00    +0.196 C 
ATOM     32  O   GLY A  1       -1.131  -1.614   2.689  0.00  0.00    -0.278 OA
BRANCH  31  33
ATOM     33  CA  GLY A  1       -2.880  -0.544   3.858  0.00  0.00    +0.011 C 
BRANCH  33  34
ATOM     34  N   GLY A  1       -2.265  -1.200   5.020  0.00  0.00    +0.384 N 
ATOM     35  H1  GLY A  1       -2.275  -2.200   4.885  0.00  0.00    -0.089 HD
ATOM     36  H2  GLY A  1       -2.786  -0.968   5.852  0.00  0.00    -0.089 HD
ATOM     37  H3  GLY A  1       -1.312  -0.884   5.120  0.00  0.00    -0.089 HD
ENDBRANCH  33  34
ENDBRANCH  31  33
ENDBRANCH  28  29
BRANCH  28  38
ATOM     38  CB  ARG A  2       -0.284  -0.256   0.364  0.00  0.00    +0.035 C 
BRANCH  38  39
ATOM     39  CG  ARG A  2       -0.260   1.272   0.443  0.00  0.00    +0.039 C 
BRANCH  39  40
ATOM     40  CD  ARG A  2        1.185   1.752   0.594  0.00  0.00    +0.196 C 
BRANCH  40  41
ATOM     41  NE  ARG A  2        1.208   3.215   0.670  0.00  0.00    -0.279 N 
ATOM     42  HE  ARG A  2        0.379   3.716   0.622  0.00  0.00    +0.258 HD
BRANCH  41  43
ATOM     43  CZ  ARG A  2        2.399   3.874   0.808  0.00  0.00    +0.341 C 
ATOM     44  NH1 ARG A  2        2.420   5.204   0.877  0.00  0.00    -0.292 N 
ATOM     45 HH11 ARG A  2        3.264   5.671   0.975  0.00  0.00    +0.255 HD
ATOM     46 HH12 ARG A  2        1.591   5.705   0.829  0.00  0.00    +0.255 HD
BRANCH  43  47
ATOM     47  NH2 ARG A  2        3.537   3.185   0.874  0.00  0.00    -0.292 N 
ATOM     48 HH21 ARG A  2        4.382   3.652   0.972  0.00  0.00    +0.255 HD
ATOM     49 HH22 ARG A  2        3.522   2.217   0.824  0.00  0.00    +0.255 HD
ENDBRANCH  43  47
ENDBRANCH  41  43
ENDBRANCH  40  41
ENDBRANCH  39  40
ENDBRANCH  38  39
ENDBRANCH  28  38
ENDBRANCH   1  28
TORSDOF 22
