REMARK  Name = ZINC13528595
REMARK                            x       y       z     vdW  Elec       q    Type
REMARK                         _______ _______ _______ _____ _____    ______ ____
ROOT
ATOM      1  N   LIG    1       -3.642   5.928  -0.040  0.00  0.00    -0.247 N 
ENDROOT
BRANCH   1   2
ATOM      2  N   LIG    1       -2.453   5.236   0.225  0.00  0.00    -0.190 NA
ATOM      3  C   LIG    1       -2.474   3.949   0.393  0.00  0.00    +0.157 C 
BRANCH   3   4
ATOM      4  C   LIG    1       -1.211   3.206   0.551  0.00  0.00    +0.083 A 
ATOM      5  C   LIG    1       -1.240   1.820   0.726  0.00  0.00    +0.029 A 
ATOM      6  C   LIG    1       -0.046   1.138   0.878  0.00  0.00    +0.004 A 
ATOM      7  C   LIG    1        1.140   1.859   0.841  0.00  0.00    +0.020 A 
ATOM      8  C   LIG    1        1.096   3.229   0.659  0.00  0.00    +0.111 A 
ATOM      9  N   LIG    1       -0.053   3.858   0.521  0.00  0.00    -0.254 NA
ENDBRANCH   3   4
ENDBRANCH   1   2
BRANCH   1  10
ATOM     10  C   LIG    1       -4.921   5.215  -0.031  0.00  0.00    +0.161 C 
BRANCH  10  14
ATOM     11  C   LIG    1       -6.637   5.411   3.876  0.00  0.00    +0.000 A 
ATOM     12  C   LIG    1       -6.925   6.391   2.944  0.00  0.00    +0.000 A 
ATOM     13  C   LIG    1       -6.370   6.327   1.680  0.00  0.00    +0.005 A 
ATOM     14  C   LIG    1       -5.527   5.284   1.347  0.00  0.00    -0.029 A 
ATOM     15  C   LIG    1       -5.243   4.301   2.277  0.00  0.00    +0.005 A 
ATOM     16  C   LIG    1       -5.794   4.367   3.543  0.00  0.00    +0.000 A 
ENDBRANCH  10  14
ENDBRANCH   1  10
BRANCH   1  17
ATOM     17  C   LIG    1       -3.606   7.365  -0.324  0.00  0.00    +0.161 C 
BRANCH  17  18
ATOM     18  C   LIG    1       -3.571   7.581  -1.815  0.00  0.00    -0.029 A 
ATOM     19  C   LIG    1       -2.359   7.661  -2.474  0.00  0.00    +0.005 A 
ATOM     20  C   LIG    1       -2.327   7.854  -3.842  0.00  0.00    +0.000 A 
ATOM     21  C   LIG    1       -3.508   7.978  -4.550  0.00  0.00    +0.000 A 
ATOM     22  C   LIG    1       -4.720   7.904  -3.890  0.00  0.00    +0.000 A 
ATOM     23  C   LIG    1       -4.752   7.705  -2.523  0.00  0.00    +0.005 A 
ENDBRANCH  17  18
ENDBRANCH   1  17
TORSDOF 6
