REMARK  Name = ZINC13473744
REMARK                            x       y       z     vdW  Elec       q    Type
REMARK                         _______ _______ _______ _____ _____    ______ ____
ROOT
ATOM      1  C   LIG    1        0.384   0.677  -1.030  0.00  0.00    +0.013 A 
ATOM      2  C   LIG    1        1.589   1.344  -1.082  0.00  0.00    +0.014 A 
ATOM      3  C   LIG    1        2.406   1.395   0.054  0.00  0.00    +0.047 A 
ATOM      4  C   LIG    1        1.990   0.766   1.233  0.00  0.00    +0.133 A 
ATOM      5  C   LIG    1        0.782   0.103   1.268  0.00  0.00    +0.045 A 
ATOM      6  C   LIG    1       -0.019   0.058   0.140  0.00  0.00    +0.057 A 
ENDROOT
BRANCH   3   7
ATOM      7  C   LIG    1        3.693   2.104   0.007  0.00  0.00    +0.140 C 
ATOM      8  C   LIG    1        4.891   1.388   0.114  0.00  0.00    +0.102 C 
ATOM      9  C   LIG    1        4.864  -0.026   0.101  0.00  0.00    +0.170 C 
ATOM     10  C   LIG    1        6.144  -0.813   0.212  0.00  0.00    +0.080 C 
ATOM     11  C   LIG    1        7.162  -0.015   1.030  0.00  0.00    +0.016 C 
ATOM     12  C   LIG    1        7.414   1.331   0.347  0.00  0.00    +0.080 C 
ATOM     13  O   LIG    1        3.804  -0.610  -0.000  0.00  0.00    -0.292 OA
ATOM     14  C   LIG    1        6.116   2.086   0.228  0.00  0.00    +0.170 C 
ATOM     15  O   LIG    1        6.121   3.300   0.235  0.00  0.00    -0.292 OA
BRANCH   7  16
ATOM     16  O   LIG    1        3.720   3.442  -0.137  0.00  0.00    -0.505 OA
ATOM     17  H   LIG    1        2.918   3.922  -0.209  0.00  0.00    +0.292 HD
ENDBRANCH   7  16
ENDBRANCH   3   7
BRANCH   6  18
ATOM     18  C   LIG    1       -1.339  -0.669   0.187  0.00  0.00    +0.417 C 
ATOM     19  F   LIG    1       -2.156  -0.089   1.163  0.00  0.00    -0.166 F 
ATOM     20  F   LIG    1       -1.119  -2.014   0.503  0.00  0.00    -0.166 F 
ATOM     21  F   LIG    1       -1.966  -0.579  -1.060  0.00  0.00    -0.166 F 
ENDBRANCH   6  18
BRANCH   4  22
ATOM     22  N   LIG    1        2.846   0.813   2.440  0.00  0.00    +0.007 N 
ATOM     23  O   LIG    1        2.544   0.174   3.421  0.00  0.00    -0.130 OA
BRANCH  22  24
ATOM     24  O   LIG    1        3.848   1.490   2.445  0.00  0.00    -0.396 OA
ATOM     25  H   LIG    1        4.083   1.984   1.684  0.00  0.00    +0.329 HD
ENDBRANCH  22  24
ENDBRANCH   4  22
TORSDOF 5
