REMARK  Name = ZINC13472721
REMARK                            x       y       z     vdW  Elec       q    Type
REMARK                         _______ _______ _______ _____ _____    ______ ____
ROOT
ATOM      1  C   LIG    1       -2.434   0.933   0.019  0.00  0.00    +0.064 C 
ATOM      2  C   LIG    1       -3.622   1.662   0.029  0.00  0.00    +0.094 C 
ATOM      3  N   LIG    1       -3.630   3.023   0.037  0.00  0.00    -0.289 NA
ATOM      4  H   LIG    1       -4.500   3.518   0.044  0.00  0.00    +0.125 HD
ATOM      5  C   LIG    1       -2.403   3.619   0.034  0.00  0.00    +0.192 C 
ATOM      6  N   LIG    1       -1.249   2.969   0.030  0.00  0.00    -0.273 NA
ATOM      7  H   LIG    1       -0.746   3.264   0.866  0.00  0.00    +0.126 HD
ATOM      8  C   LIG    1       -1.218   1.641   0.017  0.00  0.00    +0.130 C 
ENDROOT
BRANCH   1  15
ATOM      9  C   LIG    1       -1.693  -1.253  -0.924  0.00  0.00    +0.005 A 
ATOM     10  C   LIG    1       -1.709  -2.633  -0.924  0.00  0.00    +0.020 A 
ATOM     11  C   LIG    1       -2.484  -3.318  -0.005  0.00  0.00    +0.041 A 
ATOM     12 CL   LIG    1       -2.504  -5.054  -0.014  0.00  0.00    -0.084 Cl
ATOM     13  C   LIG    1       -3.243  -2.625   0.922  0.00  0.00    +0.020 A 
ATOM     14  C   LIG    1       -3.230  -1.245   0.934  0.00  0.00    +0.005 A 
ATOM     15  C   LIG    1       -2.451  -0.550   0.011  0.00  0.00    -0.040 A 
ENDBRANCH   1  15
BRANCH   5  16
ATOM     16  N   LIG    1       -2.394   5.003   0.042  0.00  0.00    -0.303 NA
ATOM     17  H   LIG    1       -1.551   5.482   0.041  0.00  0.00    +0.121 HD
ATOM     18  H   LIG    1       -3.231   5.493   0.049  0.00  0.00    +0.121 HD
ENDBRANCH   5  16
BRANCH   8  19
ATOM     19  N   LIG    1       -0.011   0.966   0.007  0.00  0.00    -0.315 NA
ATOM     20  H   LIG    1        0.822   1.462   0.002  0.00  0.00    +0.120 HD
ATOM     21  H   LIG    1        0.002  -0.004   0.002  0.00  0.00    +0.120 HD
ENDBRANCH   8  19
TORSDOF 3
