REMARK  Name = ZINC13476428
REMARK                            x       y       z     vdW  Elec       q    Type
REMARK                         _______ _______ _______ _____ _____    ______ ____
ROOT
ATOM      1  N   LIG    1       -0.675   1.545   3.712  0.00  0.00    -0.328 N 
ATOM      2  H   LIG    1       -1.472   2.092   3.633  0.00  0.00    +0.147 HD
ENDROOT
BRANCH   1   3
ATOM      3  C   LIG    1       -0.187   1.212   4.957  0.00  0.00    +0.130 A 
ATOM      4  C   LIG    1       -0.835   1.658   6.135  0.00  0.00    +0.040 A 
ATOM      5  C   LIG    1       -1.988   2.450   6.096  0.00  0.00    +0.013 A 
ATOM      6  C   LIG    1       -2.567   2.850   7.264  0.00  0.00    +0.001 A 
ATOM      7  C   LIG    1       -2.028   2.481   8.493  0.00  0.00    +0.002 A 
ATOM      8  C   LIG    1       -0.906   1.710   8.565  0.00  0.00    +0.028 A 
ATOM      9  C   LIG    1       -0.285   1.281   7.385  0.00  0.00    +0.076 A 
ATOM     10  N   LIG    1        0.821   0.522   7.399  0.00  0.00    -0.235 NA
ATOM     11  C   LIG    1        1.379   0.138   6.276  0.00  0.00    +0.223 A 
ATOM     12  N   LIG    1        0.898   0.460   5.086  0.00  0.00    -0.220 NA
ENDBRANCH   1   3
BRANCH   1  13
ATOM     13  C   LIG    1        0.011   1.072   2.506  0.00  0.00    +0.103 C 
BRANCH  13  14
ATOM     14  C   LIG    1       -0.729   1.579   1.267  0.00  0.00    +0.023 C 
BRANCH  14  15
ATOM     15  C   LIG    1       -0.013   1.086   0.008  0.00  0.00    +0.036 C 
BRANCH  15  19
ATOM     16  C   LIG    1       -2.079   2.501  -3.453  0.00  0.00    +0.000 A 
ATOM     17  C   LIG    1       -1.066   3.259  -2.894  0.00  0.00    +0.000 A 
ATOM     18  C   LIG    1       -0.398   2.801  -1.774  0.00  0.00    +0.003 A 
ATOM     19  C   LIG    1       -0.742   1.585  -1.213  0.00  0.00    -0.047 A 
ATOM     20  C   LIG    1       -1.750   0.825  -1.775  0.00  0.00    +0.003 A 
ATOM     21  C   LIG    1       -2.422   1.285  -2.892  0.00  0.00    +0.000 A 
ENDBRANCH  15  19
ENDBRANCH  14  15
ENDBRANCH  13  14
ENDBRANCH   1  13
TORSDOF 5
