REMARK  Name = ZINC13475024
REMARK                            x       y       z     vdW  Elec       q    Type
REMARK                         _______ _______ _______ _____ _____    ______ ____
ROOT
ATOM      1  C   LIG    1        2.531   1.110  -0.016  0.00  0.00    +0.043 A 
ATOM      2  C   LIG    1        2.710  -0.245  -0.019  0.00  0.00    +0.095 A 
ATOM      3  N   LIG    1        4.034  -0.530  -0.038  0.00  0.00    -0.360 N 
ATOM      4  C   LIG    1        4.778   0.632  -0.040  0.00  0.00    +0.047 A 
ATOM      5  C   LIG    1        6.145   0.886  -0.050  0.00  0.00    +0.027 A 
ATOM      6  C   LIG    1        6.604   2.186  -0.048  0.00  0.00    +0.022 A 
ATOM      7  C   LIG    1        5.713   3.250  -0.035  0.00  0.00    +0.042 A 
ATOM      8 CL   LIG    1        6.312   4.879  -0.031  0.00  0.00    -0.084 Cl
ATOM      9  C   LIG    1        4.354   3.018  -0.023  0.00  0.00    +0.030 A 
ATOM     10  H   LIG    1        4.406  -1.426  -0.046  0.00  0.00    +0.165 HD
ATOM     11  C   LIG    1        3.878   1.710  -0.026  0.00  0.00    +0.012 A 
ENDROOT
BRANCH   1  12
ATOM     12  C   LIG    1        1.249   1.827  -0.000  0.00  0.00    +0.173 C 
ATOM     13  O   LIG    1        1.232   3.045   0.007  0.00  0.00    -0.292 OA
BRANCH  12  14
ATOM     14  C   LIG    1       -0.013   1.076   0.008  0.00  0.00    +0.166 C 
BRANCH  14  15
ATOM     15  C   LIG    1       -1.193   1.736   0.017  0.00  0.00    +0.247 C 
ATOM     16  O   LIG    1       -1.211   3.090   0.025  0.00  0.00    -0.285 OA
BRANCH  15  17
ATOM     17  C   LIG    1       -2.464   0.979   0.019  0.00  0.00    +0.375 C 
ATOM     18  O   LIG    1       -2.448  -0.235   0.012  0.00  0.00    -0.242 OA
BRANCH  17  19
ATOM     19  O   LIG    1       -3.640   1.636   0.028  0.00  0.00    -0.459 OA
BRANCH  19  21
ATOM     20  C   LIG    1       -6.073   1.745   0.040  0.00  0.00    +0.048 C 
ATOM     21  C   LIG    1       -4.847   0.829   0.029  0.00  0.00    +0.229 C 
ENDBRANCH  19  21
ENDBRANCH  17  19
ENDBRANCH  15  17
ENDBRANCH  14  15
ENDBRANCH  12  14
ENDBRANCH   1  12
TORSDOF 6
