REMARK  Name = ZINC13472436
REMARK                            x       y       z     vdW  Elec       q    Type
REMARK                         _______ _______ _______ _____ _____    ______ ____
ROOT
ATOM      1  CA  LIG    1       -1.329   1.940   0.019  0.00  0.00    +0.049 C 
ENDROOT
BRANCH   1   2
ATOM      2  N   LIG    1       -2.438   0.967   0.010  0.00  0.00    +0.388 N 
ATOM      3  H1  LIG    1       -2.170   0.153  -0.555  0.00  0.00    -0.085 HD
ATOM      4  H2  LIG    1       -3.272   1.407  -0.397  0.00  0.00    -0.085 HD
BRANCH   2   6
ATOM      5  C   LIG    1       -3.894  -0.481   1.343  0.00  0.00    -0.017 C 
ATOM      6  C   ACE A  0       -2.743   0.525   1.384  0.00  0.00    -0.085 C 
ENDBRANCH   2   6
ENDBRANCH   1   2
BRANCH   1   7
ATOM      7  C   LIG    1       -0.014   1.204   0.009  0.00  0.00    +0.291 C 
ATOM      8  O   LIG    1        0.002  -0.004   0.002  0.00  0.00    -0.253 OA
BRANCH   7   9
ATOM      9  OXT LIG    1        1.139   1.891   0.001  0.00  0.00    -0.482 OA
ATOM     10  HXT LIG    1        1.126   2.828   0.006  0.00  0.00    +0.295 HD
ENDBRANCH   7   9
ENDBRANCH   1   7
BRANCH   1  11
ATOM     11  CB  LIG    1       -1.428   2.825  -1.225  0.00  0.00    +0.061 C 
BRANCH  11  12
ATOM     12  SG  LIG    1       -2.942   3.821  -1.140  0.00  0.00    -0.179 S 
ATOM     13  HG  LIG    1       -2.918   4.547  -2.272  0.00  0.00    +0.102 HD
ENDBRANCH  11  12
ENDBRANCH   1  11
TORSDOF 6
