REMARK  Name = ZINC13233998
REMARK                            x       y       z     vdW  Elec       q    Type
REMARK                         _______ _______ _______ _____ _____    ______ ____
ROOT
ATOM      1  C   LIG    1       -0.015   1.377   0.028  0.00  0.00    +0.002 A 
ATOM      2  C   LIG    1        1.171   2.091   0.021  0.00  0.00    +0.002 A 
ATOM      3  C   LIG    1        2.382   1.429   0.002  0.00  0.00    +0.028 A 
ATOM      4  C   LIG    1        2.412   0.042  -0.009  0.00  0.00    +0.065 A 
ATOM      5  C   LIG    1        1.215  -0.678  -0.002  0.00  0.00    +0.065 A 
ATOM      6  N   LIG    1        1.549  -2.030  -0.016  0.00  0.00    -0.326 N 
ATOM      7  C   LIG    1        2.906  -2.134  -0.032  0.00  0.00    +0.198 A 
ATOM      8  N   LIG    1        3.590  -3.270  -0.047  0.00  0.00    -0.160 NA
ATOM      9  H   LIG    1        0.921  -2.770  -0.016  0.00  0.00    +0.169 HD
ATOM     10  N   LIG    1        3.450  -0.885  -0.028  0.00  0.00    -0.326 N 
ATOM     11  H   LIG    1        4.397  -0.678  -0.036  0.00  0.00    +0.169 HD
ATOM     12  C   LIG    1        0.003  -0.003   0.016  0.00  0.00    +0.028 A 
ENDROOT
BRANCH   8  13
ATOM     13  C   LIG    1        4.923  -3.247  -0.161  0.00  0.00    +0.155 C 
ATOM     14  S   LIG    1        5.876  -2.552   1.081  0.00  0.00    -0.017 S 
BRANCH  13  15
ATOM     15  N   LIG    1        5.516  -3.771  -1.252  0.00  0.00    -0.339 N 
ATOM     16  H   LIG    1        6.482  -3.755  -1.334  0.00  0.00    +0.144 HD
ATOM     17  H   LIG    1        4.976  -4.165  -1.955  0.00  0.00    +0.144 HD
ENDBRANCH  13  15
ENDBRANCH   8  13
TORSDOF 2
