REMARK  Name = ZINC13437583
REMARK                            x       y       z     vdW  Elec       q    Type
REMARK                         _______ _______ _______ _____ _____    ______ ____
ROOT
ATOM      1  C   LIG    1        3.698  -0.688  -0.038  0.00  0.00    -0.013 C 
ATOM      2  C   LIG    1        4.532  -0.591   1.004  0.00  0.00    -0.018 C 
ENDROOT
BRANCH   1   6
ATOM      3  C   LIG    1       -0.017   1.379   0.010  0.00  0.00    +0.000 A 
ATOM      4  C   LIG    1        1.169   2.092   0.002  0.00  0.00    +0.001 A 
ATOM      5  C   LIG    1        2.377   1.427  -0.013  0.00  0.00    +0.008 A 
ATOM      6  C   LIG    1        2.402   0.033  -0.021  0.00  0.00    -0.018 A 
ATOM      7  C   LIG    1        1.205  -0.680  -0.013  0.00  0.00    +0.008 A 
ATOM      8  C   LIG    1        0.002  -0.004   0.002  0.00  0.00    +0.001 A 
ENDBRANCH   1   6
BRANCH   1   9
ATOM      9  C   LIG    1        4.070  -1.517  -1.210  0.00  0.00    +0.000 A 
ATOM     10  C   LIG    1        5.168  -1.172  -2.005  0.00  0.00    +0.011 A 
ATOM     11  C   LIG    1        5.474  -1.978  -3.087  0.00  0.00    +0.020 A 
ATOM     12  C   LIG    1        4.691  -3.089  -3.346  0.00  0.00    +0.111 A 
ATOM     13  N   LIG    1        3.662  -3.389  -2.579  0.00  0.00    -0.263 NA
ATOM     14  C   LIG    1        3.335  -2.655  -1.535  0.00  0.00    +0.119 A 
ENDBRANCH   1   9
BRANCH   2  15
ATOM     15  C   LIG    1        4.154   0.251   2.195  0.00  0.00    +0.028 C 
BRANCH  15  16
ATOM     16  C   LIG    1        4.225  -0.600   3.465  0.00  0.00    +0.005 C 
BRANCH  16  17
ATOM     17  C   LIG    1        3.841   0.255   4.674  0.00  0.00    +0.011 C 
BRANCH  17  18
ATOM     18  C   LIG    1        3.913  -0.596   5.944  0.00  0.00    +0.120 C 
BRANCH  18  19
ATOM     19  C   LIG    1        3.535   0.246   7.135  0.00  0.00    +0.305 C 
ATOM     20  O   LIG    1        3.236   1.418   6.983  0.00  0.00    -0.251 OA
BRANCH  19  21
ATOM     21  O   LIG    1        3.528  -0.245   8.251  0.00  0.00    -0.481 OA
ATOM     22  H   LIG    1        3.758  -1.146   8.368  0.00  0.00    +0.295 HD
ENDBRANCH  19  21
ENDBRANCH  18  19
ENDBRANCH  17  18
ENDBRANCH  16  17
ENDBRANCH  15  16
ENDBRANCH   2  15
TORSDOF 8
