REMARK  Name = ZINC13450403
REMARK                            x       y       z     vdW  Elec       q    Type
REMARK                         _______ _______ _______ _____ _____    ______ ____
ROOT
ATOM      1  C   LIG    1        1.087   1.785   2.984  0.00  0.00    +0.124 A 
ATOM      2  C   LIG    1        1.753   1.326   4.111  0.00  0.00    +0.061 A 
ATOM      3  C   LIG    1        1.339   0.161   4.730  0.00  0.00    +0.021 A 
ATOM      4 BR   LIG    1        2.251  -0.470   6.262  0.00  0.00    -0.050 Br
ATOM      5  C   LIG    1        0.258  -0.542   4.230  0.00  0.00    +0.016 A 
ATOM      6  C   LIG    1       -0.410  -0.084   3.110  0.00  0.00    +0.008 A 
ATOM      7  C   LIG    1        0.000   1.080   2.488  0.00  0.00    -0.007 A 
ENDROOT
BRANCH   1   9
ATOM      8  C   LIG    1        2.620   3.601   2.936  0.00  0.00    +0.277 C 
ATOM      9  O   LIG    1        1.495   2.927   2.370  0.00  0.00    -0.495 OA
ENDBRANCH   1   9
BRANCH   7  10
ATOM     10  C   LIG    1       -0.729   1.579   1.267  0.00  0.00    +0.019 C 
BRANCH  10  11
ATOM     11  C   LIG    1       -0.013   1.086   0.008  0.00  0.00    -0.082 C 
BRANCH  11  12
ATOM     12  N   LIG    1       -0.746   1.561  -1.179  0.00  0.00    +0.378 N 
ATOM     13  H   LIG    1       -1.694   1.168  -1.169  0.00  0.00    -0.090 HD
ATOM     14  H   LIG    1       -0.269   1.260  -2.027  0.00  0.00    -0.090 HD
ATOM     15  H   LIG    1       -0.807   2.578  -1.167  0.00  0.00    -0.090 HD
ENDBRANCH  11  12
ENDBRANCH  10  11
ENDBRANCH   7  10
TORSDOF 4
