REMARK  Name = ZINC13472728
REMARK                            x       y       z     vdW  Elec       q    Type
REMARK                         _______ _______ _______ _____ _____    ______ ____
ROOT
ATOM      1  C   LIG    1       -1.126   5.291   2.317  0.00  0.00    +0.025 C 
ATOM      2  C   LIG    1       -0.583   6.029   1.121  0.00  0.00    +0.063 C 
ATOM      3  N   LIG    1       -0.606   7.390   1.154  0.00  0.00    -0.286 NA
ATOM      4  H   LIG    1       -0.058   7.695   1.958  0.00  0.00    +0.125 HD
ATOM      5  C   LIG    1       -0.110   8.014   0.047  0.00  0.00    +0.193 C 
ATOM      6  N   LIG    1        0.381   7.390  -1.014  0.00  0.00    -0.273 NA
ATOM      7  H   LIG    1        0.408   6.391  -1.038  0.00  0.00    +0.126 HD
ATOM      8  C   LIG    1        0.419   6.063  -1.063  0.00  0.00    +0.130 C 
ATOM      9  C   LIG    1       -0.072   5.327   0.031  0.00  0.00    +0.067 C 
ENDROOT
BRANCH   9  10
ATOM     10  C   LIG    1       -0.050   3.845   0.023  0.00  0.00    -0.039 A 
ATOM     11  C   LIG    1       -1.246   3.128   0.030  0.00  0.00    +0.004 A 
ATOM     12  C   LIG    1       -1.221   1.749   0.017  0.00  0.00    +0.002 A 
ATOM     13  C   LIG    1       -0.013   1.076   0.008  0.00  0.00    +0.020 A 
ATOM     14  C   LIG    1        1.178   1.782   0.000  0.00  0.00    +0.041 A 
ATOM     15 CL   LIG    1        2.691   0.930  -0.018  0.00  0.00    -0.084 Cl
ATOM     16  C   LIG    1        1.165   3.163   0.008  0.00  0.00    +0.024 A 
ENDBRANCH   9  10
BRANCH   5  17
ATOM     17  N   LIG    1       -0.132   9.397   0.061  0.00  0.00    -0.303 NA
ATOM     18  H   LIG    1       -0.488   9.868   0.831  0.00  0.00    +0.121 HD
ATOM     19  H   LIG    1        0.209   9.895  -0.698  0.00  0.00    +0.121 HD
ENDBRANCH   5  17
BRANCH   8  20
ATOM     20  N   LIG    1        0.932   5.415  -2.173  0.00  0.00    -0.315 NA
ATOM     21  H   LIG    1        1.268   5.931  -2.923  0.00  0.00    +0.120 HD
ATOM     22  H   LIG    1        0.956   4.446  -2.200  0.00  0.00    +0.120 HD
ENDBRANCH   8  20
TORSDOF 3
