REMARK  Name = ZINC13140780
REMARK                            x       y       z     vdW  Elec       q    Type
REMARK                         _______ _______ _______ _____ _____    ______ ____
ROOT
ATOM      1  C   LIG    1        2.376   3.885   0.151  0.00  0.00    +0.018 C 
ATOM      2  C   LIG    1        2.365   5.234   0.057  0.00  0.00    +0.038 C 
ATOM      3  C   LIG    1        1.079   6.042   0.027  0.00  0.00    +0.268 C 
ATOM      4  O   LIG    1        1.168   7.066   1.018  0.00  0.00    -0.487 OA
ATOM      5  C   LIG    1        2.286   7.825   1.101  0.00  0.00    +0.132 A 
ATOM      6  C   LIG    1        2.208   9.088   1.677  0.00  0.00    +0.046 A 
ATOM      7  C   LIG    1        3.338   9.873   1.784  0.00  0.00    +0.004 A 
ATOM      8  C   LIG    1        4.562   9.417   1.322  0.00  0.00    +0.001 A 
ATOM      9  C   LIG    1        4.660   8.169   0.742  0.00  0.00    +0.015 A 
ATOM     10  C   LIG    1        3.523   7.373   0.625  0.00  0.00    +0.064 A 
ATOM     11  C   LIG    1        3.605   6.040  -0.018  0.00  0.00    +0.196 C 
ATOM     12  O   LIG    1        4.615   5.640  -0.568  0.00  0.00    -0.287 OA
ENDROOT
BRANCH   1  16
ATOM     13  C   LIG    1       -1.253   1.707  -0.115  0.00  0.00    +0.033 A 
ATOM     14  C   LIG    1       -0.222   1.240   0.694  0.00  0.00    +0.024 A 
ATOM     15  C   LIG    1        0.958   1.942   0.782  0.00  0.00    +0.010 A 
ATOM     16  C   LIG    1        1.118   3.132   0.060  0.00  0.00    -0.024 A 
ATOM     17  C   LIG    1        0.075   3.601  -0.748  0.00  0.00    +0.010 A 
ATOM     18  C   LIG    1       -1.101   2.892  -0.830  0.00  0.00    +0.024 A 
BRANCH  13  21
ATOM     19  C   LIG    1       -4.347   0.081  -1.501  0.00  0.00    +0.109 C 
ATOM     20  C   LIG    1       -3.116   0.941  -1.374  0.00  0.00    +0.214 C 
ATOM     21  N   LIG    1       -2.445   0.989  -0.206  0.00  0.00    -0.286 N 
ATOM     22  H   LIG    1       -2.791   0.523   0.572  0.00  0.00    +0.155 HD
ATOM     23  O   LIG    1       -2.729   1.590  -2.322  0.00  0.00    -0.276 OA
ENDBRANCH  13  21
ENDBRANCH   1  16
TORSDOF 2
