REMARK  Name = ZINC13531839
REMARK                            x       y       z     vdW  Elec       q    Type
REMARK                         _______ _______ _______ _____ _____    ______ ____
ROOT
ATOM      1  N   LIG    1        3.104   6.081  -0.239  0.00  0.00    -0.268 N 
ATOM      2  H   LIG    1        3.974   5.679  -0.386  0.00  0.00    +0.156 HD
ATOM      3  C   LIG    1        2.036   5.300   0.019  0.00  0.00    +0.308 C 
ATOM      4  N   LIG    1        2.155   3.958  -0.028  0.00  0.00    -0.268 N 
ATOM      5  H   LIG    1        3.026   3.553  -0.165  0.00  0.00    +0.156 HD
ATOM      6  O   LIG    1        0.965   5.805   0.294  0.00  0.00    -0.252 OA
ENDROOT
BRANCH   1  12
ATOM      7  C   LIG    1        1.846   9.473   0.421  0.00  0.00    +0.002 A 
ATOM      8  C   LIG    1        2.664  10.221  -0.406  0.00  0.00    +0.001 A 
ATOM      9  C   LIG    1        3.627   9.598  -1.178  0.00  0.00    +0.016 A 
ATOM     10  C   LIG    1        3.776   8.225  -1.125  0.00  0.00    +0.035 A 
ATOM     11  I   LIG    1        5.236   7.282  -2.295  0.00  0.00    -0.042 I 
ATOM     12  C   LIG    1        2.956   7.471  -0.295  0.00  0.00    +0.048 A 
ATOM     13  C   LIG    1        1.986   8.100   0.475  0.00  0.00    +0.024 A 
ENDBRANCH   1  12
BRANCH   4  14
ATOM     14  C   LIG    1        1.029   3.153   0.119  0.00  0.00    +0.050 A 
ATOM     15  C   LIG    1        0.064   3.470   1.066  0.00  0.00    +0.044 A 
ATOM     16  C   LIG    1       -1.053   2.670   1.210  0.00  0.00    +0.043 A 
ATOM     17 CL   LIG    1       -2.255   3.073   2.396  0.00  0.00    -0.083 Cl
ATOM     18  C   LIG    1       -1.223   1.550   0.408  0.00  0.00    +0.021 A 
ATOM     19  C   LIG    1       -0.273   1.218  -0.532  0.00  0.00    +0.018 A 
ATOM     20  C   LIG    1        0.863   2.018  -0.689  0.00  0.00    +0.080 A 
BRANCH  20  21
ATOM     21  C   LIG    1        1.879   1.671  -1.698  0.00  0.00    +0.339 C 
ATOM     22  O   LIG    1        2.842   2.393  -1.863  0.00  0.00    -0.245 OA
BRANCH  21  23
ATOM     23  O   LIG    1        1.740   0.552  -2.437  0.00  0.00    -0.477 OA
ATOM     24  H   LIG    1        0.998  -0.005  -2.309  0.00  0.00    +0.295 HD
ENDBRANCH  21  23
ENDBRANCH  20  21
ENDBRANCH   4  14
TORSDOF 4
