REMARK  Name = ZINC13361338
REMARK                            x       y       z     vdW  Elec       q    Type
REMARK                         _______ _______ _______ _____ _____    ______ ____
ROOT
ATOM      1  C   LIG    1        6.770   1.895  -0.059  0.00  0.00    +0.155 C 
ATOM      2  N   LIG    1        6.019   0.637  -0.061  0.00  0.00    -0.280 N 
ATOM      3  C   LIG    1        4.644   0.668  -0.039  0.00  0.00    +0.168 A 
ATOM      4  C   LIG    1        3.939  -0.532  -0.048  0.00  0.00    +0.149 A 
ATOM      5  N   LIG    1        2.620  -0.232  -0.025  0.00  0.00    -0.332 N 
ATOM      6  H   LIG    1        1.874  -0.897  -0.017  0.00  0.00    +0.168 HD
ATOM      7  C   LIG    1        2.478   1.072  -0.016  0.00  0.00    +0.141 A 
ATOM      8  C   LIG    1        4.700  -1.783  -0.069  0.00  0.00    +0.282 A 
ATOM      9  N   LIG    1        6.049  -1.717  -0.083  0.00  0.00    -0.262 N 
ATOM     10  C   LIG    1        6.832  -2.954  -0.104  0.00  0.00    +0.157 C 
ATOM     11  O   LIG    1        4.130  -2.858  -0.072  0.00  0.00    -0.265 OA
ATOM     12  N   LIG    1        3.717   1.663  -0.025  0.00  0.00    -0.210 NA
ATOM     13  C   LIG    1        6.682  -0.532  -0.080  0.00  0.00    +0.333 A 
ATOM     14  O   LIG    1        7.898  -0.517  -0.093  0.00  0.00    -0.246 OA
ENDROOT
BRANCH   7  15
ATOM     15  C   LIG    1        1.187   1.791   0.000  0.00  0.00    +0.017 A 
ATOM     16  C   LIG    1       -0.013   1.076   0.008  0.00  0.00    +0.012 A 
ATOM     17  C   LIG    1       -1.214   1.749   0.017  0.00  0.00    +0.015 A 
ATOM     18  C   LIG    1       -1.234   3.140   0.031  0.00  0.00    +0.008 A 
ATOM     19  C   LIG    1       -0.040   3.855   0.023  0.00  0.00    +0.015 A 
ATOM     20  C   LIG    1        1.164   3.188   0.008  0.00  0.00    +0.012 A 
BRANCH  18  21
ATOM     21  S   LIG    1       -2.773   3.998   0.051  0.00  0.00    -0.129 S 
ATOM     22  C   LIG    1       -4.013   2.674   0.056  0.00  0.00    +0.090 C 
ENDBRANCH  18  21
ENDBRANCH   7  15
TORSDOF 2
