REMARK  Name = ZINC13161743
REMARK                            x       y       z     vdW  Elec       q    Type
REMARK                         _______ _______ _______ _____ _____    ______ ____
ROOT
ATOM      1  C   LIG    1       -0.510   6.270   1.382  0.00  0.00    +0.071 C 
ATOM      2  C   LIG    1       -1.631   6.998   1.172  0.00  0.00    +0.188 C 
ATOM      3  C   LIG    1       -1.966   6.969  -0.268  0.00  0.00    +0.283 C 
ATOM      4  N   LIG    1       -1.060   6.231  -0.935  0.00  0.00    -0.280 N 
ATOM      5  O   LIG    1       -2.918   7.529  -0.774  0.00  0.00    -0.267 OA
ATOM      6  C   LIG    1       -0.078   5.735   0.037  0.00  0.00    +0.145 C 
ENDROOT
BRANCH   6   7
ATOM      7  C   LIG    1       -0.082   4.228   0.054  0.00  0.00    -0.022 A 
ATOM      8  C   LIG    1        1.111   3.533  -0.013  0.00  0.00    +0.006 A 
ATOM      9  C   LIG    1        1.108   2.151   0.002  0.00  0.00    +0.004 A 
ATOM     10  C   LIG    1       -0.088   1.464   0.084  0.00  0.00    -0.045 A 
ATOM     11  C   LIG    1       -1.282   2.158   0.146  0.00  0.00    +0.004 A 
ATOM     12  C   LIG    1       -1.278   3.541   0.136  0.00  0.00    +0.006 A 
BRANCH  10  13
ATOM     13  C   LIG    1       -0.091  -0.043   0.100  0.00  0.00    +0.013 C 
ATOM     14  C   LIG    1       -0.890  -0.564  -1.096  0.00  0.00    +0.012 C 
ATOM     15  C   LIG    1       -0.735  -0.538   1.397  0.00  0.00    +0.012 C 
ENDBRANCH  10  13
ENDBRANCH   6   7
BRANCH   1  16
ATOM     16  C   LIG    1        0.157   6.044   2.668  0.00  0.00    +0.195 C 
ATOM     17  O   LIG    1       -0.401   5.402   3.538  0.00  0.00    -0.287 OA
BRANCH  16  22
ATOM     18  C   LIG    1        5.415   8.190   3.599  0.00  0.00    +0.044 C 
ATOM     19  C   LIG    1        4.038   7.628   3.356  0.00  0.00    -0.050 A 
ATOM     20  C   LIG    1        3.454   6.804   4.301  0.00  0.00    +0.004 A 
ATOM     21  C   LIG    1        2.194   6.286   4.084  0.00  0.00    +0.012 A 
ATOM     22  C   LIG    1        1.508   6.595   2.907  0.00  0.00    +0.022 A 
ATOM     23  C   LIG    1        2.107   7.423   1.955  0.00  0.00    +0.012 A 
ATOM     24  C   LIG    1        3.365   7.939   2.187  0.00  0.00    +0.004 A 
ENDBRANCH  16  22
ENDBRANCH   1  16
BRANCH   2  25
ATOM     25  O   LIG    1       -2.334   7.649   2.127  0.00  0.00    -0.502 OA
ATOM     26  H   LIG    1       -2.052   7.617   3.020  0.00  0.00    +0.292 HD
ENDBRANCH   2  25
BRANCH   4  27
ATOM     27  C   LIG    1       -1.054   5.970  -2.376  0.00  0.00    +0.136 C 
BRANCH  27  28
ATOM     28  C   LIG    1       -1.844   4.719  -2.663  0.00  0.00    -0.016 C 
ATOM     29  C   LIG    1       -2.835   4.752  -3.519  0.00  0.00    +0.005 C 
ENDBRANCH  27  28
ENDBRANCH   4  27
TORSDOF 7
