REMARK  Name = ZINC13518991
REMARK                            x       y       z     vdW  Elec       q    Type
REMARK                         _______ _______ _______ _____ _____    ______ ____
ROOT
ATOM      1  C   LIG    1        1.317   0.779  -0.006  0.00  0.00    +0.023 C 
ATOM      2  C   LIG    1       -0.019   1.526   0.010  0.00  0.00    -0.008 C 
ATOM      3  C   LIG    1        0.002  -0.004   0.002  0.00  0.00    -0.066 C 
ENDROOT
BRANCH   1   5
ATOM      4  C   LIG    1        1.972   1.622   2.302  0.00  0.00    +0.107 A 
ATOM      5  C   LIG    1        2.132   0.783   1.261  0.00  0.00    +0.060 A 
ATOM      6  N   LIG    1        3.148  -0.044   1.547  0.00  0.00    -0.241 NA
ATOM      7  C   LIG    1        3.620   0.246   2.728  0.00  0.00    +0.196 A 
ATOM      8  N   LIG    1        2.912   1.278   3.236  0.00  0.00    -0.351 N 
ATOM      9  H   LIG    1        3.049   1.710   4.127  0.00  0.00    +0.166 HD
ENDBRANCH   1   5
BRANCH   3  10
ATOM     10  N   LIG    1       -0.373  -0.697  -1.243  0.00  0.00    +0.380 N 
ATOM     11  H   LIG    1        0.344  -1.397  -1.469  0.00  0.00    -0.090 HD
ATOM     12  H   LIG    1       -0.437  -0.029  -2.009  0.00  0.00    -0.090 HD
ATOM     13  H   LIG    1       -1.270  -1.165  -1.126  0.00  0.00    -0.090 HD
ENDBRANCH   3  10
TORSDOF 2
