REMARK  Name = ZINC13529957
REMARK                            x       y       z     vdW  Elec       q    Type
REMARK                         _______ _______ _______ _____ _____    ______ ____
ROOT
ATOM      1  C   LIG    1       -0.787   2.893   1.346  0.00  0.00    +0.121 A 
ATOM      2  C   LIG    1       -0.245   3.741   0.382  0.00  0.00    +0.047 A 
ATOM      3  C   LIG    1       -0.355   5.107   0.541  0.00  0.00    +0.019 A 
ATOM      4  C   LIG    1       -0.989   5.617   1.655  0.00  0.00    +0.020 A 
ATOM      5  C   LIG    1       -1.546   4.787   2.656  0.00  0.00    -0.007 A 
ATOM      6  C   LIG    1       -2.158   5.462   3.727  0.00  0.00    +0.031 A 
ATOM      7  C   LIG    1       -2.183   6.822   3.747  0.00  0.00    +0.097 A 
ATOM      8  S   LIG    1       -1.335   7.258   2.238  0.00  0.00    -0.082 S 
ATOM      9  C   LIG    1       -1.421   3.387   2.458  0.00  0.00    +0.054 A 
ENDROOT
BRANCH   1  11
ATOM     10  C   LIG    1       -0.013   1.086   0.008  0.00  0.00    +0.277 C 
ATOM     11  O   LIG    1       -0.682   1.547   1.184  0.00  0.00    -0.495 OA
ENDBRANCH   1  11
BRANCH   7  12
ATOM     12  C   LIG    1       -2.764   7.712   4.759  0.00  0.00    +0.344 C 
ATOM     13  O   LIG    1       -3.313   7.243   5.738  0.00  0.00    -0.245 OA
BRANCH  12  14
ATOM     14  O   LIG    1       -2.690   9.049   4.604  0.00  0.00    -0.477 OA
ATOM     15  H   LIG    1       -2.267   9.411   3.850  0.00  0.00    +0.295 HD
ENDBRANCH  12  14
ENDBRANCH   7  12
TORSDOF 3
