REMARK  Name = ZINC13108134
REMARK                            x       y       z     vdW  Elec       q    Type
REMARK                         _______ _______ _______ _____ _____    ______ ____
ROOT
ATOM      1  C   LIG    1        1.721   3.205   0.006  0.00  0.00    +0.040 C 
ATOM      2  C   LIG    1        1.776   3.724   1.445  0.00  0.00    +0.028 C 
ATOM      3  C   LIG    1        2.276   5.172   1.443  0.00  0.00    +0.107 C 
ATOM      4  N   LIG    1        1.423   5.965   0.548  0.00  0.00    -0.313 N 
ATOM      5  C   LIG    1        1.227   5.505  -0.834  0.00  0.00    +0.107 C 
ATOM      6  C   LIG    1        0.739   4.054  -0.806  0.00  0.00    +0.028 C 
ENDROOT
BRANCH   1   8
ATOM      7  C   LIG    1       -0.012   1.334   0.022  0.00  0.00    +0.133 A 
ATOM      8  C   LIG    1        1.262   1.770   0.007  0.00  0.00    +0.039 A 
ATOM      9  N   LIG    1        2.060   0.658  -0.007  0.00  0.00    -0.348 N 
ATOM     10  C   LIG    1        1.246  -0.419  -0.001  0.00  0.00    +0.196 A 
ATOM     11  H   LIG    1        3.030   0.646  -0.019  0.00  0.00    +0.166 HD
ATOM     12  N   LIG    1        0.007  -0.007   0.017  0.00  0.00    -0.244 NA
ENDBRANCH   1   8
BRANCH   4  13
ATOM     13  C   LIG    1        0.829   7.093   0.987  0.00  0.00    +0.133 C 
ATOM     14  S   LIG    1        0.958   7.543   2.634  0.00  0.00    -0.019 S 
BRANCH  13  15
ATOM     15  N   LIG    1        0.135   7.867   0.129  0.00  0.00    -0.324 N 
ATOM     16  H   LIG    1        0.001   7.577  -0.787  0.00  0.00    +0.148 HD
BRANCH  15  17
ATOM     17  C   LIG    1       -0.416   9.147   0.579  0.00  0.00    +0.072 C 
ATOM     18  C   LIG    1        0.655  10.234   0.463  0.00  0.00    +0.022 C 
ATOM     19  C   LIG    1        0.078  11.571   0.933  0.00  0.00    +0.002 C 
ATOM     20  C   LIG    1       -1.123  11.943   0.062  0.00  0.00    +0.000 C 
ATOM     21  C   LIG    1       -2.194  10.857   0.178  0.00  0.00    +0.002 C 
ATOM     22  C   LIG    1       -1.617   9.520  -0.292  0.00  0.00    +0.022 C 
ENDBRANCH  15  17
ENDBRANCH  13  15
ENDBRANCH   4  13
TORSDOF 4
