REMARK  Name = ZINC13441190
REMARK                            x       y       z     vdW  Elec       q    Type
REMARK                         _______ _______ _______ _____ _____    ______ ____
ROOT
ATOM      1  C   UNK A  0       -1.187  -3.516  -0.008  0.00  0.00    +0.064 C 
ATOM      2  C   UNK A  0       -0.422  -2.217  -0.007  0.00  0.00    +0.028 A 
ATOM      3  C   UNK A  0        0.914  -2.110  -0.018  0.00  0.00    -0.010 A 
ATOM      4  C   UNK A  0        1.234  -0.678  -0.012  0.00  0.00    +0.008 A 
ATOM      5  C   UNK A  0        2.426   0.046  -0.019  0.00  0.00    +0.056 A 
ATOM      6  C   UNK A  0        2.387   1.427  -0.009  0.00  0.00    +0.121 A 
ATOM      7  C   UNK A  0        1.165   2.093   0.008  0.00  0.00    +0.048 A 
ATOM      8  C   UNK A  0       -0.018   1.387   0.014  0.00  0.00    +0.030 A 
ATOM      9  C   UNK A  0        0.002  -0.002   0.004  0.00  0.00    +0.057 A 
ATOM     10  N   UNK A  0       -0.992  -0.967   0.007  0.00  0.00    -0.280 N 
ATOM     11  C   UNK A  0       -2.316  -0.717   0.021  0.00  0.00    +0.263 C 
ATOM     12  O   UNK A  0       -2.920  -0.700   1.075  0.00  0.00    -0.267 OA
ENDROOT
BRANCH  11  13
ATOM     13  C   UNK A  0       -3.033  -0.464  -1.245  0.00  0.00    +0.040 A 
ATOM     14  C   UNK A  0       -2.364  -0.580  -2.465  0.00  0.00    +0.015 A 
ATOM     15  C   UNK A  0       -3.040  -0.348  -3.644  0.00  0.00    +0.021 A 
ATOM     16  C   UNK A  0       -4.378   0.011  -3.619  0.00  0.00    +0.041 A 
ATOM     17 CL   UNK A  0       -5.221   0.308  -5.107  0.00  0.00    -0.084 Cl
ATOM     18  C   UNK A  0       -5.046   0.134  -2.411  0.00  0.00    +0.021 A 
ATOM     19  C   UNK A  0       -4.382  -0.101  -1.226  0.00  0.00    +0.015 A 
ENDBRANCH  11  13
BRANCH   6  20
ATOM     20  O   UNK A  0        3.546   2.138  -0.015  0.00  0.00    -0.495 OA
ATOM     21  C   UNK A  0        3.433   3.562  -0.005  0.00  0.00    +0.277 C 
ENDBRANCH   6  20
BRANCH   3  22
ATOM     22  C   UNK A  0        1.902  -3.247  -0.035  0.00  0.00    +0.133 C 
BRANCH  22  23
ATOM     23  C   UNK A  0        2.219  -3.617  -1.461  0.00  0.00    +0.218 C 
ATOM     24  N   ALA A  1        3.086  -4.616  -1.722  0.00  0.00    -0.310 N 
ATOM     25  H   ALA A  1        3.506  -5.096  -0.991  0.00  0.00    +0.149 HD
ATOM     26  O   UNK A  0        1.694  -3.016  -2.374  0.00  0.00    -0.275 OA
BRANCH  24  27
ATOM     27  CA  ALA A  1        3.393  -4.975  -3.108  0.00  0.00    +0.095 C 
ATOM     28  CB  ALA A  1        2.338  -5.953  -3.627  0.00  0.00    +0.030 C 
BRANCH  27  29
ATOM     29  C   ALA A  1        4.773  -5.634  -3.170  0.00  0.00    +0.177 C 
BRANCH  29  30
ATOM     30  O   ALA A  1        4.743  -6.871  -2.456  0.00  0.00    -0.393 OA
ATOM     31  H   ALA A  1        5.586  -7.345  -2.453  0.00  0.00    +0.209 HD
ENDBRANCH  29  30
ENDBRANCH  27  29
ENDBRANCH  24  27
ENDBRANCH  22  23
ENDBRANCH   3  22
TORSDOF 7
