REMARK  Name = ZINC13284968
REMARK                            x       y       z     vdW  Elec       q    Type
REMARK                         _______ _______ _______ _____ _____    ______ ____
ROOT
ATOM      1  C   LIG    1       -3.062   2.950  -2.237  0.00  0.00    +0.066 C 
ATOM      2  C   LIG    1       -3.407   3.786  -1.031  0.00  0.00    +0.053 A 
ATOM      3  C   LIG    1       -2.526   3.870   0.045  0.00  0.00    +0.043 A 
ATOM      4  C   LIG    1       -2.897   4.660   1.149  0.00  0.00    +0.129 A 
ATOM      5  N   LIG    1       -4.061   5.300   1.118  0.00  0.00    -0.199 NA
ATOM      6  C   LIG    1       -4.867   5.189   0.073  0.00  0.00    +0.214 A 
ATOM      7  N   LIG    1       -4.551   4.450  -0.981  0.00  0.00    -0.219 NA
ENDROOT
BRANCH   3   8
ATOM      8  C   LIG    1       -1.235   3.142   0.030  0.00  0.00    -0.013 A 
ATOM      9  C   LIG    1       -1.218   1.748   0.017  0.00  0.00    +0.008 A 
ATOM     10  C   LIG    1       -0.013   1.076   0.008  0.00  0.00    +0.001 A 
ATOM     11  C   LIG    1        1.177   1.782   0.000  0.00  0.00    +0.000 A 
ATOM     12  C   LIG    1        1.166   3.166   0.007  0.00  0.00    +0.001 A 
ATOM     13  C   LIG    1       -0.034   3.849   0.022  0.00  0.00    +0.008 A 
ENDBRANCH   3   8
BRANCH   4  14
ATOM     14  N   LIG    1       -2.062   4.772   2.246  0.00  0.00    -0.343 N 
ATOM     15  H   LIG    1       -2.325   5.319   3.003  0.00  0.00    +0.144 HD
ATOM     16  H   LIG    1       -1.212   4.305   2.258  0.00  0.00    +0.144 HD
ENDBRANCH   4  14
BRANCH   6  17
ATOM     17  N   LIG    1       -6.073   5.866   0.081  0.00  0.00    -0.327 N 
ATOM     18  H   LIG    1       -6.318   6.411   0.845  0.00  0.00    +0.145 HD
ATOM     19  H   LIG    1       -6.674   5.796  -0.678  0.00  0.00    +0.145 HD
ENDBRANCH   6  17
TORSDOF 3
