REMARK  Name = ZINC13476439
REMARK                            x       y       z     vdW  Elec       q    Type
REMARK                         _______ _______ _______ _____ _____    ______ ____
ROOT
ATOM      1  N   LEU A  1       -2.770   3.403  -4.424  0.00  0.00    -0.302 N 
ATOM      2  H   LEU A  1       -3.054   2.641  -4.952  0.00  0.00    +0.150 HD
ATOM      3  C   LEU A  1       -2.572   4.598  -5.017  0.00  0.00    +0.234 C 
ATOM      4  O   LEU A  1       -2.130   5.527  -4.375  0.00  0.00    -0.274 OA
ENDROOT
BRANCH   1   5
ATOM      5  CA  LEU A  1       -2.556   3.257  -2.982  0.00  0.00    +0.159 C 
BRANCH   5   8
ATOM      6  N   LEU A  1       -1.659   1.525  -1.460  0.00  0.00    -0.304 N 
ATOM      7  H   LEU A  1       -1.526   2.221  -0.797  0.00  0.00    +0.149 HD
ATOM      8  C   LEU A  1       -2.149   1.838  -2.676  0.00  0.00    +0.234 C 
ATOM      9  O   LEU A  1       -2.263   0.979  -3.524  0.00  0.00    -0.274 OA
BRANCH   6  10
ATOM     10  CA  LEU A  1       -1.327   0.135  -1.140  0.00  0.00    +0.136 C 
BRANCH  10  11
ATOM     11  C   LEU A  1       -2.566  -0.581  -0.665  0.00  0.00    +0.245 C 
ATOM     12  O   LEU A  1       -3.617   0.011  -0.601  0.00  0.00    -0.299 OA
ENDBRANCH  10  11
BRANCH  10  13
ATOM     13  CB  LEU A  1       -0.267   0.104  -0.038  0.00  0.00    +0.032 C 
BRANCH  13  15
ATOM     14  CD1 LEU A  1        2.034   0.848   0.591  0.00  0.00    +0.007 C 
ATOM     15  CG  LEU A  1        1.021   0.752  -0.551  0.00  0.00    -0.015 C 
ATOM     16  CD2 LEU A  1        1.605  -0.100  -1.680  0.00  0.00    +0.007 C 
ENDBRANCH  13  15
ENDBRANCH  10  13
ENDBRANCH   6  10
ENDBRANCH   5   8
BRANCH   5  17
ATOM     17  CB  LEU A  1       -3.851   3.588  -2.238  0.00  0.00    +0.034 C 
BRANCH  17  18
ATOM     18  CG  LEU A  1       -3.615   3.480  -0.730  0.00  0.00    -0.015 C 
ATOM     19  CD2 LEU A  1       -4.943   3.658   0.008  0.00  0.00    +0.007 C 
ATOM     20  CD1 LEU A  1       -2.636   4.570  -0.288  0.00  0.00    +0.007 C 
ENDBRANCH  17  18
ENDBRANCH   5  17
ENDBRANCH   1   5
BRANCH   3  21
ATOM     21  CA  LEU A  1       -2.899   4.777  -6.477  0.00  0.00    +0.162 C 
BRANCH  21  22
ATOM     22  N   LEU A  1       -2.598   6.154  -6.879  0.00  0.00    -0.270 N 
ATOM     23  H   LEU A  1       -1.937   6.668  -6.389  0.00  0.00    +0.153 HD
ATOM     24  C   UNK A  0       -3.239   6.705  -7.928  0.00  0.00    +0.401 C 
ATOM     25  O   UNK A  0       -4.067   6.061  -8.541  0.00  0.00    -0.226 OA
BRANCH  24  26
ATOM     26  O   UNK A  0       -2.961   7.970  -8.298  0.00  0.00    -0.446 OA
BRANCH  26  27
ATOM     27  C   UNK A  0       -3.678   8.490  -9.419  0.00  0.00    +0.269 C 
BRANCH  27  28
ATOM     28  C   UNK A  0       -3.239   9.907  -9.683  0.00  0.00    -0.010 A 
ATOM     29  C   UNK A  0       -3.890  10.959  -9.065  0.00  0.00    +0.007 A 
ATOM     30  C   UNK A  0       -3.487  12.258  -9.307  0.00  0.00    +0.000 A 
ATOM     31  C   UNK A  0       -2.433  12.507 -10.166  0.00  0.00    +0.000 A 
ATOM     32  C   UNK A  0       -1.781  11.455 -10.783  0.00  0.00    +0.000 A 
ATOM     33  C   UNK A  0       -2.181  10.155 -10.538  0.00  0.00    +0.007 A 
ENDBRANCH  27  28
ENDBRANCH  26  27
ENDBRANCH  24  26
ENDBRANCH  21  22
BRANCH  21  34
ATOM     34  CB  LEU A  1       -2.061   3.807  -7.311  0.00  0.00    +0.035 C 
BRANCH  34  35
ATOM     35  CG  LEU A  1       -2.481   3.901  -8.779  0.00  0.00    -0.015 C 
ATOM     36  CD2 LEU A  1       -3.925   3.419  -8.927  0.00  0.00    +0.007 C 
ATOM     37  CD1 LEU A  1       -1.561   3.025  -9.630  0.00  0.00    +0.007 C 
ENDBRANCH  34  35
ENDBRANCH  21  34
ENDBRANCH   3  21
TORSDOF 15
