REMARK  Name = ZINC13517187
REMARK                            x       y       z     vdW  Elec       q    Type
REMARK                         _______ _______ _______ _____ _____    ______ ____
ROOT
ATOM      1  C   LIG    1       -0.016   1.304   0.009  0.00  0.00    +0.199 A 
ATOM      2  N   LIG    1        1.246   1.776  -0.000  0.00  0.00    -0.339 N 
ATOM      3  C   LIG    1        2.086   0.681  -0.014  0.00  0.00    +0.148 A 
ATOM      4  C   LIG    1        1.264  -0.439  -0.012  0.00  0.00    +0.165 A 
ATOM      5  N   LIG    1        1.847  -1.696  -0.025  0.00  0.00    -0.291 N 
ATOM      6  C   LIG    1        3.188  -1.819  -0.039  0.00  0.00    +0.328 A 
ATOM      7  N   LIG    1        3.995  -0.744  -0.042  0.00  0.00    -0.273 N 
ATOM      8  H   LIG    1        4.957  -0.869  -0.052  0.00  0.00    +0.173 HD
ATOM      9  O   LIG    1        3.681  -2.930  -0.051  0.00  0.00    -0.247 OA
ATOM     10  H   LIG    1        1.288  -2.489  -0.024  0.00  0.00    +0.172 HD
ATOM     11  C   LIG    1        3.487   0.506  -0.029  0.00  0.00    +0.280 A 
ATOM     12  O   LIG    1        4.228   1.472  -0.031  0.00  0.00    -0.265 OA
ATOM     13  H   LIG    1        1.514   2.708   0.002  0.00  0.00    +0.167 HD
ATOM     14  N   LIG    1        0.002  -0.004   0.002  0.00  0.00    -0.218 NA
ENDROOT
TORSDOF 0
