REMARK  Name = ZINC13214608
REMARK                            x       y       z     vdW  Elec       q    Type
REMARK                         _______ _______ _______ _____ _____    ______ ____
ROOT
ATOM      1  C   LIG    1        2.064   0.788  -0.013  0.00  0.00    +0.178 A 
ATOM      2  N   LIG    1        1.260   1.823  -0.000  0.00  0.00    -0.225 NA
ATOM      3  C   LIG    1       -0.017   1.406   0.010  0.00  0.00    +0.090 A 
ATOM      4  C   LIG    1       -1.249   2.076   0.030  0.00  0.00    +0.030 A 
ATOM      5  C   LIG    1       -2.411   1.362   0.033  0.00  0.00    +0.002 A 
ATOM      6  C   LIG    1       -2.391  -0.028   0.025  0.00  0.00    +0.002 A 
ATOM      7  C   LIG    1       -1.195  -0.711   0.010  0.00  0.00    +0.028 A 
ATOM      8  C   LIG    1        0.002  -0.004   0.002  0.00  0.00    +0.070 A 
ATOM      9  N   LIG    1        1.327  -0.370  -0.013  0.00  0.00    -0.314 N 
ENDROOT
BRANCH   1  11
ATOM     10  C   LIG    1        4.226   2.196  -0.026  0.00  0.00    +0.095 C 
ATOM     11  C   LIG    1        3.534   0.857  -0.027  0.00  0.00    +0.195 C 
ATOM     12  O   LIG    1        4.189  -0.164  -0.038  0.00  0.00    -0.289 OA
ENDBRANCH   1  11
BRANCH   9  13
ATOM     13  C   LIG    1        1.853  -1.737  -0.025  0.00  0.00    +0.203 C 
BRANCH  13  14
ATOM     14  C   LIG    1        2.020  -2.199  -1.449  0.00  0.00    +0.183 C 
ATOM     15  O   LIG    1        1.728  -1.459  -2.365  0.00  0.00    -0.290 OA
BRANCH  14  16
ATOM     16  C   LIG    1        2.537  -3.547  -1.730  0.00  0.00    +0.019 A 
ATOM     17  C   LIG    1        2.880  -4.402  -0.677  0.00  0.00    +0.013 A 
ATOM     18  C   LIG    1        3.358  -5.666  -0.947  0.00  0.00    +0.020 A 
ATOM     19  C   LIG    1        3.510  -6.087  -2.258  0.00  0.00    +0.041 A 
ATOM     20 CL   LIG    1        4.120  -7.678  -2.589  0.00  0.00    -0.084 Cl
ATOM     21  C   LIG    1        3.178  -5.244  -3.307  0.00  0.00    +0.020 A 
ATOM     22  C   LIG    1        2.693  -3.979  -3.051  0.00  0.00    +0.013 A 
ENDBRANCH  14  16
ENDBRANCH  13  14
ENDBRANCH   9  13
TORSDOF 4
