REMARK  Name = ZINC13554113
REMARK                            x       y       z     vdW  Elec       q    Type
REMARK                         _______ _______ _______ _____ _____    ______ ____
ROOT
ATOM      1  C   LIG    1        3.039   5.024   0.001  0.00  0.00    +0.059 C 
ATOM      2  C   LIG    1        3.582   5.722  -1.072  0.00  0.00    +0.059 C 
ATOM      3  C   LIG    1        3.910   7.069  -0.560  0.00  0.00    +0.252 C 
ATOM      4  N   LIG    1        3.576   7.127   0.740  0.00  0.00    -0.248 N 
ATOM      5  H   LIG    1        3.695   7.906   1.306  0.00  0.00    +0.158 HD
ATOM      6  O   LIG    1        4.403   7.971  -1.207  0.00  0.00    -0.270 OA
ATOM      7  C   LIG    1        3.054   5.957   1.146  0.00  0.00    +0.252 C 
ATOM      8  O   LIG    1        2.661   5.708   2.268  0.00  0.00    -0.270 OA
ENDROOT
BRANCH   2   9
ATOM      9  C   LIG    1        3.787   5.221  -2.441  0.00  0.00    +0.013 A 
ATOM     10  C   LIG    1        2.828   5.032  -3.393  0.00  0.00    +0.092 A 
ATOM     11  N   LIG    1        3.401   4.556  -4.532  0.00  0.00    -0.360 N 
ATOM     12  C   LIG    1        4.763   4.418  -4.362  0.00  0.00    +0.048 A 
ATOM     13  C   LIG    1        5.786   3.983  -5.197  0.00  0.00    +0.041 A 
ATOM     14  C   LIG    1        7.086   3.954  -4.736  0.00  0.00    +0.020 A 
ATOM     15 BR   LIG    1        8.472   3.360  -5.877  0.00  0.00    -0.050 Br
ATOM     16  C   LIG    1        7.385   4.356  -3.441  0.00  0.00    +0.016 A 
ATOM     17  C   LIG    1        6.385   4.790  -2.599  0.00  0.00    +0.012 A 
ATOM     18  H   LIG    1        2.920   4.345  -5.348  0.00  0.00    +0.165 HD
ATOM     19  C   LIG    1        5.069   4.831  -3.055  0.00  0.00    +0.008 A 
ENDBRANCH   2   9
BRANCH   1  23
ATOM     20  C   LIG    1        2.980   0.020  -0.025  0.00  0.00    +0.149 C 
ATOM     21  N   LIG    1        2.508   1.407  -0.014  0.00  0.00    -0.349 N 
ATOM     22  C   LIG    1        3.314   2.503  -0.015  0.00  0.00    +0.095 A 
ATOM     23  C   LIG    1        2.552   3.634  -0.002  0.00  0.00    +0.013 A 
ATOM     24  C   LIG    1        1.147   3.193   0.008  0.00  0.00    +0.008 A 
ATOM     25  C   LIG    1       -0.076   3.860   0.024  0.00  0.00    +0.010 A 
ATOM     26  C   LIG    1       -1.248   3.136   0.031  0.00  0.00    +0.001 A 
ATOM     27  C   LIG    1       -1.215   1.749   0.017  0.00  0.00    +0.002 A 
ATOM     28  C   LIG    1       -0.013   1.076   0.008  0.00  0.00    +0.026 A 
ATOM     29  C   LIG    1        1.182   1.788   0.000  0.00  0.00    +0.049 A 
ENDBRANCH   1  23
TORSDOF 2
