REMARK  Name = ZINC13527967
REMARK                            x       y       z     vdW  Elec       q    Type
REMARK                         _______ _______ _______ _____ _____    ______ ____
ROOT
ATOM      1  C   LIG    1       -2.410   6.622   0.049  0.00  0.00    +0.155 C 
ATOM      2  C   LIG    1       -1.722   5.272   0.077  0.00  0.00    +0.046 A 
ATOM      3  C   LIG    1       -0.381   5.116   0.061  0.00  0.00    -0.015 A 
ATOM      4  C   LIG    1        0.637   6.228   0.031  0.00  0.00    +0.069 C 
ATOM      5  C   LIG    1       -0.031   7.516  -0.463  0.00  0.00    +0.169 C 
ATOM      6  C   LIG    1        0.719   8.718   0.076  0.00  0.00    +0.244 C 
ATOM      7  O   LIG    1        1.870   9.024  -0.153  0.00  0.00    -0.273 OA
ATOM      8  N   LIG    1       -0.157   9.377   0.862  0.00  0.00    -0.220 N 
ATOM      9  C   LIG    1       -1.343   8.754   0.913  0.00  0.00    +0.313 C 
ATOM     10  O   LIG    1       -2.300   9.166   1.538  0.00  0.00    -0.252 OA
ATOM     11  C   LIG    1       -0.127   3.687   0.089  0.00  0.00    +0.003 A 
ATOM     12  C   LIG    1        1.054   2.938   0.085  0.00  0.00    +0.010 A 
ATOM     13  C   LIG    1        0.920   1.571   0.121  0.00  0.00    +0.001 A 
ATOM     14  C   LIG    1       -0.320   0.954   0.158  0.00  0.00    +0.002 A 
ATOM     15  C   LIG    1       -1.503   1.671   0.156  0.00  0.00    +0.026 A 
ATOM     16  C   LIG    1       -1.398   3.061   0.126  0.00  0.00    +0.047 A 
ATOM     17  N   LIG    1       -2.338   4.050   0.119  0.00  0.00    -0.356 N 
ATOM     18  H   LIG    1       -3.298   3.909   0.140  0.00  0.00    +0.166 HD
ATOM     19  N   LIG    1       -1.351   7.628   0.196  0.00  0.00    -0.261 N 
ENDROOT
BRANCH   1  23
ATOM     20  C   LIG    1       -4.438   7.160  -3.674  0.00  0.00    +0.120 A 
ATOM     21  C   LIG    1       -3.054   7.073  -3.643  0.00  0.00    +0.046 A 
ATOM     22  C   LIG    1       -2.401   6.899  -2.438  0.00  0.00    +0.009 A 
ATOM     23  C   LIG    1       -3.125   6.812  -1.264  0.00  0.00    -0.021 A 
ATOM     24  C   LIG    1       -4.505   6.893  -1.293  0.00  0.00    +0.009 A 
ATOM     25  C   LIG    1       -5.163   7.073  -2.494  0.00  0.00    +0.046 A 
BRANCH  20  27
ATOM     26  C   LIG    1       -6.508   7.413  -4.814  0.00  0.00    +0.277 C 
ATOM     27  O   LIG    1       -5.082   7.332  -4.858  0.00  0.00    -0.495 OA
ENDBRANCH  20  27
ENDBRANCH   1  23
BRANCH   8  28
ATOM     28  C   LIG    1        0.151  10.620   1.574  0.00  0.00    +0.153 C 
BRANCH  28  29
ATOM     29  C   LIG    1        0.698  10.294   2.939  0.00  0.00    -0.030 A 
ATOM     30  C   LIG    1       -0.160  10.168   4.016  0.00  0.00    +0.005 A 
ATOM     31  C   LIG    1        0.342   9.864   5.268  0.00  0.00    +0.000 A 
ATOM     32  C   LIG    1        1.703   9.698   5.445  0.00  0.00    +0.000 A 
ATOM     33  C   LIG    1        2.561   9.830   4.370  0.00  0.00    +0.000 A 
ATOM     34  C   LIG    1        2.059  10.128   3.117  0.00  0.00    +0.005 A 
ENDBRANCH  28  29
ENDBRANCH   8  28
TORSDOF 4
