REMARK  Name = ZINC13518984
REMARK                            x       y       z     vdW  Elec       q    Type
REMARK                         _______ _______ _______ _____ _____    ______ ____
ROOT
ATOM      1  C   LIG    1        1.074   4.270  -0.245  0.00  0.00    +0.105 A 
ATOM      2  C   LIG    1       -0.218   3.893  -0.220  0.00  0.00    +0.035 A 
ATOM      3  N   LIG    1       -0.775   4.398   0.890  0.00  0.00    -0.350 N 
ATOM      4  H   LIG    1       -1.753   4.269   1.176  0.00  0.00    +0.166 HD
ATOM      5  C   LIG    1        0.120   5.078   1.552  0.00  0.00    +0.171 A 
ATOM      6  N   LIG    1        1.288   5.027   0.875  0.00  0.00    -0.352 N 
ATOM      7  H   LIG    1        2.148   5.461   1.143  0.00  0.00    +0.166 HD
ENDROOT
BRANCH   2   8
ATOM      8  C   LIG    1       -0.914   3.046  -1.254  0.00  0.00    +0.021 C 
ATOM      9  C   LIG    1       -0.037   2.259  -2.229  0.00  0.00    -0.008 C 
ATOM     10  C   LIG    1       -0.795   1.527  -1.120  0.00  0.00    -0.066 C 
BRANCH  10  11
ATOM     11  N   LIG    1       -0.025   1.014   0.027  0.00  0.00    +0.380 N 
ATOM     12  H   LIG    1       -0.476   1.316   0.899  0.00  0.00    -0.090 HD
ATOM     13  H   LIG    1        0.925   1.379   0.001  0.00  0.00    -0.090 HD
ATOM     14  H   LIG    1        0.002  -0.004   0.002  0.00  0.00    -0.090 HD
ENDBRANCH  10  11
ENDBRANCH   2   8
TORSDOF 2
