REMARK  Name = ZINC13516868
REMARK                            x       y       z     vdW  Elec       q    Type
REMARK                         _______ _______ _______ _____ _____    ______ ____
ROOT
ATOM      1  C   LIG    1       -0.017   1.379   0.010  0.00  0.00    +0.000 A 
ATOM      2  C   LIG    1        1.171   2.087   0.002  0.00  0.00    +0.000 A 
ATOM      3  C   LIG    1        2.379   1.415  -0.013  0.00  0.00    +0.002 A 
ATOM      4  C   LIG    1        2.393   0.032  -0.020  0.00  0.00    -0.061 A 
ATOM      5  C   LIG    1        1.214  -0.670  -0.012  0.00  0.00    -0.046 A 
ATOM      6  C   LIG    1        1.242  -2.185  -0.020  0.00  0.00    +0.033 C 
ATOM      7  C   LIG    1        1.767  -2.642  -1.386  0.00  0.00    -0.014 C 
ATOM      8  C   LIG    1        3.280  -2.639  -1.408  0.00  0.00    -0.082 C 
ATOM      9  N   LIG    1        3.894  -1.322  -1.356  0.00  0.00    +0.382 N 
ATOM     10  H   LIG    1        3.470  -0.732  -2.056  0.00  0.00    -0.085 HD
ATOM     11  H   LIG    1        4.880  -1.409  -1.551  0.00  0.00    -0.085 HD
ATOM     12  C   LIG    1        3.717  -0.703  -0.035  0.00  0.00    -0.047 C 
ATOM     13  C   LIG    1        0.002  -0.004   0.002  0.00  0.00    +0.004 A 
ENDROOT
TORSDOF 0
