REMARK  Name = ZINC13472716
REMARK                            x       y       z     vdW  Elec       q    Type
REMARK                         _______ _______ _______ _____ _____    ______ ____
ROOT
ATOM      1  C   LIG    1       -2.140   1.036   1.486  0.00  0.00    +0.056 A 
ATOM      2  C   LIG    1       -2.297  -0.241   2.019  0.00  0.00    +0.043 A 
ATOM      3  C   LIG    1       -3.556  -0.860   1.905  0.00  0.00    +0.129 A 
ATOM      4  N   LIG    1       -4.540  -0.206   1.298  0.00  0.00    -0.199 NA
ATOM      5  C   LIG    1       -4.343   1.008   0.806  0.00  0.00    +0.214 A 
ATOM      6  N   LIG    1       -3.172   1.622   0.900  0.00  0.00    -0.219 NA
ENDROOT
BRANCH   2   7
ATOM      7  C   LIG    1       -1.168  -0.930   2.688  0.00  0.00    -0.012 A 
ATOM      8  C   LIG    1       -0.068  -1.355   1.945  0.00  0.00    +0.009 A 
ATOM      9  C   LIG    1        0.983  -1.992   2.574  0.00  0.00    +0.002 A 
ATOM     10  C   LIG    1        0.942  -2.219   3.938  0.00  0.00    +0.020 A 
ATOM     11  C   LIG    1       -0.150  -1.804   4.681  0.00  0.00    +0.042 A 
ATOM     12 CL   LIG    1       -0.195  -2.093   6.392  0.00  0.00    -0.084 Cl
ATOM     13  C   LIG    1       -1.205  -1.161   4.062  0.00  0.00    +0.028 A 
ENDBRANCH   2   7
BRANCH   3  14
ATOM     14  N   LIG    1       -3.765  -2.128   2.418  0.00  0.00    -0.343 N 
ATOM     15  H   LIG    1       -4.636  -2.547   2.335  0.00  0.00    +0.144 HD
ATOM     16  H   LIG    1       -3.041  -2.598   2.860  0.00  0.00    +0.144 HD
ENDBRANCH   3  14
BRANCH   5  17
ATOM     17  N   LIG    1       -5.393   1.657   0.181  0.00  0.00    -0.327 N 
ATOM     18  H   LIG    1       -5.265   2.546  -0.184  0.00  0.00    +0.145 HD
ATOM     19  H   LIG    1       -6.257   1.222   0.108  0.00  0.00    +0.145 HD
ENDBRANCH   5  17
BRANCH   1  21
ATOM     20  C   LIG    1       -0.747   2.530   2.892  0.00  0.00    +0.010 C 
ATOM     21  C   LIG    1       -0.814   1.745   1.581  0.00  0.00    +0.053 C 
ENDBRANCH   1  21
TORSDOF 4
