REMARK  Name = ZINC13452335
REMARK                            x       y       z     vdW  Elec       q    Type
REMARK                         _______ _______ _______ _____ _____    ______ ____
ROOT
ATOM      1  C   LIG    1        0.088   0.580  -4.778  0.00  0.00    +0.002 A 
ATOM      2  C   LIG    1       -0.700   0.939  -3.691  0.00  0.00    +0.006 A 
ATOM      3  C   LIG    1       -0.125   1.179  -2.468  0.00  0.00    -0.023 A 
ATOM      4  C   LIG    1        1.255   1.039  -2.402  0.00  0.00    +0.073 A 
ATOM      5  C   LIG    1        2.067   0.683  -3.477  0.00  0.00    +0.067 A 
ATOM      6  N   LIG    1        3.350   0.665  -2.975  0.00  0.00    -0.306 N 
ATOM      7  C   LIG    1        3.310   0.996  -1.655  0.00  0.00    +0.328 A 
ATOM      8  O   LIG    1        4.280   1.071  -0.924  0.00  0.00    -0.247 OA
ATOM      9  H   LIG    1        4.151   0.452  -3.480  0.00  0.00    +0.170 HD
ATOM     10  N   LIG    1        2.049   1.225  -1.279  0.00  0.00    -0.293 N 
ATOM     11  C   LIG    1        1.432   1.602  -0.003  0.00  0.00    +0.111 C 
ATOM     12  C   LIG    1       -0.013   1.086   0.008  0.00  0.00    -0.051 C 
ATOM     13  C   LIG    1       -0.819   1.578  -1.199  0.00  0.00    +0.023 C 
ATOM     14  C   LIG    1        1.470   0.444  -4.708  0.00  0.00    +0.028 A 
ENDROOT
BRANCH  12  15
ATOM     15  N   LIG    1       -0.672   1.570   1.234  0.00  0.00    +0.381 N 
ATOM     16  H   LIG    1       -0.710   2.596   1.214  0.00  0.00    -0.090 HD
ATOM     17  H   LIG    1       -0.146   1.273   2.054  0.00  0.00    -0.090 HD
ATOM     18  H   LIG    1       -1.621   1.203   1.288  0.00  0.00    -0.090 HD
ENDBRANCH  12  15
TORSDOF 1
