REMARK  Name = ZINC13551344
REMARK                            x       y       z     vdW  Elec       q    Type
REMARK                         _______ _______ _______ _____ _____    ______ ____
ROOT
ATOM      1  C   LIG    1        0.002  -0.004   0.002  0.00  0.00    -0.004 C 
ENDROOT
BRANCH   1   2
ATOM      2  C   LIG    1       -0.019   1.526   0.010  0.00  0.00    +0.018 C 
BRANCH   2   3
ATOM      3  C   LIG    1        1.417   2.055  -0.000  0.00  0.00    +0.103 C 
BRANCH   3   4
ATOM      4  N   LIG    1        1.397   3.520   0.008  0.00  0.00    -0.327 N 
ATOM      5  H   LIG    1        0.550   3.994   0.018  0.00  0.00    +0.148 HD
BRANCH   4   6
ATOM      6  C   LIG    1        2.555   4.210   0.000  0.00  0.00    +0.128 C 
ATOM      7  S   LIG    1        4.049   3.374  -0.018  0.00  0.00    -0.019 S 
BRANCH   6   8
ATOM      8  N   LIG    1        2.537   5.558   0.008  0.00  0.00    -0.341 N 
ATOM      9  H   LIG    1        3.370   6.054   0.002  0.00  0.00    +0.144 HD
ATOM     10  H   LIG    1        1.690   6.031   0.018  0.00  0.00    +0.144 HD
ENDBRANCH   6   8
ENDBRANCH   4   6
ENDBRANCH   3   4
ENDBRANCH   2   3
ENDBRANCH   1   2
BRANCH   1  11
ATOM     11  CA  LIG    1       -1.433  -0.534   0.013  0.00  0.00    +0.036 C 
BRANCH  11  12
ATOM     12  N   LIG    1       -2.083  -0.161   1.276  0.00  0.00    +0.387 N 
ATOM     13  H1  LIG    1       -3.030  -0.510   1.284  0.00  0.00    -0.089 HD
ATOM     14  H2  LIG    1       -2.095   0.844   1.365  0.00  0.00    -0.089 HD
ATOM     15  H3  LIG    1       -1.571  -0.560   2.049  0.00  0.00    -0.089 HD
ENDBRANCH  11  12
BRANCH  11  16
ATOM     16  C   LIG    1       -1.416  -2.035  -0.119  0.00  0.00    +0.290 C 
ATOM     17  O   LIG    1       -1.367  -2.734   0.878  0.00  0.00    -0.253 OA
BRANCH  16  18
ATOM     18  OXT LIG    1       -1.451  -2.550  -1.224  0.00  0.00    -0.482 OA
ATOM     19  HXT LIG    1       -1.488  -2.013  -1.990  0.00  0.00    +0.295 HD
ENDBRANCH  16  18
ENDBRANCH  11  16
ENDBRANCH   1  11
TORSDOF 9
