REMARK  Name = ZINC13488995
REMARK                            x       y       z     vdW  Elec       q    Type
REMARK                         _______ _______ _______ _____ _____    ______ ____
ROOT
ATOM      1  C   LIG    1        1.177  -0.689  -0.013  0.00  0.00    +0.012 A 
ATOM      2  C   LIG    1        0.002  -0.004   0.002  0.00  0.00    +0.025 A 
ATOM      3  C   LIG    1       -0.017   1.396   0.010  0.00  0.00    +0.044 A 
ATOM      4  C   LIG    1        1.161   2.116   0.002  0.00  0.00    +0.069 A 
ATOM      5 CL   LIG    1        1.127   3.852   0.013  0.00  0.00    -0.081 Cl
ATOM      6  C   LIG    1        2.383   1.433  -0.013  0.00  0.00    +0.005 A 
ATOM      7  C   LIG    1        3.619   2.107  -0.021  0.00  0.00    +0.029 A 
ATOM      8  C   LIG    1        4.764   1.372  -0.035  0.00  0.00    +0.111 A 
ATOM      9  N   LIG    1        4.745   0.046  -0.043  0.00  0.00    -0.263 NA
ATOM     10  C   LIG    1        3.631  -0.649  -0.036  0.00  0.00    +0.119 A 
ATOM     11  C   LIG    1        2.393   0.012  -0.021  0.00  0.00    +0.002 A 
ENDROOT
BRANCH   3  12
ATOM     12  N   LIG    1       -1.239   2.070   0.019  0.00  0.00    -0.357 N 
ATOM     13  H   LIG    1       -1.258   3.039   0.025  0.00  0.00    +0.142 HD
ATOM     14  H   LIG    1       -2.069   1.568   0.020  0.00  0.00    +0.142 HD
ENDBRANCH   3  12
TORSDOF 1
