REMARK  Name = ZINC13472437
REMARK                            x       y       z     vdW  Elec       q    Type
REMARK                         _______ _______ _______ _____ _____    ______ ____
ROOT
ATOM      1  CA  LIG    1        1.235   3.094   0.007  0.00  0.00    +0.049 C 
ENDROOT
BRANCH   1   2
ATOM      2  N   LIG    1        2.643   3.533  -0.013  0.00  0.00    +0.388 N 
ATOM      3  H1  LIG    1        2.700   4.473  -0.422  0.00  0.00    -0.085 HD
ATOM      4  H2  LIG    1        3.194   2.878  -0.582  0.00  0.00    -0.085 HD
BRANCH   2   5
ATOM      5  C   ACE A  0        3.189   3.565   1.357  0.00  0.00    -0.082 C 
BRANCH   5   7
ATOM      6  C   LIG    1        5.222   4.058   2.723  0.00  0.00    +0.002 C 
ATOM      7  C   LIG    1        4.648   4.022   1.305  0.00  0.00    -0.022 C 
ENDBRANCH   5   7
ENDBRANCH   2   5
ENDBRANCH   1   2
BRANCH   1   8
ATOM      8  C   LIG    1        1.177   1.588  -0.001  0.00  0.00    +0.291 C 
ATOM      9  O   LIG    1        2.199   0.944  -0.014  0.00  0.00    -0.253 OA
BRANCH   8  10
ATOM     10  OXT LIG    1       -0.011   0.963   0.007  0.00  0.00    -0.482 OA
ATOM     11  HXT LIG    1       -0.804   1.462   0.018  0.00  0.00    +0.295 HD
ENDBRANCH   8  10
ENDBRANCH   1   8
BRANCH   1  12
ATOM     12  CB  LIG    1        0.522   3.639  -1.233  0.00  0.00    +0.061 C 
BRANCH  12  13
ATOM     13  SG  LIG    1        0.593   5.451  -1.224  0.00  0.00    -0.179 S 
ATOM     14  HG  LIG    1       -0.058   5.808  -2.346  0.00  0.00    +0.102 HD
ENDBRANCH  12  13
ENDBRANCH   1  12
TORSDOF 7
