REMARK  Name = ZINC13472728
REMARK                            x       y       z     vdW  Elec       q    Type
REMARK                         _______ _______ _______ _____ _____    ______ ____
ROOT
ATOM      1  C   LIG    1       -1.126   5.291   2.317  0.00  0.00    +0.066 C 
ATOM      2  C   LIG    1       -0.583   6.029   1.121  0.00  0.00    +0.053 A 
ATOM      3  C   LIG    1       -0.072   5.327   0.031  0.00  0.00    +0.043 A 
ATOM      4  C   LIG    1        0.419   6.063  -1.063  0.00  0.00    +0.129 A 
ATOM      5  N   LIG    1        0.381   7.390  -1.014  0.00  0.00    -0.199 NA
ATOM      6  C   LIG    1       -0.110   8.014   0.047  0.00  0.00    +0.214 A 
ATOM      7  N   LIG    1       -0.579   7.352   1.095  0.00  0.00    -0.219 NA
ENDROOT
BRANCH   3   8
ATOM      8  C   LIG    1       -0.050   3.845   0.023  0.00  0.00    -0.012 A 
ATOM      9  C   LIG    1       -1.246   3.128   0.030  0.00  0.00    +0.009 A 
ATOM     10  C   LIG    1       -1.221   1.749   0.017  0.00  0.00    +0.002 A 
ATOM     11  C   LIG    1       -0.013   1.076   0.008  0.00  0.00    +0.020 A 
ATOM     12  C   LIG    1        1.178   1.782   0.000  0.00  0.00    +0.042 A 
ATOM     13 CL   LIG    1        2.691   0.930  -0.018  0.00  0.00    -0.084 Cl
ATOM     14  C   LIG    1        1.165   3.163   0.008  0.00  0.00    +0.028 A 
ENDBRANCH   3   8
BRANCH   4  15
ATOM     15  N   LIG    1        0.932   5.415  -2.173  0.00  0.00    -0.343 N 
ATOM     16  H   LIG    1        1.268   5.931  -2.923  0.00  0.00    +0.144 HD
ATOM     17  H   LIG    1        0.956   4.446  -2.200  0.00  0.00    +0.144 HD
ENDBRANCH   4  15
BRANCH   6  18
ATOM     18  N   LIG    1       -0.132   9.397   0.061  0.00  0.00    -0.327 N 
ATOM     19  H   LIG    1       -0.488   9.868   0.831  0.00  0.00    +0.145 HD
ATOM     20  H   LIG    1        0.209   9.895  -0.698  0.00  0.00    +0.145 HD
ENDBRANCH   6  18
TORSDOF 3
