REMARK  Name = ZINC13473130
REMARK                            x       y       z     vdW  Elec       q    Type
REMARK                         _______ _______ _______ _____ _____    ______ ____
ROOT
ATOM      1  N   LIG    1       -1.169  -0.705   0.009  0.00  0.00    -0.149 NA
ATOM      2  N   LIG    1       -1.150  -1.995   0.002  0.00  0.00    -0.149 NA
ENDROOT
BRANCH   2   3
ATOM      3  C   LIG    1       -2.323  -2.696   0.010  0.00  0.00    +0.086 A 
ATOM      4  C   LIG    1       -3.546  -2.019   0.019  0.00  0.00    +0.030 A 
ATOM      5  C   LIG    1       -4.725  -2.733   0.027  0.00  0.00    +0.017 A 
ATOM      6  C   LIG    1       -4.700  -4.118   0.025  0.00  0.00    +0.018 A 
ATOM      7 BR   LIG    1       -6.323  -5.089   0.035  0.00  0.00    -0.050 Br
ATOM      8  C   LIG    1       -3.492  -4.795   0.016  0.00  0.00    +0.017 A 
ATOM      9  C   LIG    1       -2.305  -4.094   0.002  0.00  0.00    +0.030 A 
ENDBRANCH   2   3
BRANCH   1  15
ATOM     10  C   LIG    1       -0.017   1.394   0.010  0.00  0.00    +0.033 A 
ATOM     11  C   LIG    1        1.168   2.097   0.002  0.00  0.00    +0.047 A 
ATOM     12  C   LIG    1        2.380   1.419  -0.013  0.00  0.00    +0.117 A 
ATOM     13  C   LIG    1        2.404   0.029  -0.021  0.00  0.00    +0.047 A 
ATOM     14  C   LIG    1        1.225  -0.682  -0.013  0.00  0.00    +0.033 A 
ATOM     15  C   LIG    1        0.002  -0.004   0.002  0.00  0.00    +0.086 A 
BRANCH  12  16
ATOM     16  O   LIG    1        3.546   2.115  -0.021  0.00  0.00    -0.507 OA
ATOM     17  H   LIG    1        3.892   2.313   0.860  0.00  0.00    +0.292 HD
ENDBRANCH  12  16
ENDBRANCH   1  15
TORSDOF 3
