REMARK  Name = ZINC13493818
REMARK                            x       y       z     vdW  Elec       q    Type
REMARK                         _______ _______ _______ _____ _____    ______ ____
ROOT
ATOM      1  C   LIG    1        0.034   9.413   0.227  0.00  0.00    +0.004 A 
ATOM      2  C   LIG    1       -1.139  10.132   0.348  0.00  0.00    +0.023 A 
ATOM      3  C   LIG    1       -2.362   9.473   0.350  0.00  0.00    +0.035 A 
ATOM      4  C   LIG    1       -2.405   8.092   0.230  0.00  0.00    +0.046 A 
ATOM      5  C   LIG    1       -1.225   7.372   0.109  0.00  0.00    +0.035 A 
ATOM      6  C   LIG    1       -0.004   8.036   0.113  0.00  0.00    +0.023 A 
ENDROOT
BRANCH   3   7
ATOM      7  N   LIG    1       -3.550  10.202   0.473  0.00  0.00    -0.281 N 
ATOM      8  H   LIG    1       -3.626  11.077   0.061  0.00  0.00    +0.155 HD
ATOM      9  C   LIG    1       -4.587   9.689   1.163  0.00  0.00    +0.248 C 
ATOM     10  O   LIG    1       -4.522   8.559   1.608  0.00  0.00    -0.270 OA
BRANCH   9  11
ATOM     11  C   LIG    1       -5.804  10.500   1.381  0.00  0.00    +0.040 A 
ATOM     12  C   LIG    1       -5.879  11.799   0.876  0.00  0.00    +0.033 A 
ATOM     13  C   LIG    1       -7.020  12.550   1.079  0.00  0.00    +0.043 A 
ATOM     14 CL   LIG    1       -7.118  14.164   0.448  0.00  0.00    -0.083 Cl
ATOM     15  C   LIG    1       -8.084  12.020   1.788  0.00  0.00    +0.040 A 
ATOM     16  C   LIG    1       -8.014  10.733   2.295  0.00  0.00    +0.043 A 
ATOM     17 CL   LIG    1       -9.353  10.078   3.183  0.00  0.00    -0.083 Cl
ATOM     18  C   LIG    1       -6.880   9.971   2.095  0.00  0.00    +0.033 A 
ENDBRANCH   9  11
ENDBRANCH   3   7
BRANCH   5  19
ATOM     19  N   LIG    1       -1.263   5.979  -0.012  0.00  0.00    -0.281 N 
ATOM     20  H   LIG    1       -1.954   5.472   0.442  0.00  0.00    +0.155 HD
ATOM     21  C   LIG    1       -0.340   5.342  -0.758  0.00  0.00    +0.248 C 
ATOM     22  O   LIG    1        0.469   5.982  -1.401  0.00  0.00    -0.270 OA
BRANCH  21  23
ATOM     23  C   LIG    1       -0.311   3.864  -0.796  0.00  0.00    +0.040 A 
ATOM     24  C   LIG    1        0.644   3.201  -1.568  0.00  0.00    +0.033 A 
ATOM     25  C   LIG    1        0.665   1.821  -1.599  0.00  0.00    +0.043 A 
ATOM     26 CL   LIG    1        1.852   0.994  -2.559  0.00  0.00    -0.083 Cl
ATOM     27  C   LIG    1       -0.259   1.095  -0.867  0.00  0.00    +0.040 A 
ATOM     28  C   LIG    1       -1.212   1.747  -0.103  0.00  0.00    +0.043 A 
ATOM     29 CL   LIG    1       -2.371   0.828   0.806  0.00  0.00    -0.083 Cl
ATOM     30  C   LIG    1       -1.240   3.127  -0.059  0.00  0.00    +0.033 A 
ENDBRANCH  21  23
ENDBRANCH   5  19
TORSDOF 4
