REMARK  Name = ZINC13472532
REMARK                            x       y       z     vdW  Elec       q    Type
REMARK                         _______ _______ _______ _____ _____    ______ ____
ROOT
ATOM      1  C   LIG    1        1.271  -2.140  -0.022  0.00  0.00    +0.093 A 
ATOM      2  C   LIG    1        2.297  -2.942  -0.501  0.00  0.00    +0.099 A 
ATOM      3  N   LIG    1        1.935  -4.219  -0.321  0.00  0.00    -0.227 NA
ATOM      4  C   LIG    1        0.747  -4.265   0.240  0.00  0.00    +0.139 A 
ATOM      5  N   LIG    1        0.300  -2.992   0.448  0.00  0.00    -0.336 N 
ATOM      6  H   LIG    1       -0.545  -2.737   0.850  0.00  0.00    +0.167 HD
ENDROOT
BRANCH   2   7
ATOM      7  C   LIG    1        3.566  -2.470  -1.104  0.00  0.00    +0.006 A 
ATOM      8  C   LIG    1        3.582  -1.312  -1.881  0.00  0.00    +0.014 A 
ATOM      9  C   LIG    1        4.764  -0.874  -2.442  0.00  0.00    +0.050 A 
ATOM     10  C   LIG    1        5.939  -1.583  -2.236  0.00  0.00    +0.166 A 
ATOM     11  C   LIG    1        5.928  -2.741  -1.460  0.00  0.00    +0.167 A 
ATOM     12  O   LIG    1        7.196  -3.245  -1.412  0.00  0.00    -0.453 OA
ATOM     13  C   LIG    1        7.902  -2.615  -2.498  0.00  0.00    +0.466 C 
ATOM     14  O   LIG    1        7.214  -1.362  -2.672  0.00  0.00    -0.453 OA
ATOM     15  C   LIG    1        4.747  -3.181  -0.892  0.00  0.00    +0.059 A 
ENDBRANCH   2   7
BRANCH   1  20
ATOM     16  C   LIG    1       -0.017   1.378   0.010  0.00  0.00    +0.004 A 
ATOM     17  C   LIG    1        1.194   2.059   0.002  0.00  0.00    +0.020 A 
ATOM     18  C   LIG    1        2.376   1.342  -0.013  0.00  0.00    +0.111 A 
ATOM     19  N   LIG    1        2.369   0.024  -0.021  0.00  0.00    -0.253 NA
ATOM     20  C   LIG    1        1.233  -0.666  -0.014  0.00  0.00    +0.089 A 
ATOM     21  C   LIG    1        0.002  -0.004   0.002  0.00  0.00    +0.030 A 
ENDBRANCH   1  20
BRANCH   4  22
ATOM     22  C   LIG    1        0.014  -5.498   0.594  0.00  0.00    +0.017 A 
ATOM     23  C   LIG    1       -1.250  -5.414   1.184  0.00  0.00    +0.012 A 
ATOM     24  C   LIG    1       -1.931  -6.558   1.512  0.00  0.00    +0.015 A 
ATOM     25  C   LIG    1       -1.360  -7.809   1.257  0.00  0.00    +0.059 A 
ATOM     26  C   LIG    1       -0.094  -7.892   0.667  0.00  0.00    +0.015 A 
ATOM     27  C   LIG    1        0.583  -6.747   0.334  0.00  0.00    +0.012 A 
BRANCH  25  28
ATOM     28  C   LIG    1       -2.091  -9.039   1.610  0.00  0.00    +0.337 C 
ATOM     29  O   LIG    1       -3.197  -8.966   2.127  0.00  0.00    -0.245 OA
BRANCH  28  30
ATOM     30  O   LIG    1       -1.591 -10.133   1.387  0.00  0.00    -0.477 OA
ATOM     31  H   LIG    1       -0.744 -10.189   0.992  0.00  0.00    +0.295 HD
ENDBRANCH  28  30
ENDBRANCH  25  28
ENDBRANCH   4  22
TORSDOF 5
