REMARK  Name = ZINC13208053
REMARK                            x       y       z     vdW  Elec       q    Type
REMARK                         _______ _______ _______ _____ _____    ______ ____
ROOT
ATOM      1  C   LIG    1       -0.509   6.270   1.382  0.00  0.00    +0.071 C 
ATOM      2  C   LIG    1       -1.631   6.998   1.171  0.00  0.00    +0.188 C 
ATOM      3  C   LIG    1       -1.965   6.968  -0.269  0.00  0.00    +0.282 C 
ATOM      4  N   LIG    1       -1.059   6.229  -0.935  0.00  0.00    -0.282 N 
ATOM      5  O   LIG    1       -2.917   7.528  -0.775  0.00  0.00    -0.267 OA
ATOM      6  C   LIG    1       -0.078   5.734   0.037  0.00  0.00    +0.145 C 
ENDROOT
BRANCH   6   7
ATOM      7  C   LIG    1       -0.083   4.227   0.055  0.00  0.00    -0.022 A 
ATOM      8  C   LIG    1        1.109   3.531  -0.029  0.00  0.00    +0.006 A 
ATOM      9  C   LIG    1        1.105   2.149  -0.013  0.00  0.00    +0.004 A 
ATOM     10  C   LIG    1       -0.090   1.462   0.087  0.00  0.00    -0.045 A 
ATOM     11  C   LIG    1       -1.282   2.158   0.165  0.00  0.00    +0.004 A 
ATOM     12  C   LIG    1       -1.278   3.540   0.155  0.00  0.00    +0.006 A 
BRANCH  10  13
ATOM     13  C   LIG    1       -0.095  -0.045   0.104  0.00  0.00    +0.013 C 
ATOM     14  C   LIG    1       -0.911  -0.566  -1.080  0.00  0.00    +0.012 C 
ATOM     15  C   LIG    1       -0.719  -0.538   1.411  0.00  0.00    +0.012 C 
ENDBRANCH  10  13
ENDBRANCH   6   7
BRANCH   1  16
ATOM     16  C   LIG    1        0.157   6.044   2.668  0.00  0.00    +0.195 C 
ATOM     17  O   LIG    1       -0.401   5.403   3.538  0.00  0.00    -0.287 OA
BRANCH  16  22
ATOM     18  C   LIG    1        5.415   8.190   3.599  0.00  0.00    +0.044 C 
ATOM     19  C   LIG    1        4.038   7.628   3.356  0.00  0.00    -0.050 A 
ATOM     20  C   LIG    1        3.454   6.804   4.301  0.00  0.00    +0.004 A 
ATOM     21  C   LIG    1        2.194   6.286   4.084  0.00  0.00    +0.012 A 
ATOM     22  C   LIG    1        1.508   6.595   2.907  0.00  0.00    +0.022 A 
ATOM     23  C   LIG    1        2.107   7.423   1.955  0.00  0.00    +0.012 A 
ATOM     24  C   LIG    1        3.365   7.939   2.187  0.00  0.00    +0.004 A 
ENDBRANCH  16  22
ENDBRANCH   1  16
BRANCH   2  25
ATOM     25  O   LIG    1       -2.333   7.651   2.126  0.00  0.00    -0.502 OA
ATOM     26  H   LIG    1       -2.051   7.619   3.019  0.00  0.00    +0.292 HD
ENDBRANCH   2  25
BRANCH   4  27
ATOM     27  C   LIG    1       -1.054   5.966  -2.376  0.00  0.00    +0.137 C 
BRANCH  27  28
ATOM     28  C   LIG    1       -1.858   4.697  -2.666  0.00  0.00    +0.178 C 
BRANCH  28  29
ATOM     29  O   LIG    1       -3.229   4.913  -2.326  0.00  0.00    -0.381 OA
ATOM     30  C   LIG    1       -4.071   3.783  -2.560  0.00  0.00    +0.194 C 
ENDBRANCH  28  29
ENDBRANCH  27  28
ENDBRANCH   4  27
TORSDOF 8
