REMARK  Name = ZINC13519013
REMARK                            x       y       z     vdW  Elec       q    Type
REMARK                         _______ _______ _______ _____ _____    ______ ____
ROOT
ATOM      1  C   LIG    1        1.647   3.234   0.093  0.00  0.00    +0.040 C 
ATOM      2  C   LIG    1        0.766   4.349   0.658  0.00  0.00    +0.014 C 
ATOM      3  C   LIG    1        0.935   4.201  -0.856  0.00  0.00    -0.003 C 
ENDROOT
BRANCH   1   5
ATOM      4  C   LIG    1        0.114   1.385   0.953  0.00  0.00    +0.133 A 
ATOM      5  C   LIG    1        1.120   1.824   0.172  0.00  0.00    +0.039 A 
ATOM      6  N   LIG    1        1.572   0.743  -0.536  0.00  0.00    -0.348 N 
ATOM      7  H   LIG    1        2.293   0.741  -1.185  0.00  0.00    +0.166 HD
ATOM      8  C   LIG    1        0.826  -0.319  -0.164  0.00  0.00    +0.196 A 
ATOM      9  N   LIG    1       -0.044   0.072   0.727  0.00  0.00    -0.244 NA
ENDBRANCH   1   5
BRANCH   3  10
ATOM     10  C   LIG    1       -0.256   3.663  -1.651  0.00  0.00    -0.016 C 
BRANCH  10  11
ATOM     11  C   LIG    1       -0.747   4.738  -2.623  0.00  0.00    -0.086 C 
BRANCH  11  12
ATOM     12  N   LIG    1       -1.891   4.221  -3.387  0.00  0.00    +0.378 N 
ATOM     13  H   LIG    1       -2.214   4.930  -4.029  0.00  0.00    -0.090 HD
ATOM     14  H   LIG    1       -2.636   3.977  -2.752  0.00  0.00    -0.090 HD
ATOM     15  H   LIG    1       -1.607   3.403  -3.905  0.00  0.00    -0.090 HD
ENDBRANCH  11  12
ENDBRANCH  10  11
ENDBRANCH   3  10
TORSDOF 4
