REMARK  Name = ZINC13126601
REMARK                            x       y       z     vdW  Elec       q    Type
REMARK                         _______ _______ _______ _____ _____    ______ ____
ROOT
ATOM      1  C   LIG    1        3.697  -0.687  -0.038  0.00  0.00    +0.005 A 
ATOM      2  C   LIG    1        3.956  -1.715   0.866  0.00  0.00    +0.038 A 
ATOM      3  C   LIG    1        5.184  -2.370   0.819  0.00  0.00    +0.074 A 
ATOM      4  N   LIG    1        6.110  -2.030  -0.071  0.00  0.00    -0.231 NA
ATOM      5  C   LIG    1        5.914  -1.062  -0.950  0.00  0.00    +0.135 A 
ATOM      6  C   LIG    1        4.700  -0.354  -0.975  0.00  0.00    +0.099 A 
ENDROOT
BRANCH   1  10
ATOM      7  C   LIG    1       -0.017   1.379   0.010  0.00  0.00    +0.000 A 
ATOM      8  C   LIG    1        1.169   2.093   0.002  0.00  0.00    +0.001 A 
ATOM      9  C   LIG    1        2.377   1.427  -0.013  0.00  0.00    +0.008 A 
ATOM     10  C   LIG    1        2.403   0.033  -0.021  0.00  0.00    -0.016 A 
ATOM     11  C   LIG    1        1.205  -0.680  -0.013  0.00  0.00    +0.008 A 
ATOM     12  C   LIG    1        0.002  -0.004   0.002  0.00  0.00    +0.001 A 
ENDBRANCH   1  10
BRANCH   3  13
ATOM     13  C   LIG    1        5.463  -3.464   1.779  0.00  0.00    +0.001 A 
ATOM     14  C   LIG    1        4.498  -3.835   2.715  0.00  0.00    +0.013 A 
ATOM     15  C   LIG    1        4.761  -4.853   3.607  0.00  0.00    +0.046 A 
ATOM     16  C   LIG    1        5.984  -5.509   3.573  0.00  0.00    +0.117 A 
ATOM     17  C   LIG    1        6.947  -5.142   2.642  0.00  0.00    +0.046 A 
ATOM     18  C   LIG    1        6.689  -4.128   1.744  0.00  0.00    +0.013 A 
BRANCH  16  19
ATOM     19  O   LIG    1        6.240  -6.511   4.453  0.00  0.00    -0.507 OA
ATOM     20  H   LIG    1        5.984  -7.388   4.136  0.00  0.00    +0.292 HD
ENDBRANCH  16  19
ENDBRANCH   3  13
BRANCH   5  21
ATOM     21  N   LIG    1        6.911  -0.747  -1.856  0.00  0.00    -0.342 N 
ATOM     22  H   LIG    1        6.772  -0.037  -2.503  0.00  0.00    +0.144 HD
ATOM     23  H   LIG    1        7.749  -1.235  -1.845  0.00  0.00    +0.144 HD
ENDBRANCH   5  21
BRANCH   6  24
ATOM     24  C   LIG    1        4.485   0.690  -1.931  0.00  0.00    +0.103 C 
ATOM     25  N   LIG    1        4.315   1.519  -2.689  0.00  0.00    -0.191 NA
ENDBRANCH   6  24
TORSDOF 5
