REMARK  Name = ZINC13522719
REMARK                            x       y       z     vdW  Elec       q    Type
REMARK                         _______ _______ _______ _____ _____    ______ ____
ROOT
ATOM      1  C   LIG    1       -0.006  -2.799  -4.900  0.00  0.00    +0.109 A 
ATOM      2  N   LIG    1       -0.000  -4.097  -5.109  0.00  0.00    -0.239 NA
ATOM      3  C   LIG    1       -0.003  -4.632  -6.347  0.00  0.00    +0.079 A 
ATOM      4  C   LIG    1        0.003  -6.000  -6.707  0.00  0.00    +0.032 A 
ATOM      5  C   LIG    1       -0.000  -6.379  -8.013  0.00  0.00    +0.048 A 
ATOM      6  C   LIG    1       -0.009  -5.443  -9.044  0.00  0.00    +0.121 A 
ATOM      7  C   LIG    1       -0.014  -4.092  -8.732  0.00  0.00    +0.062 A 
ATOM      8  C   LIG    1       -0.012  -3.704  -7.415  0.00  0.00    +0.043 A 
ATOM      9  S   LIG    1       -0.024  -2.145  -6.563  0.00  0.00    -0.067 S 
ENDROOT
BRANCH   1  13
ATOM     10  C   LIG    1        0.000  -0.695  -1.209  0.00  0.00    +0.029 A 
ATOM     11  C   LIG    1        0.013  -2.085  -1.215  0.00  0.00    +0.024 A 
ATOM     12  C   LIG    1        0.011  -2.770  -2.410  0.00  0.00    +0.012 A 
ATOM     13  C   LIG    1       -0.004  -2.067  -3.616  0.00  0.00    +0.007 A 
ATOM     14  C   LIG    1       -0.017  -0.671  -3.607  0.00  0.00    +0.012 A 
ATOM     15  C   LIG    1       -0.021   0.009  -2.409  0.00  0.00    +0.024 A 
BRANCH  10  17
ATOM     16  C   LIG    1       -0.018   1.461   0.010  0.00  0.00    +0.129 C 
ATOM     17  N   LIG    1        0.002  -0.004   0.002  0.00  0.00    -0.336 N 
ATOM     18  C   LIG    1        0.024  -0.743   1.267  0.00  0.00    +0.129 C 
ENDBRANCH  10  17
ENDBRANCH   1  13
BRANCH   6  19
ATOM     19  O   LIG    1       -0.011  -5.850 -10.341  0.00  0.00    -0.495 OA
ATOM     20  C   LIG    1       -0.004  -7.259 -10.580  0.00  0.00    +0.277 C 
ENDBRANCH   6  19
TORSDOF 3
