REMARK  Name = ZINC13522253
REMARK                            x       y       z     vdW  Elec       q    Type
REMARK                         _______ _______ _______ _____ _____    ______ ____
ROOT
ATOM      1  C   LIG    1       -0.659   0.239   3.443  0.00  0.00    +0.020 A 
ATOM      2  C   LIG    1       -0.061  -0.105   4.662  0.00  0.00    +0.016 A 
ATOM      3  C   LIG    1        0.857   0.745   5.239  0.00  0.00    -0.041 A 
ATOM      4  C   LIG    1        1.196   1.936   4.617  0.00  0.00    +0.012 A 
ATOM      5  C   LIG    1        0.618   2.286   3.412  0.00  0.00    +0.001 A 
ATOM      6  C   LIG    1       -0.308   1.445   2.815  0.00  0.00    +0.132 A 
ENDROOT
BRANCH   3   7
ATOM      7  C   LIG    1        1.495   0.377   6.554  0.00  0.00    -0.013 C 
ATOM      8  C   LIG    1        3.012   0.284   6.375  0.00  0.00    +0.015 C 
ATOM      9  C   LIG    1        0.954  -0.975   7.023  0.00  0.00    +0.015 C 
ATOM     10  C   LIG    1        1.169   1.447   7.597  0.00  0.00    +0.015 C 
ENDBRANCH   3   7
BRANCH   5  11
ATOM     11  C   LIG    1        0.995   3.583   2.746  0.00  0.00    -0.009 C 
ATOM     12  C   LIG    1       -0.220   4.513   2.715  0.00  0.00    +0.015 C 
ATOM     13  C   LIG    1        1.461   3.306   1.315  0.00  0.00    +0.015 C 
ATOM     14  C   LIG    1        2.127   4.249   3.530  0.00  0.00    +0.015 C 
ENDBRANCH   5  11
BRANCH   1  16
ATOM     15  C   LIG    1       -2.904  -0.725   3.317  0.00  0.00    +0.004 C 
ATOM     16  C   LIG    1       -1.642  -0.658   2.824  0.00  0.00    -0.040 C 
ATOM     17  C   LIG    1       -1.250  -1.503   1.640  0.00  0.00    +0.044 C 
BRANCH  15  19
ATOM     18  C   LIG    1       -4.537  -0.003   4.919  0.00  0.00    +0.003 C 
ATOM     19  C   LIG    1       -3.270   0.065   4.423  0.00  0.00    +0.001 C 
BRANCH  18  21
ATOM     20  C   LIG    1       -3.893   1.706   6.658  0.00  0.00    +0.044 C 
ATOM     21  C   LIG    1       -4.903   0.786   6.022  0.00  0.00    -0.044 C 
ATOM     22  C   LIG    1       -6.170   0.718   6.518  0.00  0.00    +0.094 C 
BRANCH  22  23
ATOM     23  C   LIG    1       -6.583   1.617   7.524  0.00  0.00    +0.330 C 
ATOM     24  O   LIG    1       -5.848   2.523   7.870  0.00  0.00    -0.246 OA
BRANCH  23  25
ATOM     25  O   LIG    1       -7.795   1.472   8.102  0.00  0.00    -0.478 OA
ATOM     26  H   LIG    1       -8.361   0.775   7.836  0.00  0.00    +0.295 HD
ENDBRANCH  23  25
ENDBRANCH  22  23
ENDBRANCH  18  21
ENDBRANCH  15  19
ENDBRANCH   1  16
BRANCH   6  27
ATOM     27  O   LIG    1       -0.876   1.788   1.631  0.00  0.00    -0.485 OA
BRANCH  27  28
ATOM     28  C   LIG    1       -2.221   2.269   1.673  0.00  0.00    +0.300 C 
BRANCH  28  29
ATOM     29  C   LIG    1       -2.636   2.743   0.279  0.00  0.00    +0.378 C 
ATOM     30  F   LIG    1       -2.550   1.676  -0.622  0.00  0.00    -0.206 F 
ATOM     31  F   LIG    1       -1.786   3.773  -0.136  0.00  0.00    -0.206 F 
ENDBRANCH  28  29
ENDBRANCH  27  28
ENDBRANCH   6  27
TORSDOF 10
