REMARK  Name = ZINC13467527
REMARK                            x       y       z     vdW  Elec       q    Type
REMARK                         _______ _______ _______ _____ _____    ______ ____
ROOT
ATOM      1  C   LIG    1        3.539   3.668   0.751  0.00  0.00    +0.393 C 
ATOM      2  N   LIG    1        4.655   4.336   0.685  0.00  0.00    -0.129 NA
ATOM      3  H   LIG    1        5.491   3.909   0.930  0.00  0.00    +0.306 HD
ENDROOT
BRANCH   1   4
ATOM      4  N   LIG    1        3.530   2.392   1.266  0.00  0.00    -0.242 N 
ATOM      5  H   LIG    1        4.337   2.020   1.653  0.00  0.00    +0.265 HD
BRANCH   4   8
ATOM      6  C   LIG    1        0.398   0.780   2.325  0.00  0.00    +0.005 A 
ATOM      7  C   LIG    1        1.558   1.531   2.362  0.00  0.00    +0.044 A 
ATOM      8  C   LIG    1        2.356   1.632   1.230  0.00  0.00    +0.120 A 
ATOM      9  C   LIG    1        1.985   0.977   0.062  0.00  0.00    +0.098 A 
ATOM     10 CL   LIG    1        2.979   1.100  -1.356  0.00  0.00    -0.078 Cl
ATOM     11  C   LIG    1        0.824   0.227   0.031  0.00  0.00    +0.063 A 
ATOM     12 CL   LIG    1        0.359  -0.593  -1.427  0.00  0.00    -0.082 Cl
ATOM     13  C   LIG    1        0.032   0.129   1.162  0.00  0.00    +0.022 A 
ENDBRANCH   4   8
ENDBRANCH   1   4
BRANCH   1  14
ATOM     14  N   LIG    1        2.366   4.241   0.305  0.00  0.00    -0.186 N 
ATOM     15  H   LIG    1        1.550   3.716   0.276  0.00  0.00    +0.271 HD
BRANCH  14  16
ATOM     16  C   LIG    1        2.352   5.559  -0.100  0.00  0.00    +0.385 C 
ATOM     17  N   LIG    1        1.221   6.143  -0.380  0.00  0.00    -0.129 NA
ATOM     18  H   LIG    1        0.385   5.675  -0.233  0.00  0.00    +0.306 HD
BRANCH  16  19
ATOM     19  N   LIG    1        3.531   6.257  -0.209  0.00  0.00    -0.289 N 
ATOM     20  H   LIG    1        3.531   7.224  -0.131  0.00  0.00    +0.255 HD
ATOM     21  H   LIG    1        4.363   5.783  -0.363  0.00  0.00    +0.255 HD
ENDBRANCH  16  19
ENDBRANCH  14  16
ENDBRANCH   1  14
TORSDOF 5
