REMARK  Name = ZINC13437732
REMARK                            x       y       z     vdW  Elec       q    Type
REMARK                         _______ _______ _______ _____ _____    ______ ____
ROOT
ATOM      1  C   LIG    1        1.428   1.585  -0.228  0.00  0.00    +0.050 A 
ATOM      2  C   LIG    1        2.452   0.718   0.093  0.00  0.00    +0.008 A 
ATOM      3  C   LIG    1        3.734   1.228   0.304  0.00  0.00    +0.005 A 
ATOM      4  C   LIG    1        3.921   2.623   0.190  0.00  0.00    +0.088 A 
ATOM      5  C   LIG    1        2.824   3.421  -0.132  0.00  0.00    +0.059 A 
ATOM      6  N   LIG    1        1.637   2.885  -0.327  0.00  0.00    -0.255 NA
ENDROOT
BRANCH   3   7
ATOM      7  C   LIG    1        4.864   0.333   0.644  0.00  0.00    -0.016 A 
ATOM      8  C   LIG    1        5.309  -0.614  -0.279  0.00  0.00    +0.011 A 
ATOM      9  C   LIG    1        6.364  -1.443   0.040  0.00  0.00    +0.039 A 
ATOM     10  C   LIG    1        6.976  -1.343   1.279  0.00  0.00    +0.123 A 
ATOM     11  F   LIG    1        8.007  -2.160   1.589  0.00  0.00    -0.205 F 
ATOM     12  C   LIG    1        6.536  -0.406   2.201  0.00  0.00    +0.039 A 
ATOM     13  C   LIG    1        5.484   0.430   1.889  0.00  0.00    +0.011 A 
ENDBRANCH   3   7
BRANCH   1  15
ATOM     14  C   LIG    1       -0.473   1.525  -1.819  0.00  0.00    +0.014 C 
ATOM     15  C   LIG    1        0.043   1.040  -0.463  0.00  0.00    +0.032 C 
ATOM     16  C   LIG    1       -0.893   1.530   0.643  0.00  0.00    +0.014 C 
ENDBRANCH   1  15
BRANCH   5  17
ATOM     17  C   LIG    1        2.999   4.913  -0.260  0.00  0.00    +0.032 C 
ATOM     18  C   LIG    1        2.098   5.620   0.754  0.00  0.00    +0.014 C 
ATOM     19  C   LIG    1        2.617   5.352  -1.675  0.00  0.00    +0.014 C 
ENDBRANCH   5  17
BRANCH   4  20
ATOM     20  C   LIG    1        5.250   3.223   0.407  0.00  0.00    +0.341 C 
ATOM     21  O   LIG    1        5.579   3.583   1.520  0.00  0.00    -0.245 OA
BRANCH  20  22
ATOM     22  O   LIG    1        6.100   3.373  -0.628  0.00  0.00    -0.464 OA
ATOM     23  C   LIG    1        7.391   3.971  -0.340  0.00  0.00    +0.280 C 
ENDBRANCH  20  22
ENDBRANCH   4  20
BRANCH   2  24
ATOM     24  C   LIG    1        2.191  -0.762   0.207  0.00  0.00    +0.193 C 
BRANCH  24  25
ATOM     25  O   LIG    1        2.254  -1.358  -1.090  0.00  0.00    -0.390 OA
ATOM     26  H   LIG    1        2.095  -2.312  -1.093  0.00  0.00    +0.210 HD
ENDBRANCH  24  25
ENDBRANCH   2  24
TORSDOF 7
