REMARK  Name = ZINC13530884
REMARK                            x       y       z     vdW  Elec       q    Type
REMARK                         _______ _______ _______ _____ _____    ______ ____
ROOT
ATOM      1  C   LIG    1       -0.026   1.026   2.502  0.00  0.00    +0.207 C 
ENDROOT
BRANCH   1   2
ATOM      2  C   LIG    1       -0.950   1.579   1.415  0.00  0.00    +0.031 C 
ATOM      3  C   LIG    1       -0.479   1.086   0.044  0.00  0.00    -0.012 C 
ATOM      4  C   LIG    1       -1.441   1.591  -1.034  0.00  0.00    -0.082 C 
ATOM      5  N   LIG    1       -2.801   1.089  -0.762  0.00  0.00    +0.379 N 
ATOM      6  H   LIG    1       -3.434   1.405  -1.507  0.00  0.00    -0.086 HD
ATOM      7  H   LIG    1       -2.784   0.062  -0.739  0.00  0.00    -0.086 HD
ATOM      8  C   LIG    1       -3.288   1.595   0.536  0.00  0.00    -0.082 C 
ATOM      9  C   LIG    1       -2.381   1.090   1.660  0.00  0.00    -0.012 C 
ENDBRANCH   1   2
BRANCH   1  13
ATOM     10  C   LIG    1       -1.342   2.404   6.325  0.00  0.00    +0.000 A 
ATOM     11  C   LIG    1       -0.352   3.089   5.646  0.00  0.00    +0.000 A 
ATOM     12  C   LIG    1        0.074   2.643   4.409  0.00  0.00    +0.007 A 
ATOM     13  C   LIG    1       -0.490   1.512   3.851  0.00  0.00    -0.007 A 
ATOM     14  C   LIG    1       -1.484   0.829   4.527  0.00  0.00    +0.007 A 
ATOM     15  C   LIG    1       -1.906   1.272   5.766  0.00  0.00    +0.000 A 
ENDBRANCH   1  13
BRANCH   1  16
ATOM     16  O   LIG    1       -0.058  -0.403   2.473  0.00  0.00    -0.484 OA
BRANCH  16  17
ATOM     17  C   LIG    1        1.023  -1.054   2.977  0.00  0.00    +0.122 A 
ATOM     18  C   LIG    1        2.046  -0.339   3.581  0.00  0.00    +0.048 A 
ATOM     19  C   LIG    1        3.142  -1.003   4.098  0.00  0.00    +0.042 A 
ATOM     20  C   LIG    1        3.224  -2.382   4.002  0.00  0.00    +0.124 A 
ATOM     21  F   LIG    1        4.299  -3.030   4.503  0.00  0.00    -0.205 F 
ATOM     22  C   LIG    1        2.207  -3.097   3.393  0.00  0.00    +0.042 A 
ATOM     23  C   LIG    1        1.108  -2.436   2.881  0.00  0.00    +0.048 A 
ENDBRANCH  16  17
ENDBRANCH   1  16
TORSDOF 4
