REMARK  Name = ZINC13154390
REMARK                            x       y       z     vdW  Elec       q    Type
REMARK                         _______ _______ _______ _____ _____    ______ ____
ROOT
ATOM      1  C   LIG    1       -0.018  -4.279  -0.022  0.00  0.00    -0.003 C 
ATOM      2  C   LIG    1        1.273  -4.700  -0.726  0.00  0.00    +0.015 C 
ATOM      3  C   LIG    1        1.376  -6.226  -0.734  0.00  0.00    -0.009 C 
ATOM      4  C   LIG    1        0.175  -6.814  -1.478  0.00  0.00    +0.007 C 
ATOM      5  C   LIG    1       -1.117  -6.394  -0.773  0.00  0.00    -0.009 C 
ATOM      6  C   LIG    1       -1.105  -6.911   0.666  0.00  0.00    +0.019 C 
ATOM      7  C   LIG    1        0.096  -6.323   1.410  0.00  0.00    +0.048 C 
ATOM      8  C   LIG    1        1.388  -6.744   0.706  0.00  0.00    +0.019 C 
ATOM      9  C   LIG    1       -0.006  -4.797   1.417  0.00  0.00    +0.027 C 
ATOM     10  C   LIG    1       -1.219  -4.867  -0.766  0.00  0.00    +0.015 C 
ENDROOT
BRANCH   7  11
ATOM     11  C   LIG    1        0.108  -6.833   2.828  0.00  0.00    +0.222 C 
ATOM     12  N   LIG    1        0.025  -8.156   3.069  0.00  0.00    -0.305 N 
ATOM     13  C   LIG    1        0.035  -9.128   1.965  0.00  0.00    +0.089 C 
ATOM     14  C   LIG    1        1.085 -10.201   2.272  0.00  0.00    -0.060 C 
ATOM     15  N   LIG    1        0.814 -10.786   3.591  0.00  0.00    +0.380 N 
ATOM     16  H   LIG    1       -0.130 -11.140   3.614  0.00  0.00    -0.082 HD
ATOM     17  C   LIG    1        1.753 -11.888   3.839  0.00  0.00    -0.096 C 
ATOM     18  C   LIG    1        0.977  -9.764   4.634  0.00  0.00    -0.060 C 
ATOM     19  C   LIG    1       -0.073  -8.670   4.444  0.00  0.00    +0.089 C 
ATOM     20  O   LIG    1        0.193  -6.052   3.752  0.00  0.00    -0.275 OA
ENDBRANCH   7  11
BRANCH   1  25
ATOM     21  C   LIG    1       -0.409   1.486   0.007  0.00  0.00    +0.044 C 
ATOM     22  C   LIG    1       -0.307  -0.017  -0.001  0.00  0.00    -0.050 A 
ATOM     23  C   LIG    1       -0.241  -0.699  -1.201  0.00  0.00    +0.003 A 
ATOM     24  C   LIG    1       -0.147  -2.079  -1.208  0.00  0.00    +0.004 A 
ATOM     25  C   LIG    1       -0.119  -2.775  -0.015  0.00  0.00    -0.041 A 
ATOM     26  C   LIG    1       -0.185  -2.093   1.186  0.00  0.00    +0.004 A 
ATOM     27  C   LIG    1       -0.274  -0.714   1.193  0.00  0.00    +0.003 A 
ENDBRANCH   1  25
TORSDOF 2
