REMARK  Name = ZINC13516806
REMARK                            x       y       z     vdW  Elec       q    Type
REMARK                         _______ _______ _______ _____ _____    ______ ____
ROOT
ATOM      1  O   LIG    1        6.578   0.127  -2.488  0.00  0.00    -0.284 OA
ENDROOT
BRANCH   1   2
ATOM      2  P   LIG    1        7.137  -0.969  -3.526  0.00  0.00    +0.483 P 
ATOM      3  O   LIG    1        8.309  -1.740  -2.879  0.00  0.00    -0.227 OA
BRANCH   2   4
ATOM      4  O   LIG    1        6.008  -1.959  -3.888  0.00  0.00    -0.302 OA
ATOM      5  H   LIG    1        5.697  -2.404  -3.084  0.00  0.00    +0.222 HD
ENDBRANCH   2   4
BRANCH   2   6
ATOM      6  O   LIG    1        7.652  -0.231  -4.861  0.00  0.00    -0.186 OA
BRANCH   6   7
ATOM      7  P   LIG    1        8.569  -0.682  -6.105  0.00  0.00    +0.492 P 
ATOM      8  O   LIG    1        9.743  -1.546  -5.593  0.00  0.00    -0.226 OA
BRANCH   7   9
ATOM      9  O   LIG    1        7.720  -1.504  -7.100  0.00  0.00    -0.302 OA
ATOM     10  H   LIG    1        7.371  -2.292  -6.653  0.00  0.00    +0.222 HD
ENDBRANCH   7   9
BRANCH   7  11
ATOM     11  O   LIG    1        9.148   0.625  -6.846  0.00  0.00    -0.186 OA
BRANCH  11  12
ATOM     12  P   LIG    1       10.324   0.875  -7.917  0.00  0.00    +0.481 P 
ATOM     13  O   LIG    1       10.242  -0.193  -9.031  0.00  0.00    -0.227 OA
BRANCH  12  14
ATOM     14  O   LIG    1       11.694   0.776  -7.210  0.00  0.00    -0.302 OA
ATOM     15  H   LIG    1       11.794  -0.107  -6.820  0.00  0.00    +0.222 HD
ENDBRANCH  12  14
BRANCH  12  16
ATOM     16  O   LIG    1       10.159   2.340  -8.564  0.00  0.00    -0.302 OA
ATOM     17  H   LIG    1       10.835   2.558  -9.220  0.00  0.00    +0.222 HD
ENDBRANCH  12  16
ENDBRANCH  11  12
ENDBRANCH   7  11
ENDBRANCH   6   7
ENDBRANCH   2   6
ENDBRANCH   1   2
BRANCH   1  18
ATOM     18  C   LIG    1        6.144  -0.202  -1.167  0.00  0.00    +0.204 C 
BRANCH  18  22
ATOM     19  C   LIG    1        3.606   2.091  -0.022  0.00  0.00    +0.224 C 
ATOM     20  C   LIG    1        4.321   1.903   1.334  0.00  0.00    +0.057 C 
ATOM     21  C   LIG    1        5.320   0.755   1.022  0.00  0.00    +0.038 C 
ATOM     22  C   LIG    1        5.676   1.068  -0.453  0.00  0.00    +0.147 C 
ATOM     23  O   LIG    1        4.456   1.553  -1.040  0.00  0.00    -0.351 OA
BRANCH  19  26
ATOM     24  C   LIG    1        1.075  -0.554  -0.460  0.00  0.00    +0.061 A 
ATOM     25  C   LIG    1        2.263   0.096  -0.473  0.00  0.00    +0.096 A 
ATOM     26  N   LIG    1        2.327   1.377  -0.013  0.00  0.00    -0.273 N 
ATOM     27  C   LIG    1        1.221   1.988   0.451  0.00  0.00    +0.352 A 
ATOM     28  N   LIG    1        0.046   1.362   0.471  0.00  0.00    -0.178 NA
ATOM     29  O   LIG    1        1.297   3.135   0.859  0.00  0.00    -0.244 OA
ATOM     30  C   LIG    1       -0.064   0.115   0.032  0.00  0.00    +0.123 A 
BRANCH  30  31
ATOM     31  N   LIG    1       -1.283  -0.522   0.058  0.00  0.00    -0.343 N 
ATOM     32  H   LIG    1       -2.065  -0.060   0.397  0.00  0.00    +0.144 HD
ATOM     33  H   LIG    1       -1.361  -1.435  -0.263  0.00  0.00    +0.144 HD
ENDBRANCH  30  31
ENDBRANCH  19  26
ENDBRANCH  18  22
ENDBRANCH   1  18
TORSDOF 13
