REMARK  Name = ZINC13208445
REMARK                            x       y       z     vdW  Elec       q    Type
REMARK                         _______ _______ _______ _____ _____    ______ ____
ROOT
ATOM      1  C   LIG    1       -0.025   3.802   0.011  0.00  0.00    +0.161 A 
ATOM      2  C   LIG    1       -1.238   3.128   0.021  0.00  0.00    +0.051 A 
ATOM      3  C   LIG    1       -1.223   1.740   0.018  0.00  0.00    +0.023 A 
ATOM      4  C   LIG    1       -0.013   1.076   0.016  0.00  0.00    +0.113 A 
ATOM      5  N   LIG    1        1.127   1.742   0.006  0.00  0.00    -0.237 NA
ATOM      6  C   LIG    1        1.159   3.064   0.004  0.00  0.00    +0.168 A 
ENDROOT
BRANCH   6   7
ATOM      7  N   LIG    1        2.387   3.727  -0.006  0.00  0.00    -0.251 N 
ATOM      8  H   LIG    1        2.415   4.697  -0.008  0.00  0.00    +0.158 HD
ATOM      9  C   LIG    1        3.534   3.019  -0.013  0.00  0.00    +0.309 C 
ATOM     10  N   LIG    1        4.721   3.659  -0.022  0.00  0.00    -0.269 N 
ATOM     11  H   LIG    1        4.750   4.626  -0.092  0.00  0.00    +0.156 HD
ATOM     12  O   LIG    1        3.499   1.804  -0.010  0.00  0.00    -0.252 OA
BRANCH  10  13
ATOM     13  C   LIG    1        5.910   2.928   0.069  0.00  0.00    +0.036 A 
ATOM     14  C   LIG    1        6.999   3.453   0.753  0.00  0.00    +0.023 A 
ATOM     15  C   LIG    1        8.170   2.727   0.846  0.00  0.00    +0.003 A 
ATOM     16  C   LIG    1        8.264   1.484   0.249  0.00  0.00    +0.020 A 
ATOM     17  C   LIG    1        7.184   0.960  -0.438  0.00  0.00    +0.043 A 
ATOM     18 CL   LIG    1        7.306  -0.602  -1.187  0.00  0.00    -0.083 Cl
ATOM     19  C   LIG    1        6.007   1.679  -0.530  0.00  0.00    +0.043 A 
ENDBRANCH  10  13
ENDBRANCH   6   7
BRANCH   1  20
ATOM     20  O   LIG    1        0.009   5.162   0.007  0.00  0.00    -0.484 OA
BRANCH  20  21
ATOM     21  C   LIG    1       -1.247   5.842   0.015  0.00  0.00    +0.264 C 
BRANCH  21  25
ATOM     22  C   LIG    1       -0.581  10.062   0.001  0.00  0.00    +0.000 A 
ATOM     23  C   LIG    1       -0.698   9.376  -1.194  0.00  0.00    +0.000 A 
ATOM     24  C   LIG    1       -0.913   8.011  -1.189  0.00  0.00    +0.007 A 
ATOM     25  C   LIG    1       -1.012   7.331   0.010  0.00  0.00    -0.010 A 
ATOM     26  C   LIG    1       -0.901   8.017   1.205  0.00  0.00    +0.007 A 
ATOM     27  C   LIG    1       -0.680   9.382   1.201  0.00  0.00    +0.000 A 
ENDBRANCH  21  25
ENDBRANCH  20  21
ENDBRANCH   1  20
TORSDOF 5
