REMARK  Name = ZINC13473554
REMARK                            x       y       z     vdW  Elec       q    Type
REMARK                         _______ _______ _______ _____ _____    ______ ____
ROOT
ATOM      1  C   LIG    1       -0.333  -0.659  -1.274  0.00  0.00    +0.375 C 
ATOM      2  N   LIG    1       -0.034  -0.062  -2.401  0.00  0.00    -0.037 NA
ENDROOT
BRANCH   2   3
ATOM      3  C   LIG    1       -0.012  -0.773  -3.564  0.00  0.00    +0.178 A 
ATOM      4  C   LIG    1        0.800  -1.907  -3.680  0.00  0.00    +0.055 A 
ATOM      5  C   LIG    1        0.817  -2.620  -4.859  0.00  0.00    +0.006 A 
ATOM      6  C   LIG    1        0.035  -2.218  -5.928  0.00  0.00    +0.020 A 
ATOM      7  C   LIG    1       -0.772  -1.097  -5.822  0.00  0.00    +0.045 A 
ATOM      8 CL   LIG    1       -1.750  -0.603  -7.168  0.00  0.00    -0.083 Cl
ATOM      9  C   LIG    1       -0.805  -0.376  -4.646  0.00  0.00    +0.075 A 
ENDBRANCH   2   3
BRANCH   1  11
ATOM     10  C   LIG    1        0.368   1.460   0.025  0.00  0.00    +0.100 C 
ATOM     11  C   LIG    1       -0.225   0.075   0.001  0.00  0.00    +0.244 C 
ATOM     12  O   LIG    1       -0.613  -0.437   1.029  0.00  0.00    -0.284 OA
ENDBRANCH   1  11
BRANCH   1  13
ATOM     13  N   LIG    1       -0.749  -1.977  -1.280  0.00  0.00    -0.136 N 
ATOM     14  H   LIG    1       -0.824  -2.458  -2.119  0.00  0.00    +0.323 HD
BRANCH  13  15
ATOM     15  N   LIG    1       -1.062  -2.618  -0.074  0.00  0.00    -0.196 N 
ATOM     16  H   LIG    1       -0.900  -2.168   0.770  0.00  0.00    +0.194 HD
BRANCH  15  17
ATOM     17  C   LIG    1       -1.607  -3.904  -0.088  0.00  0.00    +0.065 A 
ATOM     18  C   LIG    1       -1.833  -4.551  -1.296  0.00  0.00    +0.026 A 
ATOM     19  C   LIG    1       -2.372  -5.823  -1.306  0.00  0.00    +0.002 A 
ATOM     20  C   LIG    1       -2.686  -6.452  -0.115  0.00  0.00    +0.000 A 
ATOM     21  C   LIG    1       -2.462  -5.810   1.089  0.00  0.00    +0.002 A 
ATOM     22  C   LIG    1       -1.918  -4.541   1.107  0.00  0.00    +0.026 A 
ENDBRANCH  15  17
ENDBRANCH  13  15
ENDBRANCH   1  13
TORSDOF 5
