REMARK  Name = ZINC13216420
REMARK                            x       y       z     vdW  Elec       q    Type
REMARK                         _______ _______ _______ _____ _____    ______ ____
ROOT
ATOM      1  C   LIG    1        1.891  -1.823   0.398  0.00  0.00    +0.211 C 
ATOM      2  O   LIG    1        3.078  -1.992   0.183  0.00  0.00    -0.285 OA
ENDROOT
BRANCH   1   5
ATOM      3  C   LIG    1        3.500   0.814   0.026  0.00  0.00    +0.066 C 
ATOM      4  C   LIG    1        2.052   0.689   0.426  0.00  0.00    +0.044 A 
ATOM      5  C   LIG    1        1.366  -0.468   0.584  0.00  0.00    +0.110 A 
ATOM      6  N   LIG    1        0.063  -0.128   0.958  0.00  0.00    -0.303 N 
ATOM      7  C   LIG    1       -0.007   1.216   1.018  0.00  0.00    +0.325 A 
ATOM      8  O   LIG    1       -0.994   1.864   1.313  0.00  0.00    -0.247 OA
ATOM      9  H   LIG    1       -0.660  -0.748   1.142  0.00  0.00    +0.171 HD
ATOM     10  N   LIG    1        1.198   1.724   0.696  0.00  0.00    -0.310 N 
ATOM     11  H   LIG    1        1.424   2.666   0.664  0.00  0.00    +0.170 HD
ENDBRANCH   1   5
BRANCH   1  12
ATOM     12  C   LIG    1        0.981  -2.984   0.470  0.00  0.00    +0.024 A 
ATOM     13  C   LIG    1       -0.385  -2.821   0.225  0.00  0.00    +0.014 A 
ATOM     14  C   LIG    1       -1.229  -3.907   0.287  0.00  0.00    +0.027 A 
ATOM     15  C   LIG    1       -0.726  -5.163   0.606  0.00  0.00    +0.047 A 
ATOM     16  C   LIG    1        0.632  -5.329   0.857  0.00  0.00    +0.027 A 
ATOM     17  C   LIG    1        1.483  -4.248   0.790  0.00  0.00    +0.014 A 
BRANCH  15  18
ATOM     18  N   LIG    1       -1.587  -6.263   0.674  0.00  0.00    -0.306 N 
ATOM     19  C   LIG    1       -2.942  -6.253   0.458  0.00  0.00    +0.112 A 
ATOM     20  C   LIG    1       -3.372  -7.518   0.622  0.00  0.00    +0.130 A 
ATOM     21  N   LIG    1       -2.316  -8.282   0.938  0.00  0.00    -0.244 NA
ATOM     22  C   LIG    1       -1.242  -7.543   0.972  0.00  0.00    +0.204 A 
ENDBRANCH  15  18
ENDBRANCH   1  12
TORSDOF 3
