REMARK  Name = ZINC13529866
REMARK                            x       y       z     vdW  Elec       q    Type
REMARK                         _______ _______ _______ _____ _____    ______ ____
ROOT
ATOM      1  C   LIG    1        3.520   0.578  -0.029  0.00  0.00    +0.046 A 
ATOM      2  C   LIG    1        4.127  -0.670   0.063  0.00  0.00    +0.025 A 
ATOM      3  C   LIG    1        5.500  -0.773   0.049  0.00  0.00    +0.021 A 
ATOM      4  C   LIG    1        6.284   0.379  -0.058  0.00  0.00    +0.064 A 
ATOM      5  C   LIG    1        5.671   1.631  -0.150  0.00  0.00    +0.074 A 
ATOM      6  C   LIG    1        4.297   1.726  -0.141  0.00  0.00    +0.037 A 
ENDROOT
BRANCH   1  11
ATOM      7  C   LIG    1       -0.719   2.029  -1.216  0.00  0.00    +0.041 C 
ATOM      8  C   LIG    1       -0.018   1.469   0.023  0.00  0.00    +0.107 C 
ATOM      9  C   LIG    1       -0.699   1.966   1.300  0.00  0.00    +0.041 C 
ATOM     10  C   LIG    1        1.451   1.845   0.020  0.00  0.00    +0.250 C 
ATOM     11  N   LIG    1        2.125   0.679  -0.015  0.00  0.00    -0.192 N 
ATOM     12  C   LIG    1        1.296  -0.371  -0.034  0.00  0.00    +0.314 C 
ATOM     13  O   LIG    1        1.670  -1.527  -0.067  0.00  0.00    -0.252 OA
ATOM     14  O   LIG    1        1.920   2.962   0.044  0.00  0.00    -0.272 OA
ATOM     15  N   LIG    1        0.002  -0.004  -0.015  0.00  0.00    -0.285 N 
ATOM     16  H   LIG    1       -0.768  -0.594  -0.024  0.00  0.00    +0.151 HD
ENDBRANCH   1  11
BRANCH   5  17
ATOM     17  C   LIG    1        6.512   2.877  -0.266  0.00  0.00    +0.419 C 
ATOM     18  F   LIG    1        7.301   2.801  -1.419  0.00  0.00    -0.166 F 
ATOM     19  F   LIG    1        7.339   2.987   0.858  0.00  0.00    -0.166 F 
ATOM     20  F   LIG    1        5.678   3.997  -0.343  0.00  0.00    -0.166 F 
ENDBRANCH   5  17
BRANCH   4  21
ATOM     21  C   LIG    1        7.713   0.276  -0.073  0.00  0.00    +0.100 C 
ATOM     22  N   LIG    1        8.845   0.195  -0.086  0.00  0.00    -0.191 NA
ENDBRANCH   4  21
TORSDOF 3
