REMARK  Name = ZINC13472727
REMARK                            x       y       z     vdW  Elec       q    Type
REMARK                         _______ _______ _______ _____ _____    ______ ____
ROOT
ATOM      1  C   LIG    1        1.247  -2.164  -0.021  0.00  0.00    +0.040 A 
ATOM      2  C   LIG    1        0.505  -2.897   0.902  0.00  0.00    +0.126 A 
ATOM      3  N   LIG    1        0.551  -4.219   0.862  0.00  0.00    -0.222 NA
ATOM      4  C   LIG    1        1.297  -4.850  -0.035  0.00  0.00    +0.214 A 
ATOM      5  N   LIG    1        2.022  -4.195  -0.928  0.00  0.00    -0.200 NA
ATOM      6  C   LIG    1        2.027  -2.867  -0.957  0.00  0.00    +0.129 A 
ENDROOT
BRANCH   1   9
ATOM      7  C   LIG    1        2.383   1.420  -0.013  0.00  0.00    +0.002 A 
ATOM      8  C   LIG    1        2.413   0.040  -0.021  0.00  0.00    +0.009 A 
ATOM      9  C   LIG    1        1.220  -0.681  -0.013  0.00  0.00    -0.012 A 
ATOM     10  C   LIG    1        0.002  -0.004   0.002  0.00  0.00    +0.028 A 
ATOM     11  C   LIG    1       -0.017   1.377   0.010  0.00  0.00    +0.042 A 
ATOM     12 CL   LIG    1       -1.532   2.223   0.021  0.00  0.00    -0.084 Cl
ATOM     13  C   LIG    1        1.172   2.087   0.002  0.00  0.00    +0.020 A 
ENDBRANCH   1   9
BRANCH   4  14
ATOM     14  N   LIG    1        1.318  -6.233  -0.036  0.00  0.00    -0.327 N 
ATOM     15  H   LIG    1        0.791  -6.727   0.612  0.00  0.00    +0.145 HD
ATOM     16  H   LIG    1        1.859  -6.709  -0.685  0.00  0.00    +0.145 HD
ENDBRANCH   4  14
BRANCH   6  17
ATOM     17  N   LIG    1        2.787  -2.187  -1.893  0.00  0.00    -0.343 N 
ATOM     18  H   LIG    1        3.321  -2.680  -2.534  0.00  0.00    +0.144 HD
ATOM     19  H   LIG    1        2.784  -1.217  -1.907  0.00  0.00    +0.144 HD
ENDBRANCH   6  17
TORSDOF 3
