REMARK  Name = ZINC13282284
REMARK                            x       y       z     vdW  Elec       q    Type
REMARK                         _______ _______ _______ _____ _____    ______ ____
ROOT
ATOM      1  C   LIG    1        1.071   3.526   0.010  0.00  0.00    +0.066 C 
ATOM      2  C   LIG    1        1.108   2.019   0.002  0.00  0.00    +0.053 A 
ATOM      3  C   LIG    1        2.326   1.343  -0.013  0.00  0.00    +0.043 A 
ATOM      4  C   LIG    1        2.307  -0.064  -0.020  0.00  0.00    +0.129 A 
ATOM      5  N   LIG    1        1.135  -0.689  -0.012  0.00  0.00    -0.199 NA
ATOM      6  C   LIG    1        0.002  -0.004   0.002  0.00  0.00    +0.214 A 
ATOM      7  N   LIG    1       -0.016   1.321   0.009  0.00  0.00    -0.219 NA
ENDROOT
BRANCH   3   8
ATOM      8  C   LIG    1        3.609   2.087  -0.021  0.00  0.00    -0.013 A 
ATOM      9  C   LIG    1        3.966   2.877   1.071  0.00  0.00    +0.010 A 
ATOM     10  C   LIG    1        5.163   3.564   1.060  0.00  0.00    +0.020 A 
ATOM     11  C   LIG    1        6.004   3.476  -0.036  0.00  0.00    +0.041 A 
ATOM     12 CL   LIG    1        7.505   4.348  -0.046  0.00  0.00    -0.084 Cl
ATOM     13  C   LIG    1        5.652   2.696  -1.124  0.00  0.00    +0.020 A 
ATOM     14  C   LIG    1        4.460   2.002  -1.122  0.00  0.00    +0.010 A 
ENDBRANCH   3   8
BRANCH   4  15
ATOM     15  N   LIG    1        3.489  -0.783  -0.034  0.00  0.00    -0.343 N 
ATOM     16  H   LIG    1        4.340  -0.318  -0.040  0.00  0.00    +0.144 HD
ATOM     17  H   LIG    1        3.466  -1.753  -0.038  0.00  0.00    +0.144 HD
ENDBRANCH   4  15
BRANCH   6  18
ATOM     18  N   LIG    1       -1.198  -0.692   0.010  0.00  0.00    -0.327 N 
ATOM     19  H   LIG    1       -1.202  -1.662   0.005  0.00  0.00    +0.145 HD
ATOM     20  H   LIG    1       -2.037  -0.204   0.020  0.00  0.00    +0.145 HD
ENDBRANCH   6  18
TORSDOF 3
