REMARK  Name = ZINC13549136
REMARK                            x       y       z     vdW  Elec       q    Type
REMARK                         _______ _______ _______ _____ _____    ______ ____
ROOT
ATOM      1  C   LIG    1        1.170   2.088   0.002  0.00  0.00    +0.009 A 
ATOM      2  C   LIG    1        2.377   1.417  -0.013  0.00  0.00    +0.046 A 
ATOM      3  C   LIG    1        2.399   0.030  -0.020  0.00  0.00    +0.117 A 
ATOM      4  C   LIG    1        1.207  -0.680  -0.013  0.00  0.00    +0.046 A 
ATOM      5  C   LIG    1        0.002  -0.004   0.002  0.00  0.00    +0.009 A 
ATOM      6  C   LIG    1       -0.017   1.378   0.010  0.00  0.00    -0.028 A 
ENDROOT
BRANCH   3   7
ATOM      7  O   LIG    1        3.586  -0.632  -0.035  0.00  0.00    -0.507 OA
ATOM      8  H   LIG    1        3.921  -0.819  -0.923  0.00  0.00    +0.292 HD
ENDBRANCH   3   7
BRANCH   6   9
ATOM      9  C   LIG    1       -1.333   2.113   0.020  0.00  0.00    +0.157 C 
BRANCH   9  10
ATOM     10  N   LIG    1       -1.752   2.343   1.404  0.00  0.00    -0.334 N 
ATOM     11  C   LIG    1       -1.448   3.433   2.175  0.00  0.00    +0.105 A 
ATOM     12  C   LIG    1       -2.032   3.239   3.373  0.00  0.00    +0.101 A 
ATOM     13  N   LIG    1       -2.674   2.063   3.334  0.00  0.00    -0.352 N 
ATOM     14  H   LIG    1       -3.207   1.651   4.109  0.00  0.00    +0.166 HD
ATOM     15  C   LIG    1       -2.517   1.523   2.157  0.00  0.00    +0.174 A 
ENDBRANCH   9  10
ENDBRANCH   6   9
TORSDOF 3
