REMARK  Name = ZINC13488301
REMARK                            x       y       z     vdW  Elec       q    Type
REMARK                         _______ _______ _______ _____ _____    ______ ____
ROOT
ATOM      1  CA  TYR A  1        1.248   1.716  -0.001  0.00  0.00    +0.186 C 
ENDROOT
BRANCH   1   3
ATOM      2  C   UNK A  0       -1.187   1.624   0.017  0.00  0.00    +0.246 C 
ATOM      3  N   TYR A  1       -0.011   0.966   0.007  0.00  0.00    -0.298 N 
ATOM      4  H   TYR A  1        0.002  -0.004   0.002  0.00  0.00    +0.150 HD
ATOM      5  O   UNK A  0       -1.204   2.839   0.023  0.00  0.00    -0.270 OA
BRANCH   2  11
ATOM      6  C   UNK A  0       -3.630  -1.228   0.012  0.00  0.00    +0.001 A 
ATOM      7  C   UNK A  0       -4.837  -0.550   0.021  0.00  0.00    +0.001 A 
ATOM      8  C   UNK A  0       -4.860   0.833   0.029  0.00  0.00    +0.016 A 
ATOM      9  C   UNK A  0       -3.678   1.546   0.028  0.00  0.00    +0.030 A 
ATOM     10 BR   UNK A  0       -3.711   3.437   0.038  0.00  0.00    -0.050 Br
ATOM     11  C   UNK A  0       -2.457   0.868   0.018  0.00  0.00    +0.051 A 
ATOM     12  C   UNK A  0       -2.442  -0.528   0.005  0.00  0.00    +0.014 A 
ENDBRANCH   2  11
ENDBRANCH   1   3
BRANCH   1  13
ATOM     13  C   TYR A  1        1.602   2.087  -1.417  0.00  0.00    +0.326 C 
ATOM     14  O   TYR A  1        0.878   1.758  -2.327  0.00  0.00    -0.249 OA
BRANCH  13  15
ATOM     15  OXT TYR A  1        2.723   2.782  -1.669  0.00  0.00    -0.479 OA
ATOM     16  HXT TYR A  1        3.284   3.036  -0.963  0.00  0.00    +0.295 HD
ENDBRANCH  13  15
ENDBRANCH   1  13
BRANCH   1  17
ATOM     17  CB  TYR A  1        2.361   0.850   0.594  0.00  0.00    +0.069 C 
BRANCH  17  18
ATOM     18  CG  TYR A  1        2.066   0.581   2.047  0.00  0.00    -0.045 A 
ATOM     19  CD2 TYR A  1        2.541   1.443   3.018  0.00  0.00    +0.007 A 
ATOM     20  CE2 TYR A  1        2.267   1.202   4.351  0.00  0.00    +0.045 A 
ATOM     21  CZ  TYR A  1        1.525   0.088   4.715  0.00  0.00    +0.117 A 
ATOM     22  CE1 TYR A  1        1.054  -0.779   3.739  0.00  0.00    +0.045 A 
ATOM     23  CD1 TYR A  1        1.326  -0.530   2.407  0.00  0.00    +0.007 A 
BRANCH  21  24
ATOM     24  OH  TYR A  1        1.259  -0.155   6.025  0.00  0.00    -0.507 OA
ATOM     25  HH  TYR A  1        1.924  -0.699   6.468  0.00  0.00    +0.292 HD
ENDBRANCH  21  24
ENDBRANCH  17  18
ENDBRANCH   1  17
TORSDOF 7
