REMARK  Name = ZINC13135448
REMARK                            x       y       z     vdW  Elec       q    Type
REMARK                         _______ _______ _______ _____ _____    ______ ____
ROOT
ATOM      1  C   LIG    1        1.519   0.042   6.111  0.00  0.00    +0.018 C 
ATOM      2  C   LIG    1        2.572  -0.805   6.148  0.00  0.00    +0.038 C 
ATOM      3  C   LIG    1        3.269  -1.302   4.893  0.00  0.00    +0.268 C 
ATOM      4  O   LIG    1        4.674  -1.070   5.042  0.00  0.00    -0.487 OA
ATOM      5  C   LIG    1        5.294  -1.431   6.189  0.00  0.00    +0.132 A 
ATOM      6  C   LIG    1        6.665  -1.665   6.175  0.00  0.00    +0.046 A 
ATOM      7  C   LIG    1        7.324  -2.005   7.339  0.00  0.00    +0.004 A 
ATOM      8  C   LIG    1        6.633  -2.120   8.535  0.00  0.00    +0.001 A 
ATOM      9  C   LIG    1        5.272  -1.898   8.570  0.00  0.00    +0.015 A 
ATOM     10  C   LIG    1        4.599  -1.558   7.398  0.00  0.00    +0.064 A 
ATOM     11  C   LIG    1        3.132  -1.327   7.416  0.00  0.00    +0.196 C 
ATOM     12  O   LIG    1        2.443  -1.550   8.395  0.00  0.00    -0.287 OA
ENDROOT
BRANCH   1  16
ATOM     13  C   LIG    1       -0.274   1.043   2.397  0.00  0.00    +0.161 A 
ATOM     14  C   LIG    1       -0.215   1.986   3.415  0.00  0.00    +0.050 A 
ATOM     15  C   LIG    1        0.366   1.666   4.622  0.00  0.00    +0.012 A 
ATOM     16  C   LIG    1        0.898   0.387   4.825  0.00  0.00    -0.021 A 
ATOM     17  C   LIG    1        0.838  -0.563   3.797  0.00  0.00    +0.057 A 
ATOM     18  C   LIG    1        0.249  -0.235   2.592  0.00  0.00    +0.159 A 
BRANCH  13  20
ATOM     19  C   LIG    1       -1.369   2.689   1.078  0.00  0.00    +0.277 C 
ATOM     20  O   LIG    1       -0.848   1.365   1.209  0.00  0.00    -0.491 OA
ENDBRANCH  13  20
BRANCH  18  21
ATOM     21  O   LIG    1        0.184  -1.156   1.594  0.00  0.00    -0.503 OA
ATOM     22  H   LIG    1        0.949  -1.149   1.002  0.00  0.00    +0.292 HD
ENDBRANCH  18  21
ENDBRANCH   1  16
TORSDOF 3
