REMARK  Name = ZINC13126023
REMARK                            x       y       z     vdW  Elec       q    Type
REMARK                         _______ _______ _______ _____ _____    ______ ____
ROOT
ATOM      1  N   LIG    1        4.041   0.725   1.367  0.00  0.00    -0.295 N 
ATOM      2  C   LIG    1        4.319   1.877   2.065  0.00  0.00    +0.165 A 
ATOM      3  N   LIG    1        4.832   1.515   3.218  0.00  0.00    -0.128 NA
ATOM      4  N   LIG    1        4.892   0.233   3.288  0.00  0.00    -0.122 NA
ATOM      5  C   LIG    1        4.417  -0.302   2.187  0.00  0.00    +0.193 A 
ENDROOT
BRANCH   2   6
ATOM      6  C   LIG    1        4.086   3.262   1.604  0.00  0.00    +0.020 A 
ATOM      7  C   LIG    1        4.721   4.329   2.242  0.00  0.00    +0.015 A 
ATOM      8  C   LIG    1        4.501   5.619   1.808  0.00  0.00    +0.046 A 
ATOM      9  C   LIG    1        3.649   5.858   0.738  0.00  0.00    +0.117 A 
ATOM     10  C   LIG    1        3.015   4.799   0.101  0.00  0.00    +0.046 A 
ATOM     11  C   LIG    1        3.235   3.506   0.524  0.00  0.00    +0.015 A 
BRANCH   9  12
ATOM     12  O   LIG    1        3.435   7.130   0.314  0.00  0.00    -0.507 OA
ATOM     13  H   LIG    1        4.054   7.428  -0.367  0.00  0.00    +0.292 HD
ENDBRANCH   9  12
ENDBRANCH   2   6
BRANCH   1  14
ATOM     14  C   LIG    1        3.457   0.620   0.028  0.00  0.00    +0.200 C 
BRANCH  14  17
ATOM     15  C   LIG    1       -0.212   0.683   0.370  0.00  0.00    +0.041 A 
ATOM     16  C   LIG    1        1.038   1.341   0.313  0.00  0.00    +0.046 A 
ATOM     17  C   LIG    1        1.972   0.388   0.144  0.00  0.00    +0.125 A 
ATOM     18  O   LIG    1        1.358  -0.805   0.096  0.00  0.00    -0.466 OA
ATOM     19  C   LIG    1        0.033  -0.633   0.232  0.00  0.00    +0.195 A 
ENDBRANCH  14  17
ENDBRANCH   1  14
BRANCH   5  20
ATOM     20  S   LIG    1        4.292  -2.023   1.830  0.00  0.00    -0.078 S 
BRANCH  20  21
ATOM     21  C   LIG    1        4.955  -2.828   3.314  0.00  0.00    +0.157 C 
BRANCH  21  22
ATOM     22  C   LIG    1        4.905  -4.324   3.139  0.00  0.00    +0.180 C 
ATOM     23  O   LIG    1        4.465  -4.801   2.113  0.00  0.00    -0.291 OA
BRANCH  22  24
ATOM     24  C   LIG    1        5.371  -5.171   4.169  0.00  0.00    +0.055 A 
ATOM     25  C   LIG    1        5.418  -6.562   4.207  0.00  0.00    +0.019 A 
ATOM     26  C   LIG    1        5.929  -7.108   5.357  0.00  0.00    +0.008 A 
ATOM     27  C   LIG    1        6.342  -6.283   6.353  0.00  0.00    +0.046 A 
ATOM     28  S   LIG    1        6.057  -4.739   5.756  0.00  0.00    -0.094 S 
ENDBRANCH  22  24
ENDBRANCH  21  22
ENDBRANCH  20  21
ENDBRANCH   5  20
TORSDOF 8
