REMARK  Name = ZINC13131051
REMARK                            x       y       z     vdW  Elec       q    Type
REMARK                         _______ _______ _______ _____ _____    ______ ____
ROOT
ATOM      1  N   LIG    1       -1.416  -1.993  -0.116  0.00  0.00    -0.311 N 
ATOM      2  C   LIG    1       -1.451  -2.556  -1.376  0.00  0.00    +0.056 A 
ATOM      3  C   LIG    1       -1.500  -1.753  -2.511  0.00  0.00    +0.026 A 
ATOM      4  C   LIG    1       -1.533  -2.331  -3.761  0.00  0.00    +0.002 A 
ATOM      5  C   LIG    1       -1.518  -3.712  -3.903  0.00  0.00    +0.001 A 
ATOM      6  C   LIG    1       -1.470  -4.524  -2.792  0.00  0.00    +0.014 A 
ATOM      7  C   LIG    1       -1.435  -3.953  -1.520  0.00  0.00    +0.046 A 
ATOM      8  C   LIG    1       -1.383  -4.793  -0.309  0.00  0.00    +0.208 A 
ATOM      9  C   LIG    1       -1.351  -4.139   0.952  0.00  0.00    +0.174 A 
ATOM     10  O   LIG    1       -1.368  -6.010  -0.388  0.00  0.00    -0.286 OA
ATOM     11  C   LIG    1       -1.362  -2.751   1.005  0.00  0.00    +0.212 A 
ENDROOT
BRANCH   9  12
ATOM     12  C   LIG    1       -1.299  -4.928   2.194  0.00  0.00    +0.358 C 
ATOM     13  N   LIG    1       -1.276  -4.274   3.313  0.00  0.00    +0.096 NA
ATOM     14  S   LIG    1       -1.207  -5.072   4.765  0.00  0.00    +0.183 S 
ATOM     15  C   LIG    1       -0.754  -6.733   4.384  0.00  0.00    +0.179 A 
ATOM     16  C   LIG    1       -0.326  -7.592   5.372  0.00  0.00    +0.035 A 
ATOM     17  C   LIG    1        0.026  -8.891   5.049  0.00  0.00    +0.002 A 
ATOM     18  C   LIG    1       -0.051  -9.323   3.737  0.00  0.00    +0.004 A 
ATOM     19  C   LIG    1       -0.480  -8.465   2.745  0.00  0.00    +0.051 A 
ATOM     20  C   LIG    1       -0.837  -7.160   3.063  0.00  0.00    +0.148 A 
ATOM     21  O   LIG    1       -2.533  -5.111   5.275  0.00  0.00    -0.125 OA
ATOM     22  O   LIG    1       -0.124  -4.508   5.492  0.00  0.00    -0.125 OA
ATOM     23  N   LIG    1       -1.283  -6.288   2.072  0.00  0.00    -0.196 N 
ATOM     24  H   LIG    1       -1.608  -6.678   1.228  0.00  0.00    +0.299 HD
ENDBRANCH   9  12
BRANCH  11  25
ATOM     25  O   LIG    1       -1.324  -2.142   2.207  0.00  0.00    -0.493 OA
ATOM     26  H   LIG    1       -1.331  -1.206   2.258  0.00  0.00    +0.294 HD
ENDBRANCH  11  25
BRANCH   1  27
ATOM     27  C   LIG    1       -1.433  -0.534   0.013  0.00  0.00    +0.128 C 
BRANCH  27  29
ATOM     28  C   LIG    1       -0.019   1.526   0.010  0.00  0.00    +0.009 C 
ATOM     29  C   LIG    1        0.002  -0.004   0.002  0.00  0.00    +0.003 C 
ATOM     30  C   LIG    1        0.742  -0.511   1.242  0.00  0.00    +0.009 C 
ENDBRANCH  27  29
ENDBRANCH   1  27
TORSDOF 4
