REMARK  Name = ZINC13474160
REMARK                            x       y       z     vdW  Elec       q    Type
REMARK                         _______ _______ _______ _____ _____    ______ ____
ROOT
ATOM      1  C   LIG    1       -2.501   1.008   0.019  0.00  0.00    +0.193 C 
ATOM      2  O   LIG    1       -2.514  -0.200   0.159  0.00  0.00    -0.287 OA
ENDROOT
BRANCH   1   6
ATOM      3  C   LIG    1        1.159   3.017  -0.772  0.00  0.00    +0.161 A 
ATOM      4  C   LIG    1        1.147   1.890   0.039  0.00  0.00    +0.050 A 
ATOM      5  C   LIG    1       -0.037   1.234   0.296  0.00  0.00    +0.015 A 
ATOM      6  C   LIG    1       -1.232   1.706  -0.258  0.00  0.00    +0.026 A 
ATOM      7  C   LIG    1       -1.218   2.838  -1.079  0.00  0.00    +0.061 A 
ATOM      8  C   LIG    1       -0.028   3.490  -1.331  0.00  0.00    +0.159 A 
BRANCH   3  10
ATOM      9  C   LIG    1        3.506   3.121  -0.416  0.00  0.00    +0.277 C 
ATOM     10  O   LIG    1        2.329   3.660  -1.021  0.00  0.00    -0.491 OA
ENDBRANCH   3  10
BRANCH   8  11
ATOM     11  O   LIG    1       -0.012   4.595  -2.125  0.00  0.00    -0.503 OA
ATOM     12  H   LIG    1       -0.138   5.425  -1.646  0.00  0.00    +0.292 HD
ENDBRANCH   8  11
ENDBRANCH   1   6
BRANCH   1  13
ATOM     13  C   LIG    1       -3.757   1.776   0.127  0.00  0.00    +0.029 A 
ATOM     14  C   LIG    1       -3.724   3.174   0.133  0.00  0.00    +0.061 A 
ATOM     15  C   LIG    1       -4.902   3.890   0.229  0.00  0.00    +0.166 A 
ATOM     16  C   LIG    1       -6.119   3.222   0.331  0.00  0.00    +0.204 A 
ATOM     17  C   LIG    1       -6.154   1.829   0.331  0.00  0.00    +0.166 A 
ATOM     18  C   LIG    1       -4.980   1.108   0.230  0.00  0.00    +0.061 A 
BRANCH  15  19
ATOM     19  O   LIG    1       -4.872   5.250   0.229  0.00  0.00    -0.491 OA
ATOM     20  C   LIG    1       -3.589   5.871   0.121  0.00  0.00    +0.277 C 
ENDBRANCH  15  19
BRANCH  16  21
ATOM     21  O   LIG    1       -7.275   3.929   0.432  0.00  0.00    -0.488 OA
ATOM     22  C   LIG    1       -7.719   4.263   1.748  0.00  0.00    +0.277 C 
ENDBRANCH  16  21
BRANCH  17  23
ATOM     23  O   LIG    1       -7.345   1.179   0.431  0.00  0.00    -0.491 OA
ATOM     24  C   LIG    1       -7.306  -0.249   0.425  0.00  0.00    +0.277 C 
ENDBRANCH  17  23
ENDBRANCH   1  13
TORSDOF 7
