REMARK  Name = ZINC13493870
REMARK                            x       y       z     vdW  Elec       q    Type
REMARK                         _______ _______ _______ _____ _____    ______ ____
ROOT
ATOM      1  N   LIG    1        3.812  -0.918   1.601  0.00  0.00    +0.382 N 
ATOM      2  H   LIG    1        3.147  -1.367   2.212  0.00  0.00    -0.081 HD
ATOM      3  C   LIG    1        4.222   0.364   2.188  0.00  0.00    -0.077 C 
ATOM      4  C   LIG    1        4.798   0.129   3.585  0.00  0.00    -0.004 C 
ATOM      5  C   LIG    1        6.012  -0.799   3.482  0.00  0.00    +0.030 C 
ATOM      6  C   LIG    1        5.589  -2.104   2.801  0.00  0.00    -0.004 C 
ATOM      7  C   LIG    1        4.984  -1.786   1.432  0.00  0.00    -0.077 C 
ENDROOT
BRANCH   5   8
ATOM      8  C   LIG    1        7.088  -0.130   2.665  0.00  0.00    +0.147 C 
ATOM      9  O   LIG    1        6.947   1.012   2.299  0.00  0.00    -0.296 OA
BRANCH   8  10
ATOM     10  C   LIG    1        8.341  -0.887   2.305  0.00  0.00    +0.161 C 
BRANCH  10  11
ATOM     11  C   LIG    1        9.186  -0.050   1.380  0.00  0.00    +0.246 C 
ATOM     12  O   LIG    1        8.809   1.049   1.048  0.00  0.00    -0.285 OA
BRANCH  11  13
ATOM     13  C   LIG    1       10.488  -0.578   0.875  0.00  0.00    +0.373 C 
ATOM     14  O   LIG    1       11.172   0.101   0.126  0.00  0.00    -0.242 OA
BRANCH  13  15
ATOM     15  O   LIG    1       10.868  -1.688   1.211  0.00  0.00    -0.475 OA
ATOM     16  H   LIG    1       10.343  -2.209   1.786  0.00  0.00    +0.295 HD
ENDBRANCH  13  15
ENDBRANCH  11  13
ENDBRANCH  10  11
ENDBRANCH   8  10
ENDBRANCH   5   8
BRANCH   1  17
ATOM     17  C   LIG    1        3.189  -0.679   0.292  0.00  0.00    -0.043 C 
BRANCH  17  21
ATOM     18  C   LIG    1       -0.415   1.555   0.816  0.00  0.00    +0.000 A 
ATOM     19  C   LIG    1        0.785   2.214   0.625  0.00  0.00    +0.000 A 
ATOM     20  C   LIG    1        1.952   1.491   0.456  0.00  0.00    +0.002 A 
ATOM     21  C   LIG    1        1.918   0.109   0.478  0.00  0.00    -0.064 A 
ATOM     22  C   LIG    1        0.718  -0.550   0.670  0.00  0.00    +0.002 A 
ATOM     23  C   LIG    1       -0.449   0.173   0.838  0.00  0.00    +0.000 A 
ENDBRANCH  17  21
ENDBRANCH   1  17
BRANCH   5  24
ATOM     24  C   LIG    1        6.546  -1.102   4.883  0.00  0.00    +0.049 C 
BRANCH  24  25
ATOM     25  C   LIG    1        6.937   0.185   5.561  0.00  0.00    -0.046 A 
ATOM     26  C   LIG    1        8.209   0.698   5.389  0.00  0.00    +0.005 A 
ATOM     27  C   LIG    1        8.569   1.879   6.011  0.00  0.00    +0.020 A 
ATOM     28  C   LIG    1        7.655   2.548   6.806  0.00  0.00    +0.041 A 
ATOM     29 CL   LIG    1        8.106   4.031   7.588  0.00  0.00    -0.084 Cl
ATOM     30  C   LIG    1        6.382   2.034   6.978  0.00  0.00    +0.020 A 
ATOM     31  C   LIG    1        6.022   0.856   6.351  0.00  0.00    +0.005 A 
ENDBRANCH  24  25
ENDBRANCH   5  24
TORSDOF 9
