REMARK  Name = ZINC13509082
REMARK                            x       y       z     vdW  Elec       q    Type
REMARK                         _______ _______ _______ _____ _____    ______ ____
ROOT
ATOM      1  C   UNK    1        0.596  -3.135  -0.019  0.00  0.00    +0.253 C 
ATOM      2  C   UNK    1        0.213  -3.523   1.431  0.00  0.00    +0.195 C 
ATOM      3  C   UNK    1       -0.170  -5.016   1.277  0.00  0.00    +0.177 C 
ATOM      4  C   UNK    1        0.521  -5.449  -0.031  0.00  0.00    +0.162 C 
ATOM      5  O   UNK    1        1.255  -4.315  -0.525  0.00  0.00    -0.347 OA
ENDROOT
BRANCH   1  11
ATOM      6  C   UNK    1       -0.016   1.312   0.009  0.00  0.00    +0.225 A 
ATOM      7  N   UNK    1        1.089   2.036   0.003  0.00  0.00    -0.219 NA
ATOM      8  C   UNK    1        2.288   1.462  -0.012  0.00  0.00    +0.147 A 
ATOM      9  C   UNK    1        2.358   0.059  -0.020  0.00  0.00    +0.147 A 
ATOM     10  C   UNK    1        1.155  -0.666  -0.013  0.00  0.00    +0.167 A 
ATOM     11  N   UNK    1        1.511  -1.991  -0.023  0.00  0.00    -0.286 N 
ATOM     12  C   UNK    1        2.873  -2.048  -0.036  0.00  0.00    +0.203 A 
ATOM     13  N   UNK    1        3.368  -0.844  -0.034  0.00  0.00    -0.231 NA
ATOM     14  N   UNK    1        0.002  -0.004   0.002  0.00  0.00    -0.216 NA
BRANCH   8  15
ATOM     15  N   UNK    1        3.439   2.229  -0.019  0.00  0.00    -0.341 N 
ATOM     16  H   UNK    1        4.309   1.799  -0.030  0.00  0.00    +0.144 HD
ATOM     17  H   UNK    1        3.377   3.197  -0.014  0.00  0.00    +0.144 HD
ENDBRANCH   8  15
ENDBRANCH   1  11
BRANCH   2  18
ATOM     18  O   UNK    1       -0.902  -2.755   1.888  0.00  0.00    -0.385 OA
ATOM     19  H   UNK    1       -1.179  -2.962   2.791  0.00  0.00    +0.210 HD
ENDBRANCH   2  18
BRANCH   3  20
ATOM     20  O   UNK    1       -1.587  -5.160   1.169  0.00  0.00    -0.386 OA
ATOM     21  H   UNK    1       -2.074  -4.848   1.944  0.00  0.00    +0.210 HD
ENDBRANCH   3  20
BRANCH   4  22
ATOM     22  C   UNK    1        1.475  -6.613   0.245  0.00  0.00    +0.103 C 
BRANCH  22  23
ATOM     23  S   UNK    1        2.281  -7.114  -1.300  0.00  0.00    -0.158 S 
BRANCH  23  24
ATOM     24  C   UNK    1        3.363  -8.484  -0.807  0.00  0.00    +0.068 C 
BRANCH  24  25
ATOM     25  C   UNK    1        4.113  -9.008  -2.033  0.00  0.00    +0.005 C 
BRANCH  25  26
ATOM     26  C   UNK    1        5.026 -10.163  -1.617  0.00  0.00    +0.036 C 
BRANCH  26  27
ATOM     27  N   UNK    1        4.208 -11.290  -1.151  0.00  0.00    +0.387 N 
ATOM     28  H   UNK    1        3.653 -10.999  -0.360  0.00  0.00    -0.089 HD
ATOM     29  H   UNK    1        4.810 -12.052  -0.876  0.00  0.00    -0.089 HD
ATOM     30  H   UNK    1        3.599 -11.595  -1.895  0.00  0.00    -0.089 HD
ENDBRANCH  26  27
BRANCH  26  31
ATOM     31  C   UNK    1        5.855 -10.598  -2.798  0.00  0.00    +0.290 C 
ATOM     32  O   UNK    1        6.738  -9.873  -3.224  0.00  0.00    -0.253 OA
BRANCH  31  33
ATOM     33  O   UNK    1        5.644 -11.676  -3.327  0.00  0.00    -0.482 OA
ATOM     34  H   UNK    1        4.966 -12.234  -2.999  0.00  0.00    +0.295 HD
ENDBRANCH  31  33
ENDBRANCH  26  31
ENDBRANCH  25  26
ENDBRANCH  24  25
ENDBRANCH  23  24
ENDBRANCH  22  23
ENDBRANCH   4  22
TORSDOF 12
