REMARK  Name = ZINC13509104
REMARK                            x       y       z     vdW  Elec       q    Type
REMARK                         _______ _______ _______ _____ _____    ______ ____
ROOT
ATOM      1  C   UNK    1        0.980  -6.104  -3.721  0.00  0.00    +0.253 C 
ATOM      2  C   UNK    1        2.249  -5.875  -4.571  0.00  0.00    +0.195 C 
ATOM      3  C   UNK    1        2.905  -4.627  -3.940  0.00  0.00    +0.177 C 
ATOM      4  C   UNK    1        1.954  -4.249  -2.783  0.00  0.00    +0.162 C 
ATOM      5  O   UNK    1        0.677  -4.809  -3.156  0.00  0.00    -0.347 OA
ENDROOT
BRANCH   1  11
ATOM      6  C   UNK    1       -0.275 -10.138  -5.235  0.00  0.00    +0.225 A 
ATOM      7  N   UNK    1       -1.356 -10.148  -5.994  0.00  0.00    -0.219 NA
ATOM      8  C   UNK    1       -2.014  -9.027  -6.268  0.00  0.00    +0.147 A 
ATOM      9  C   UNK    1       -1.526  -7.818  -5.742  0.00  0.00    +0.147 A 
ATOM     10  C   UNK    1       -0.371  -7.861  -4.943  0.00  0.00    +0.167 A 
ATOM     11  N   UNK    1       -0.124  -6.565  -4.566  0.00  0.00    -0.286 N 
ATOM     12  C   UNK    1       -1.091  -5.785  -5.128  0.00  0.00    +0.203 A 
ATOM     13  N   UNK    1       -1.912  -6.522  -5.817  0.00  0.00    -0.231 NA
ATOM     14  N   UNK    1        0.215  -9.032  -4.717  0.00  0.00    -0.216 NA
BRANCH   8  15
ATOM     15  N   UNK    1       -3.145  -9.046  -7.066  0.00  0.00    -0.341 N 
ATOM     16  H   UNK    1       -3.472  -9.887  -7.423  0.00  0.00    +0.144 HD
ATOM     17  H   UNK    1       -3.922  -8.684  -6.551  0.00  0.00    +0.144 HD
ENDBRANCH   8  15
ENDBRANCH   1  11
BRANCH   2  18
ATOM     18  O   UNK    1        3.124  -7.002  -4.478  0.00  0.00    -0.385 OA
ATOM     19  H   UNK    1        3.963  -6.888  -4.944  0.00  0.00    +0.210 HD
ENDBRANCH   2  18
BRANCH   3  20
ATOM     20  O   UNK    1        4.205  -4.941  -3.437  0.00  0.00    -0.386 OA
ATOM     21  H   UNK    1        4.843  -5.186  -4.121  0.00  0.00    +0.210 HD
ENDBRANCH   3  20
BRANCH   4  22
ATOM     22  C   UNK    1        1.851  -2.728  -2.654  0.00  0.00    +0.103 C 
BRANCH  22  23
ATOM     23  S   UNK    1        0.850  -2.310  -1.200  0.00  0.00    -0.158 S 
BRANCH  23  24
ATOM     24  C   UNK    1        0.825  -0.496  -1.190  0.00  0.00    +0.068 C 
BRANCH  24  25
ATOM     25  C   UNK    1        0.002  -0.004   0.002  0.00  0.00    +0.005 C 
BRANCH  25  26
ATOM     26  C   UNK    1       -0.019   1.526   0.010  0.00  0.00    +0.036 C 
BRANCH  26  27
ATOM     27  N   UNK    1       -0.728   2.037  -1.175  0.00  0.00    +0.387 N 
ATOM     28  H   UNK    1       -0.760   3.063  -1.134  0.00  0.00    -0.089 HD
ATOM     29  H   UNK    1       -1.680   1.676  -1.196  0.00  0.00    -0.089 HD
ATOM     30  H   UNK    1       -0.240   1.754  -2.024  0.00  0.00    -0.089 HD
ENDBRANCH  26  27
BRANCH  26  31
ATOM     31  C   UNK    1       -0.724   2.012   1.250  0.00  0.00    +0.290 C 
ATOM     32  O   UNK    1       -1.877   2.369   1.189  0.00  0.00    -0.253 OA
BRANCH  31  33
ATOM     33  O   UNK    1       -0.072   2.048   2.423  0.00  0.00    -0.482 OA
ATOM     34  H   UNK    1        0.822   1.770   2.471  0.00  0.00    +0.295 HD
ENDBRANCH  31  33
ENDBRANCH  26  31
ENDBRANCH  25  26
ENDBRANCH  24  25
ENDBRANCH  23  24
ENDBRANCH  22  23
ENDBRANCH   4  22
TORSDOF 12
