REMARK  Name = ZINC13343658
REMARK                            x       y       z     vdW  Elec       q    Type
REMARK                         _______ _______ _______ _____ _____    ______ ____
ROOT
ATOM      1  C   LIG    1        2.442   3.213  -0.004  0.00  0.00    +0.028 C 
ATOM      2  C   LIG    1        1.806   2.060  -0.326  0.00  0.00    +0.077 C 
ATOM      3  C   LIG    1        2.345   0.689  -0.449  0.00  0.00    +0.259 C 
ATOM      4  N   LIG    1        1.484  -0.258  -0.781  0.00  0.00    -0.244 N 
ATOM      5  C   LIG    1        0.181   0.018  -0.995  0.00  0.00    +0.121 C 
ATOM      6  S   LIG    1       -1.076  -1.060  -1.428  0.00  0.00    -0.027 S 
ATOM      7  O   LIG    1        3.521   0.444  -0.254  0.00  0.00    -0.269 OA
ATOM      8  S   LIG    1        0.085   1.779  -0.717  0.00  0.00    -0.061 S 
ENDROOT
BRANCH   1  13
ATOM      9  C   LIG    1       -0.193   5.769  -0.786  0.00  0.00    +0.121 A 
ATOM     10  C   LIG    1        0.396   6.921  -0.281  0.00  0.00    +0.045 A 
ATOM     11  C   LIG    1        1.645   6.865   0.309  0.00  0.00    +0.004 A 
ATOM     12  C   LIG    1        2.316   5.664   0.403  0.00  0.00    +0.008 A 
ATOM     13  C   LIG    1        1.732   4.497  -0.102  0.00  0.00    -0.020 A 
ATOM     14  C   LIG    1        0.471   4.558  -0.704  0.00  0.00    +0.053 A 
BRANCH   9  16
ATOM     15  C   LIG    1       -2.047   7.115  -1.421  0.00  0.00    +0.277 C 
ATOM     16  O   LIG    1       -1.421   5.832  -1.365  0.00  0.00    -0.495 OA
ENDBRANCH   9  16
ENDBRANCH   1  13
BRANCH   4  17
ATOM     17  C   LIG    1        1.955  -1.638  -0.919  0.00  0.00    +0.235 C 
BRANCH  17  18
ATOM     18  C   LIG    1        2.392  -1.880  -2.341  0.00  0.00    +0.323 C 
ATOM     19  O   LIG    1        2.318  -0.990  -3.155  0.00  0.00    -0.249 OA
BRANCH  18  20
ATOM     20  O   LIG    1        2.864  -3.083  -2.703  0.00  0.00    -0.480 OA
ATOM     21  H   LIG    1        2.922  -3.773  -2.071  0.00  0.00    +0.295 HD
ENDBRANCH  18  20
ENDBRANCH  17  18
ENDBRANCH   4  17
TORSDOF 5
