REMARK  Name = ZINC13220172
REMARK                            x       y       z     vdW  Elec       q    Type
REMARK                         _______ _______ _______ _____ _____    ______ ____
ROOT
ATOM      1  C   UNK A  0        1.030  -4.916   0.636  0.00  0.00    -0.044 A 
ATOM      2  C   UNK A  0        2.011  -4.217   1.318  0.00  0.00    +0.004 A 
ATOM      3  C   UNK A  0        1.998  -2.838   1.330  0.00  0.00    +0.013 A 
ATOM      4  C   UNK A  0        0.994  -2.147   0.651  0.00  0.00    +0.037 A 
ATOM      5  C   UNK A  0        0.005  -2.857  -0.031  0.00  0.00    +0.013 A 
ATOM      6  C   UNK A  0        0.032  -4.237  -0.039  0.00  0.00    +0.004 A 
ENDROOT
BRANCH   4   7
ATOM      7  C   UNK A  0        0.974  -0.668   0.659  0.00  0.00    +0.245 C 
ATOM      8  N   GLU A  1        0.002  -0.004   0.002  0.00  0.00    -0.298 N 
ATOM      9  H   GLU A  1       -0.684  -0.496  -0.476  0.00  0.00    +0.150 HD
ATOM     10  O   UNK A  0        1.833  -0.052   1.258  0.00  0.00    -0.270 OA
BRANCH   8  11
ATOM     11  CA  GLU A  1       -0.018   1.461   0.010  0.00  0.00    +0.182 C 
BRANCH  11  12
ATOM     12  C   GLU A  1       -0.723   1.947   1.250  0.00  0.00    +0.325 C 
ATOM     13  O   GLU A  1       -1.164   1.151   2.045  0.00  0.00    -0.249 OA
BRANCH  12  14
ATOM     14  OXT GLU A  1       -0.862   3.264   1.471  0.00  0.00    -0.479 OA
ATOM     15  HXT GLU A  1       -0.520   3.880   0.854  0.00  0.00    +0.295 HD
ENDBRANCH  12  14
ENDBRANCH  11  12
BRANCH  11  16
ATOM     16  CB  GLU A  1       -0.758   1.968  -1.230  0.00  0.00    +0.045 C 
BRANCH  16  17
ATOM     17  CG  GLU A  1        0.026   1.580  -2.485  0.00  0.00    +0.123 C 
BRANCH  17  18
ATOM     18  CD  GLU A  1       -0.703   2.080  -3.706  0.00  0.00    +0.305 C 
ATOM     19  OE1 GLU A  1       -1.743   2.683  -3.584  0.00  0.00    -0.251 OA
BRANCH  18  20
ATOM     20  OE2 GLU A  1       -0.197   1.854  -4.929  0.00  0.00    -0.481 OA
ATOM     21  HE2 GLU A  1        0.609   1.386  -5.023  0.00  0.00    +0.295 HD
ENDBRANCH  18  20
ENDBRANCH  17  18
ENDBRANCH  16  17
ENDBRANCH  11  16
ENDBRANCH   8  11
ENDBRANCH   4   7
BRANCH   1  22
ATOM     22  C   UNK A  0        1.050  -6.423   0.629  0.00  0.00    +0.025 C 
BRANCH  22  24
ATOM     23  C   UNK A  0        2.519  -6.499  -1.390  0.00  0.00    +0.004 C 
ATOM     24  C   UNK A  0        1.168  -6.924  -0.811  0.00  0.00    +0.005 C 
ENDBRANCH  22  24
BRANCH  22  25
ATOM     25  C   UNK A  0       -0.245  -6.952   1.249  0.00  0.00    +0.065 C 
BRANCH  25  26
ATOM     26  C   UNK A  0       -0.173  -8.454   1.355  0.00  0.00    +0.061 A 
ATOM     27  C   UNK A  0        0.447  -9.040   2.458  0.00  0.00    +0.136 A 
ATOM     28  N   UNK A  0        0.517 -10.349   2.575  0.00  0.00    -0.232 NA
ATOM     29  C   UNK A  0       -0.003 -11.124   1.620  0.00  0.00    +0.185 A 
ATOM     30  C   UNK A  0       -0.627 -10.524   0.498  0.00  0.00    +0.148 A 
ATOM     31  C   UNK A  0       -1.186 -11.406  -0.527  0.00  0.00    +0.149 A 
ATOM     32  N   UNK A  0       -1.073 -12.714  -0.343  0.00  0.00    -0.198 NA
ATOM     33  C   UNK A  0       -0.473 -13.210   0.735  0.00  0.00    +0.216 A 
ATOM     34  N   UNK A  0        0.046 -12.460   1.687  0.00  0.00    -0.193 NA
ATOM     35  N   UNK A  0       -0.692  -9.199   0.402  0.00  0.00    -0.243 NA
BRANCH  31  36
ATOM     36  N   UNK A  0       -1.808 -10.895  -1.645  0.00  0.00    -0.341 N 
ATOM     37  H   UNK A  0       -2.172 -11.496  -2.315  0.00  0.00    +0.144 HD
ATOM     38  H   UNK A  0       -1.881  -9.935  -1.763  0.00  0.00    +0.144 HD
ENDBRANCH  31  36
BRANCH  33  39
ATOM     39  N   UNK A  0       -0.390 -14.583   0.864  0.00  0.00    -0.327 N 
ATOM     40  H   UNK A  0       -0.763 -15.158   0.179  0.00  0.00    +0.145 HD
ATOM     41  H   UNK A  0        0.042 -14.972   1.641  0.00  0.00    +0.145 HD
ENDBRANCH  33  39
ENDBRANCH  25  26
ENDBRANCH  22  25
ENDBRANCH   1  22
TORSDOF 14
