REMARK  Name = ZINC13531833
REMARK                            x       y       z     vdW  Elec       q    Type
REMARK                         _______ _______ _______ _____ _____    ______ ____
ROOT
ATOM      1  N   LIG    1       -1.045   1.608   0.211  0.00  0.00    -0.268 N 
ATOM      2  H   LIG    1       -1.025   2.576   0.154  0.00  0.00    +0.156 HD
ATOM      3  C   LIG    1        0.105   0.907   0.166  0.00  0.00    +0.308 C 
ATOM      4  N   LIG    1        1.288   1.553   0.145  0.00  0.00    -0.268 N 
ATOM      5  H   LIG    1        1.311   2.521   0.080  0.00  0.00    +0.156 HD
ATOM      6  O   LIG    1        0.076  -0.308   0.140  0.00  0.00    -0.252 OA
ENDROOT
BRANCH   1  12
ATOM      7  C   LIG    1       -3.558  -0.877   1.227  0.00  0.00    +0.002 A 
ATOM      8  C   LIG    1       -4.685  -0.384   0.596  0.00  0.00    +0.002 A 
ATOM      9  C   LIG    1       -4.608   0.770  -0.162  0.00  0.00    +0.022 A 
ATOM     10  C   LIG    1       -3.402   1.433  -0.292  0.00  0.00    +0.062 A 
ATOM     11 CL   LIG    1       -3.305   2.881  -1.245  0.00  0.00    -0.082 Cl
ATOM     12  C   LIG    1       -2.268   0.939   0.341  0.00  0.00    +0.053 A 
ATOM     13  C   LIG    1       -2.349  -0.222   1.097  0.00  0.00    +0.025 A 
ENDBRANCH   1  12
BRANCH   4  14
ATOM     14  C   LIG    1        2.477   0.832   0.215  0.00  0.00    +0.050 A 
ATOM     15  C   LIG    1        2.498  -0.420   0.814  0.00  0.00    +0.044 A 
ATOM     16  C   LIG    1        3.678  -1.136   0.879  0.00  0.00    +0.043 A 
ATOM     17 CL   LIG    1        3.696  -2.704   1.623  0.00  0.00    -0.083 Cl
ATOM     18  C   LIG    1        4.850  -0.607   0.356  0.00  0.00    +0.021 A 
ATOM     19  C   LIG    1        4.848   0.636  -0.237  0.00  0.00    +0.018 A 
ATOM     20  C   LIG    1        3.661   1.370  -0.314  0.00  0.00    +0.080 A 
BRANCH  20  21
ATOM     21  C   LIG    1        3.652   2.700  -0.947  0.00  0.00    +0.339 C 
ATOM     22  O   LIG    1        2.602   3.293  -1.101  0.00  0.00    -0.245 OA
BRANCH  21  23
ATOM     23  O   LIG    1        4.808   3.259  -1.356  0.00  0.00    -0.477 OA
ATOM     24  H   LIG    1        5.617   2.802  -1.238  0.00  0.00    +0.295 HD
ENDBRANCH  21  23
ENDBRANCH  20  21
ENDBRANCH   4  14
TORSDOF 4
