REMARK  Name = ZINC13535819
REMARK                            x       y       z     vdW  Elec       q    Type
REMARK                         _______ _______ _______ _____ _____    ______ ____
ROOT
ATOM      1  C   LIG    1       -2.416   1.347   0.033  0.00  0.00    +0.022 A 
ATOM      2  C   LIG    1       -1.239   2.065   0.030  0.00  0.00    +0.027 A 
ATOM      3  C   LIG    1       -0.017   1.400   0.010  0.00  0.00    +0.048 A 
ATOM      4  C   LIG    1        0.002  -0.004   0.002  0.00  0.00    +0.009 A 
ATOM      5  C   LIG    1        1.419  -0.401  -0.014  0.00  0.00    +0.010 A 
ATOM      6  C   LIG    1        2.094  -1.621  -0.027  0.00  0.00    +0.030 A 
ATOM      7  C   LIG    1        3.472  -1.615  -0.040  0.00  0.00    +0.111 A 
ATOM      8  N   LIG    1        4.148  -0.479  -0.040  0.00  0.00    -0.261 NA
ATOM      9  C   LIG    1        3.555   0.697  -0.028  0.00  0.00    +0.136 A 
ATOM     10  C   LIG    1        2.168   0.788  -0.014  0.00  0.00    +0.066 A 
ATOM     11  C   LIG    1       -1.195  -0.717   0.010  0.00  0.00    +0.030 A 
ATOM     12  N   LIG    1        1.290   1.855  -0.000  0.00  0.00    -0.353 N 
ATOM     13  H   LIG    1        1.552   2.789   0.002  0.00  0.00    +0.166 HD
ATOM     14  C   LIG    1       -2.396  -0.040   0.025  0.00  0.00    +0.042 A 
ATOM     15 CL   LIG    1       -3.889  -0.926   0.036  0.00  0.00    -0.084 Cl
ENDROOT
TORSDOF 0
