REMARK  Name = ZINC13472701
REMARK                            x       y       z     vdW  Elec       q    Type
REMARK                         _______ _______ _______ _____ _____    ______ ____
ROOT
ATOM      1  N   LIG    1        0.002  -0.004   0.002  0.00  0.00    -0.285 N 
ATOM      2  C   LIG    1        1.027  -0.799   0.421  0.00  0.00    +0.203 A 
ATOM      3  N   LIG    1        0.706  -2.052   0.276  0.00  0.00    -0.231 NA
ATOM      4  C   LIG    1       -0.538  -2.140  -0.252  0.00  0.00    +0.147 A 
ATOM      5  C   LIG    1       -1.382  -3.201  -0.623  0.00  0.00    +0.150 A 
ATOM      6  N   LIG    1       -2.578  -2.913  -1.126  0.00  0.00    -0.219 NA
ATOM      7  C   LIG    1       -2.973  -1.663  -1.279  0.00  0.00    +0.225 A 
ATOM      8  N   LIG    1       -2.217  -0.637  -0.946  0.00  0.00    -0.216 NA
ATOM      9  C   LIG    1       -1.005  -0.827  -0.435  0.00  0.00    +0.167 A 
ENDROOT
BRANCH   1  15
ATOM     10  C   LIG    1       -0.489   0.940   2.437  0.00  0.00    +0.049 C 
ATOM     11  C   LIG    1       -0.633   1.983   1.327  0.00  0.00    +0.136 C 
ATOM     12  C   LIG    1        0.199   3.243   1.657  0.00  0.00    +0.181 C 
ATOM     13  C   LIG    1        1.218   3.332   0.500  0.00  0.00    +0.178 C 
ATOM     14  O   LIG    1        1.329   1.982   0.000  0.00  0.00    -0.345 OA
ATOM     15  C   LIG    1       -0.018   1.461   0.010  0.00  0.00    +0.256 C 
BRANCH  11  16
ATOM     16  O   LIG    1       -2.007   2.326   1.136  0.00  0.00    -0.382 OA
ATOM     17  H   LIG    1       -2.443   2.660   1.932  0.00  0.00    +0.210 HD
ENDBRANCH  11  16
BRANCH  12  18
ATOM     18  O   LIG    1       -0.634   4.404   1.682  0.00  0.00    -0.386 OA
ATOM     19  H   LIG    1       -0.153   5.230   1.826  0.00  0.00    +0.210 HD
ENDBRANCH  12  18
BRANCH  13  20
ATOM     20  C   LIG    1        2.573   3.822   1.017  0.00  0.00    +0.190 C 
BRANCH  20  21
ATOM     21  O   LIG    1        3.486   3.939  -0.076  0.00  0.00    -0.392 OA
ATOM     22  H   LIG    1        4.367   4.245   0.179  0.00  0.00    +0.210 HD
ENDBRANCH  20  21
ENDBRANCH  13  20
ENDBRANCH   1  15
BRANCH   5  23
ATOM     23  N   LIG    1       -0.977  -4.515  -0.466  0.00  0.00    -0.324 N 
ATOM     24  H   LIG    1       -0.149  -4.675  -1.004  0.00  0.00    +0.148 HD
BRANCH  23  25
ATOM     25  C   LIG    1       -1.871  -5.608  -0.858  0.00  0.00    +0.072 C 
ATOM     26  C   LIG    1       -2.809  -5.969   0.313  0.00  0.00    +0.022 C 
ATOM     27  C   LIG    1       -2.944  -7.511   0.229  0.00  0.00    +0.002 C 
ATOM     28  C   LIG    1       -1.519  -7.958  -0.180  0.00  0.00    +0.002 C 
ATOM     29  C   LIG    1       -1.051  -6.872  -1.171  0.00  0.00    +0.022 C 
ENDBRANCH  23  25
ENDBRANCH   5  23
TORSDOF 7
