REMARK  Name = ZINC13471994
REMARK                            x       y       z     vdW  Elec       q    Type
REMARK                         _______ _______ _______ _____ _____    ______ ____
ROOT
ATOM      1  N   LIG    1        5.696  -1.816   1.514  0.00  0.00    -0.196 N 
ATOM      2  H   LIG    1        6.055  -2.018   0.620  0.00  0.00    +0.175 HD
ENDROOT
BRANCH   1   3
ATOM      3  C   LIG    1        6.395  -2.206   2.647  0.00  0.00    +0.202 A 
ATOM      4  N   LIG    1        6.099  -2.046   3.930  0.00  0.00    -0.123 NA
ATOM      5  N   LIG    1        6.857  -2.468   4.845  0.00  0.00    -0.119 NA
ATOM      6  C   LIG    1        7.988  -3.093   4.587  0.00  0.00    +0.256 A 
ATOM      7  S   LIG    1        7.952  -3.077   2.797  0.00  0.00    -0.009 S 
BRANCH   6   8
ATOM      8  S   LIG    1        9.189  -3.761   5.690  0.00  0.00    +0.081 S 
ATOM      9  O   LIG    1       10.458  -3.542   5.088  0.00  0.00    -0.151 OA
ATOM     10  O   LIG    1        8.731  -5.056   6.054  0.00  0.00    -0.151 OA
BRANCH   8  11
ATOM     11  N   LIG    1        9.154  -2.842   7.067  0.00  0.00    -0.202 NA
ATOM     12  H   LIG    1        8.203  -2.895   7.432  0.00  0.00    +0.144 HD
ATOM     13  H   LIG    1        9.749  -3.050   7.804  0.00  0.00    +0.144 HD
ENDBRANCH   8  11
ENDBRANCH   6   8
ENDBRANCH   1   3
BRANCH   1  14
ATOM     14  S   LIG    1        4.257  -1.011   1.666  0.00  0.00    +0.049 S 
ATOM     15  O   LIG    1        3.387  -1.939   2.300  0.00  0.00    -0.155 OA
ATOM     16  O   LIG    1        4.593   0.216   2.298  0.00  0.00    -0.155 OA
BRANCH  14  17
ATOM     17  C   LIG    1        3.711  -0.707  -0.038  0.00  0.00    +0.223 C 
BRANCH  17  21
ATOM     18  C   LIG    1       -0.017   1.378   0.010  0.00  0.00    +0.000 A 
ATOM     19  C   LIG    1        1.171   2.086   0.002  0.00  0.00    +0.000 A 
ATOM     20  C   LIG    1        2.377   1.411  -0.013  0.00  0.00    +0.005 A 
ATOM     21  C   LIG    1        2.396   0.029  -0.020  0.00  0.00    -0.025 A 
ATOM     22  C   LIG    1        1.208  -0.679  -0.012  0.00  0.00    +0.005 A 
ATOM     23  C   LIG    1        0.002  -0.004   0.002  0.00  0.00    +0.000 A 
ENDBRANCH  17  21
ENDBRANCH  14  17
ENDBRANCH   1  14
TORSDOF 6
