REMARK  Name = ZINC13548421
REMARK                            x       y       z     vdW  Elec       q    Type
REMARK                         _______ _______ _______ _____ _____    ______ ____
ROOT
ATOM      1  C   LIG    1        5.019  -1.310   3.830  0.00  0.00    +0.362 C 
ATOM      2  O   LIG    1        3.918  -1.796   4.021  0.00  0.00    -0.247 OA
ENDROOT
BRANCH   1   3
ATOM      3  C   LIG    1        5.540  -0.278   4.749  0.00  0.00    +0.186 A 
ATOM      4  C   LIG    1        4.724   0.230   5.772  0.00  0.00    +0.151 A 
ATOM      5  N   LIG    1        5.198   1.157   6.595  0.00  0.00    -0.213 NA
ATOM      6  C   LIG    1        6.440   1.600   6.448  0.00  0.00    +0.156 A 
ATOM      7  C   LIG    1        7.251   1.092   5.427  0.00  0.00    +0.170 A 
ATOM      8 CL   LIG    1        8.875   1.676   5.240  0.00  0.00    -0.058 Cl
ATOM      9  N   LIG    1        6.788   0.169   4.612  0.00  0.00    -0.222 NA
BRANCH   4  10
ATOM     10  N   LIG    1        3.429  -0.235   5.921  0.00  0.00    -0.341 N 
ATOM     11  H   LIG    1        2.841   0.172   6.576  0.00  0.00    +0.144 HD
ATOM     12  H   LIG    1        3.110  -0.967   5.371  0.00  0.00    +0.144 HD
ENDBRANCH   4  10
BRANCH   6  13
ATOM     13  N   LIG    1        6.935   2.567   7.307  0.00  0.00    -0.341 N 
ATOM     14  H   LIG    1        7.843   2.891   7.201  0.00  0.00    +0.144 HD
ATOM     15  H   LIG    1        6.374   2.920   8.015  0.00  0.00    +0.144 HD
ENDBRANCH   6  13
ENDBRANCH   1   3
BRANCH   1  17
ATOM     16  C   LIG    1        5.278  -1.603   1.555  0.00  0.00    +0.377 C 
ATOM     17  N   LIG    1        5.757  -1.712   2.784  0.00  0.00    +0.002 NA
BRANCH  16  18
ATOM     18  N   LIG    1        5.980  -2.112   0.502  0.00  0.00    -0.291 N 
ATOM     19  H   LIG    1        6.830  -2.554   0.654  0.00  0.00    +0.254 HD
ATOM     20  H   LIG    1        5.629  -2.032  -0.399  0.00  0.00    +0.254 HD
ENDBRANCH  16  18
BRANCH  16  21
ATOM     21  N   LIG    1        4.083  -0.981   1.342  0.00  0.00    -0.273 N 
ATOM     22  H   LIG    1        3.550  -0.683   2.095  0.00  0.00    +0.258 HD
BRANCH  21  23
ATOM     23  C   LIG    1        3.604  -0.764  -0.026  0.00  0.00    +0.231 C 
BRANCH  23  27
ATOM     24  C   LIG    1       -0.176   1.222   0.085  0.00  0.00    +0.000 A 
ATOM     25  C   LIG    1        0.991   1.960   0.042  0.00  0.00    +0.000 A 
ATOM     26  C   LIG    1        2.215   1.318   0.006  0.00  0.00    +0.007 A 
ATOM     27  C   LIG    1        2.270  -0.063   0.014  0.00  0.00    -0.014 A 
ATOM     28  C   LIG    1        1.103  -0.802   0.058  0.00  0.00    +0.007 A 
ATOM     29  C   LIG    1       -0.121  -0.160   0.092  0.00  0.00    +0.000 A 
ENDBRANCH  23  27
ENDBRANCH  21  23
ENDBRANCH  16  21
ENDBRANCH   1  17
TORSDOF 8
