REMARK  Name = ZINC13516897
REMARK                            x       y       z     vdW  Elec       q    Type
REMARK                         _______ _______ _______ _____ _____    ______ ____
ROOT
ATOM      1  C   LIG    1       -0.018   1.505   0.010  0.00  0.00    +0.091 C 
ATOM      2  C   LIG    1        1.454   1.867  -0.002  0.00  0.00    +0.091 C 
ATOM      3  N   LIG    1        2.122   0.766  -0.014  0.00  0.00    -0.240 NA
ATOM      4  C   LIG    1        1.347  -0.354  -0.013  0.00  0.00    +0.166 A 
ATOM      5  N   LIG    1        1.667  -1.663  -0.023  0.00  0.00    -0.177 NA
ATOM      6  C   LIG    1        0.741  -2.591  -0.019  0.00  0.00    +0.298 A 
ATOM      7  N   LIG    1       -0.584  -2.289  -0.005  0.00  0.00    -0.277 N 
ATOM      8  H   LIG    1       -1.245  -2.998  -0.002  0.00  0.00    +0.173 HD
ATOM      9  C   LIG    1       -0.977  -0.995   0.006  0.00  0.00    +0.260 A 
ATOM     10  O   LIG    1       -2.162  -0.702   0.019  0.00  0.00    -0.267 OA
ATOM     11  C   LIG    1        0.002  -0.004   0.002  0.00  0.00    +0.066 A 
ENDROOT
BRANCH   6  12
ATOM     12  O   LIG    1        1.115  -3.887  -0.029  0.00  0.00    -0.480 OA
ATOM     13  H   LIG    1        0.465  -4.562  -0.027  0.00  0.00    +0.295 HD
ENDBRANCH   6  12
TORSDOF 1
