REMARK  Name = ZINC13488303
REMARK                            x       y       z     vdW  Elec       q    Type
REMARK                         _______ _______ _______ _____ _____    ______ ____
ROOT
ATOM      1  CA  HIS A  1        1.248   1.716  -0.001  0.00  0.00    +0.188 C 
ENDROOT
BRANCH   1   3
ATOM      2  C   UNK A  0       -1.187   1.624   0.017  0.00  0.00    +0.246 C 
ATOM      3  N   HIS A  1       -0.011   0.966   0.007  0.00  0.00    -0.298 N 
ATOM      4  H   HIS A  1        0.002  -0.004   0.002  0.00  0.00    +0.150 HD
ATOM      5  O   UNK A  0       -1.204   2.839   0.023  0.00  0.00    -0.270 OA
BRANCH   2  11
ATOM      6  C   UNK A  0       -3.630  -1.228   0.012  0.00  0.00    +0.001 A 
ATOM      7  C   UNK A  0       -4.837  -0.550   0.021  0.00  0.00    +0.001 A 
ATOM      8  C   UNK A  0       -4.860   0.833   0.029  0.00  0.00    +0.016 A 
ATOM      9  C   UNK A  0       -3.678   1.546   0.028  0.00  0.00    +0.030 A 
ATOM     10 BR   UNK A  0       -3.711   3.437   0.038  0.00  0.00    -0.050 Br
ATOM     11  C   UNK A  0       -2.457   0.868   0.018  0.00  0.00    +0.051 A 
ATOM     12  C   UNK A  0       -2.442  -0.528   0.005  0.00  0.00    +0.014 A 
ENDBRANCH   2  11
ENDBRANCH   1   3
BRANCH   1  13
ATOM     13  C   HIS A  1        1.602   2.087  -1.417  0.00  0.00    +0.326 C 
ATOM     14  O   HIS A  1        0.878   1.758  -2.327  0.00  0.00    -0.249 OA
BRANCH  13  15
ATOM     15  OXT HIS A  1        2.723   2.782  -1.669  0.00  0.00    -0.479 OA
ATOM     16  HXT HIS A  1        3.284   3.036  -0.963  0.00  0.00    +0.295 HD
ENDBRANCH  13  15
ENDBRANCH   1  13
BRANCH   1  17
ATOM     17  CB  HIS A  1        2.361   0.850   0.594  0.00  0.00    +0.090 C 
BRANCH  17  18
ATOM     18  CG  HIS A  1        2.066   0.581   2.047  0.00  0.00    +0.061 A 
ATOM     19  CD2 HIS A  1        1.980  -0.632   2.626  0.00  0.00    +0.107 A 
ATOM     20  NE2 HIS A  1        1.702  -0.420   3.949  0.00  0.00    -0.351 N 
ATOM     21  CE1 HIS A  1        1.619   0.915   4.131  0.00  0.00    +0.196 A 
ATOM     22  HE2 HIS A  1        1.584  -1.123   4.651  0.00  0.00    +0.166 HD
ATOM     23  ND1 HIS A  1        1.837   1.508   2.989  0.00  0.00    -0.241 NA
ENDBRANCH  17  18
ENDBRANCH   1  17
TORSDOF 6
