REMARK  Name = ZINC13512169
REMARK                            x       y       z     vdW  Elec       q    Type
REMARK                         _______ _______ _______ _____ _____    ______ ____
ROOT
ATOM      1  CA  LIG    1        0.911  -1.776   3.318  0.00  0.00    +0.096 C 
ATOM      2  C   LIG    1        0.313  -2.438   4.335  0.00  0.00    +0.036 C 
ENDROOT
BRANCH   2   3
ATOM      3  C   LIG    1       -1.092  -2.856   4.215  0.00  0.00    -0.023 A 
ATOM      4  C   LIG    1       -1.606  -3.247   2.974  0.00  0.00    +0.009 A 
ATOM      5  C   LIG    1       -2.924  -3.638   2.869  0.00  0.00    +0.016 A 
ATOM      6  C   LIG    1       -3.739  -3.644   3.989  0.00  0.00    +0.018 A 
ATOM      7 BR   LIG    1       -5.545  -4.182   3.836  0.00  0.00    -0.050 Br
ATOM      8  C   LIG    1       -3.237  -3.258   5.221  0.00  0.00    +0.016 A 
ATOM      9  C   LIG    1       -1.920  -2.870   5.342  0.00  0.00    +0.009 A 
ENDBRANCH   2   3
BRANCH   1  10
ATOM     10  N   LIG    1        2.279  -1.505   3.371  0.00  0.00    -0.275 N 
ATOM     11  H   LIG    1        2.791  -1.742   4.160  0.00  0.00    +0.155 HD
ATOM     12  C   LIG    1        2.890  -0.914   2.325  0.00  0.00    +0.284 C 
ATOM     13  O   LIG    1        2.234  -0.536   1.371  0.00  0.00    -0.266 OA
BRANCH  12  14
ATOM     14  C   LIG    1        4.343  -0.727   2.334  0.00  0.00    +0.191 A 
ATOM     15  C   LIG    1        5.083  -0.141   1.347  0.00  0.00    +0.056 A 
ATOM     16  C   LIG    1        6.420  -0.173   1.772  0.00  0.00    +0.058 A 
ATOM     17  C   LIG    1        6.438  -0.770   2.986  0.00  0.00    +0.171 A 
ATOM     18 BR   LIG    1        7.979  -1.085   4.036  0.00  0.00    -0.008 Br
ATOM     19  O   LIG    1        5.183  -1.097   3.323  0.00  0.00    -0.444 OA
ENDBRANCH  12  14
ENDBRANCH   1  10
BRANCH   1  21
ATOM     20  N   LIG    1        0.222  -1.976   1.022  0.00  0.00    -0.235 NA
ATOM     21  C   LIG    1        0.118  -1.342   2.156  0.00  0.00    +0.231 C 
BRANCH  20  23
ATOM     22  CB  LIG    1        0.374  -1.155  -1.276  0.00  0.00    +0.045 C 
ATOM     23  CA  LIG    1       -0.566  -1.544  -0.134  0.00  0.00    +0.214 C 
BRANCH  23  24
ATOM     24  C   LIG    1       -1.461  -2.671  -0.582  0.00  0.00    +0.329 C 
ATOM     25  O   LIG    1       -1.315  -3.787  -0.114  0.00  0.00    -0.249 OA
BRANCH  24  26
ATOM     26  OXT LIG    1       -2.330  -2.466  -1.412  0.00  0.00    -0.479 OA
ATOM     27  HXT LIG    1       -2.442  -1.609  -1.772  0.00  0.00    +0.295 HD
ENDBRANCH  24  26
ENDBRANCH  23  24
ENDBRANCH  20  23
BRANCH  21  28
ATOM     28  O   LIG    1       -0.719  -0.284   2.265  0.00  0.00    -0.491 OA
ATOM     29  H   LIG    1       -0.672   0.168   3.118  0.00  0.00    +0.294 HD
ENDBRANCH  21  28
ENDBRANCH   1  21
TORSDOF 8
