REMARK  Name = ZINC13468996
REMARK                            x       y       z     vdW  Elec       q    Type
REMARK                         _______ _______ _______ _____ _____    ______ ____
ROOT
ATOM      1  C   LIG    1       -5.950  -0.296   0.234  0.00  0.00    +0.151 A 
ATOM      2  C   LIG    1       -6.320  -1.077   1.308  0.00  0.00    +0.052 A 
ATOM      3  C   LIG    1       -5.639  -0.580   2.425  0.00  0.00    +0.050 A 
ATOM      4  C   LIG    1       -4.893   0.482   1.999  0.00  0.00    +0.137 A 
ATOM      5  O   LIG    1       -5.087   0.641   0.675  0.00  0.00    -0.454 OA
ENDROOT
BRANCH   4   6
ATOM      6  C   LIG    1       -4.019   1.311   2.845  0.00  0.00    +0.038 A 
ATOM      7  C   LIG    1       -4.462   1.860   4.039  0.00  0.00    +0.020 A 
ATOM      8  C   LIG    1       -3.616   2.620   4.772  0.00  0.00    +0.047 A 
ATOM      9  S   LIG    1       -2.151   2.609   3.847  0.00  0.00    -0.090 S 
ATOM     10  C   LIG    1       -2.689   1.586   2.489  0.00  0.00    +0.107 A 
BRANCH  10  11
ATOM     11  C   LIG    1       -1.966   1.166   1.347  0.00  0.00    +0.346 C 
ATOM     12  O   LIG    1       -2.503   0.461   0.512  0.00  0.00    -0.244 OA
BRANCH  11  13
ATOM     13  O   LIG    1       -0.682   1.547   1.184  0.00  0.00    -0.464 OA
ATOM     14  C   LIG    1       -0.013   1.086   0.008  0.00  0.00    +0.280 C 
ENDBRANCH  11  13
ENDBRANCH  10  11
ENDBRANCH   4   6
BRANCH   1  16
ATOM     15  C   LIG    1       -5.920   0.480  -2.219  0.00  0.00    +0.071 C 
ATOM     16  C   LIG    1       -6.414  -0.455  -1.145  0.00  0.00    +0.098 C 
ATOM     17  N   LIG    1       -7.252  -1.405  -1.444  0.00  0.00    -0.180 NA
BRANCH  17  18
ATOM     18  N   LIG    1       -7.696  -1.558  -2.764  0.00  0.00    -0.191 N 
ATOM     19  H   LIG    1       -7.378  -0.956  -3.456  0.00  0.00    +0.179 HD
ATOM     20  C   LIG    1       -8.564  -2.541  -3.074  0.00  0.00    +0.317 C 
ATOM     21  N   LIG    1       -9.006  -3.377  -2.114  0.00  0.00    -0.312 N 
ATOM     22  H   LIG    1       -9.631  -4.084  -2.337  0.00  0.00    +0.147 HD
ATOM     23  H   LIG    1       -8.699  -3.271  -1.200  0.00  0.00    +0.147 HD
ATOM     24  O   LIG    1       -8.949  -2.673  -4.220  0.00  0.00    -0.251 OA
ENDBRANCH  17  18
ENDBRANCH   1  16
TORSDOF 5
