REMARK  Name = ZINC13508043
REMARK                            x       y       z     vdW  Elec       q    Type
REMARK                         _______ _______ _______ _____ _____    ______ ____
ROOT
ATOM      1  C   LIG    1       -0.019   1.526   0.010  0.00  0.00    +0.178 C 
ATOM      2  C   LIG    1        1.417   2.055  -0.000  0.00  0.00    +0.193 C 
ATOM      3  C   LIG    1        2.133   1.562  -1.259  0.00  0.00    +0.193 C 
ATOM      4  C   LIG    1        2.154   0.032  -1.268  0.00  0.00    +0.178 C 
ATOM      5  C   LIG    1        0.718  -0.497  -1.257  0.00  0.00    +0.193 C 
ATOM      6  C   LIG    1        0.002  -0.004   0.002  0.00  0.00    +0.193 C 
ENDROOT
BRANCH   4   7
ATOM      7  O   LIG    1        2.822  -0.429  -2.443  0.00  0.00    -0.386 OA
ATOM      8  H   LIG    1        2.873  -1.392  -2.515  0.00  0.00    +0.210 HD
ENDBRANCH   4   7
BRANCH   1   9
ATOM      9  O   LIG    1       -0.710   1.999  -1.147  0.00  0.00    -0.386 OA
ATOM     10  H   LIG    1       -1.628   1.702  -1.206  0.00  0.00    +0.210 HD
ENDBRANCH   1   9
BRANCH   5  11
ATOM     11  O   LIG    1        0.738  -1.926  -1.265  0.00  0.00    -0.278 OA
BRANCH  11  12
ATOM     12  P   LIG    1        0.063  -2.806  -2.432  0.00  0.00    +0.473 P 
ATOM     13  O   LIG    1       -1.442  -2.399  -2.590  0.00  0.00    -0.228 OA
BRANCH  12  14
ATOM     14  O   LIG    1        0.818  -2.549  -3.781  0.00  0.00    -0.303 OA
ATOM     15  H   LIG    1        0.759  -1.609  -4.010  0.00  0.00    +0.222 HD
ENDBRANCH  12  14
BRANCH  12  16
ATOM     16  O   LIG    1        0.158  -4.325  -2.062  0.00  0.00    -0.303 OA
ATOM     17  H   LIG    1       -0.309  -4.484  -1.227  0.00  0.00    +0.222 HD
ENDBRANCH  12  16
ENDBRANCH  11  12
ENDBRANCH   5  11
BRANCH   3  18
ATOM     18  O   LIG    1        1.442   2.035  -2.417  0.00  0.00    -0.278 OA
BRANCH  18  19
ATOM     19  P   LIG    1        2.130   2.980  -3.524  0.00  0.00    +0.473 P 
ATOM     20  O   LIG    1        2.721   4.254  -2.830  0.00  0.00    -0.228 OA
BRANCH  19  21
ATOM     21  O   LIG    1        3.282   2.193  -4.238  0.00  0.00    -0.303 OA
ATOM     22  H   LIG    1        3.946   1.926  -3.583  0.00  0.00    +0.222 HD
ENDBRANCH  19  21
BRANCH  19  23
ATOM     23  O   LIG    1        1.058   3.411  -4.582  0.00  0.00    -0.303 OA
ATOM     24  H   LIG    1        0.345   3.898  -4.140  0.00  0.00    +0.222 HD
ENDBRANCH  19  23
ENDBRANCH  18  19
ENDBRANCH   3  18
BRANCH   6  25
ATOM     25  O   LIG    1       -1.339  -0.499   0.012  0.00  0.00    -0.278 OA
BRANCH  25  26
ATOM     26  P   LIG    1       -1.916  -1.442   1.182  0.00  0.00    +0.473 P 
ATOM     27  O   LIG    1       -0.997  -2.700   1.340  0.00  0.00    -0.228 OA
BRANCH  26  28
ATOM     28  O   LIG    1       -1.946  -0.644   2.530  0.00  0.00    -0.303 OA
ATOM     29  H   LIG    1       -1.046  -0.360   2.757  0.00  0.00    +0.222 HD
ENDBRANCH  26  28
BRANCH  26  30
ATOM     30  O   LIG    1       -3.369  -1.899   0.814  0.00  0.00    -0.303 OA
ATOM     31  H   LIG    1       -3.351  -2.394  -0.020  0.00  0.00    +0.222 HD
ENDBRANCH  26  30
ENDBRANCH  25  26
ENDBRANCH   6  25
BRANCH   2  32
ATOM     32  O   LIG    1        1.397   3.484   0.007  0.00  0.00    -0.278 OA
BRANCH  32  33
ATOM     33  P   LIG    1        2.072   4.364   1.175  0.00  0.00    +0.473 P 
ATOM     34  O   LIG    1        1.501   3.928   2.543  0.00  0.00    -0.228 OA
BRANCH  33  35
ATOM     35  O   LIG    1        3.602   4.149   1.164  0.00  0.00    -0.303 OA
ATOM     36  H   LIG    1        3.797   3.210   1.312  0.00  0.00    +0.222 HD
ENDBRANCH  33  35
BRANCH  33  37
ATOM     37  O   LIG    1        1.747   5.921   0.929  0.00  0.00    -0.303 OA
ATOM     38  H   LIG    1        2.123   6.512   1.597  0.00  0.00    +0.222 HD
ENDBRANCH  33  37
ENDBRANCH  32  33
ENDBRANCH   2  32
TORSDOF 18
