REMARK  Name = ZINC13522700
REMARK                            x       y       z     vdW  Elec       q    Type
REMARK                         _______ _______ _______ _____ _____    ______ ____
ROOT
ATOM      1  C   LIG    1        4.741   0.157  -0.042  0.00  0.00    +0.109 A 
ATOM      2  N   LIG    1        3.642  -0.568  -0.035  0.00  0.00    -0.239 NA
ATOM      3  C   LIG    1        2.417  -0.026  -0.021  0.00  0.00    +0.079 A 
ATOM      4  C   LIG    1        1.167  -0.696  -0.013  0.00  0.00    +0.030 A 
ATOM      5  C   LIG    1        0.002  -0.004   0.002  0.00  0.00    +0.021 A 
ATOM      6  C   LIG    1       -0.017   1.398   0.010  0.00  0.00    +0.053 A 
ATOM      7  C   LIG    1        1.196   2.093   0.002  0.00  0.00    +0.036 A 
ATOM      8  C   LIG    1        2.371   1.391  -0.013  0.00  0.00    +0.041 A 
ATOM      9  S   LIG    1        4.095   1.824  -0.027  0.00  0.00    -0.067 S 
ENDROOT
BRANCH   1  15
ATOM     10  C   LIG    1        7.182   0.648  -0.067  0.00  0.00    +0.012 A 
ATOM     11  C   LIG    1        8.493   0.226  -0.076  0.00  0.00    +0.023 A 
ATOM     12  C   LIG    1        8.788  -1.133  -0.087  0.00  0.00    +0.025 A 
ATOM     13  C   LIG    1        7.761  -2.071  -0.082  0.00  0.00    +0.023 A 
ATOM     14  C   LIG    1        6.448  -1.656  -0.068  0.00  0.00    +0.012 A 
ATOM     15  C   LIG    1        6.148  -0.291  -0.057  0.00  0.00    +0.007 A 
BRANCH  12  16
ATOM     16  N   LIG    1       10.116  -1.556  -0.102  0.00  0.00    -0.358 N 
ATOM     17  H   LIG    1       10.833  -0.903  -0.105  0.00  0.00    +0.142 HD
ATOM     18  H   LIG    1       10.322  -2.504  -0.109  0.00  0.00    +0.142 HD
ENDBRANCH  12  16
ENDBRANCH   1  15
BRANCH   6  19
ATOM     19  C   LIG    1       -1.261   2.108   0.019  0.00  0.00    +0.099 C 
ATOM     20  N   LIG    1       -2.247   2.671   0.027  0.00  0.00    -0.191 NA
ENDBRANCH   6  19
TORSDOF 3
