REMARK  Name = ZINC13475545
REMARK                            x       y       z     vdW  Elec       q    Type
REMARK                         _______ _______ _______ _____ _____    ______ ____
ROOT
ATOM      1  C   LIG    1       -3.269  -1.231  -8.620  0.00  0.00    -0.027 C 
ATOM      2  C   LIG    1       -3.897  -2.262  -9.130  0.00  0.00    -0.027 C 
ENDROOT
BRANCH   1   3
ATOM      3  C   LIG    1       -2.485  -1.383  -7.343  0.00  0.00    +0.054 C 
BRANCH   3   5
ATOM      4  C   LIG    1       -0.597   0.066  -6.731  0.00  0.00    -0.004 C 
ATOM      5  C   LIG    1       -1.085  -0.862  -7.547  0.00  0.00    -0.023 C 
BRANCH   4   7
ATOM      6  C   LIG    1       -0.834   1.341  -4.681  0.00  0.00    +0.004 C 
ATOM      7  C   LIG    1       -1.361   0.479  -5.544  0.00  0.00    -0.002 C 
BRANCH   6   8
ATOM      8  C   LIG    1       -1.617   1.764  -3.465  0.00  0.00    +0.137 C 
BRANCH   8   9
ATOM      9  O   LIG    1       -1.815   3.179  -3.494  0.00  0.00    -0.388 OA
ATOM     10  H   LIG    1       -0.995   3.691  -3.497  0.00  0.00    +0.210 HD
ENDBRANCH   8   9
BRANCH   8  11
ATOM     11  C   LIG    1       -0.843   1.383  -2.202  0.00  0.00    +0.035 C 
BRANCH  11  12
ATOM     12  C   LIG    1       -1.691   1.698  -0.969  0.00  0.00    +0.003 C 
BRANCH  12  13
ATOM     13  C   LIG    1       -0.916   1.317   0.295  0.00  0.00    -0.000 C 
BRANCH  13  15
ATOM     14  C   LIG    1       -0.990   1.251   2.791  0.00  0.00    +0.004 C 
ATOM     15  C   LIG    1       -1.765   1.632   1.528  0.00  0.00    -0.003 C 
ENDBRANCH  13  15
ENDBRANCH  12  13
ENDBRANCH  11  12
ENDBRANCH   8  11
ENDBRANCH   6   8
ENDBRANCH   4   7
ENDBRANCH   3   5
ENDBRANCH   1   3
BRANCH   2  16
ATOM     16  C   LIG    1       -3.967  -3.557  -8.362  0.00  0.00    +0.053 C 
BRANCH  16  17
ATOM     17  C   LIG    1       -5.405  -3.991  -8.239  0.00  0.00    -0.027 C 
ATOM     18  C   LIG    1       -5.758  -5.197  -8.610  0.00  0.00    -0.031 C 
BRANCH  18  19
ATOM     19  C   LIG    1       -4.707  -6.206  -8.994  0.00  0.00    +0.027 C 
BRANCH  19  20
ATOM     20  C   LIG    1       -4.912  -7.489  -8.187  0.00  0.00    +0.013 C 
BRANCH  20  21
ATOM     21  C   LIG    1       -3.845  -8.514  -8.576  0.00  0.00    +0.096 C 
BRANCH  21  22
ATOM     22  C   LIG    1       -4.047  -9.778  -7.781  0.00  0.00    +0.213 C 
ATOM     23  N   LIG    1       -3.219 -10.826  -7.959  0.00  0.00    -0.313 N 
ATOM     24  H   LIG    1       -2.492 -10.766  -8.598  0.00  0.00    +0.149 HD
ATOM     25  O   LIG    1       -4.956  -9.852  -6.982  0.00  0.00    -0.276 OA
BRANCH  23  26
ATOM     26  C   LIG    1       -3.415 -12.055  -7.186  0.00  0.00    +0.132 C 
BRANCH  26  27
ATOM     27  C   LIG    1       -2.348 -13.079  -7.576  0.00  0.00    +0.174 C 
BRANCH  27  28
ATOM     28  O   LIG    1       -1.060 -12.593  -7.193  0.00  0.00    -0.393 OA
ATOM     29  H   LIG    1       -0.333 -13.193  -7.410  0.00  0.00    +0.209 HD
ENDBRANCH  27  28
ENDBRANCH  26  27
ENDBRANCH  23  26
ENDBRANCH  21  22
ENDBRANCH  20  21
ENDBRANCH  19  20
ENDBRANCH  18  19
ENDBRANCH  16  17
ENDBRANCH   2  16
TORSDOF 18
