REMARK  Name = ZINC13531825
REMARK                            x       y       z     vdW  Elec       q    Type
REMARK                         _______ _______ _______ _____ _____    ______ ____
ROOT
ATOM      1  N   LIG    1        1.129  -0.673  -0.086  0.00  0.00    -0.269 N 
ATOM      2  H   LIG    1        1.988  -0.221  -0.098  0.00  0.00    +0.156 HD
ATOM      3  C   LIG    1       -0.008   0.043   0.023  0.00  0.00    +0.308 C 
ATOM      4  N   LIG    1        0.041   1.390   0.018  0.00  0.00    -0.268 N 
ATOM      5  H   LIG    1        0.897   1.844   0.018  0.00  0.00    +0.156 HD
ATOM      6  O   LIG    1       -1.077  -0.527   0.126  0.00  0.00    -0.252 OA
ENDROOT
BRANCH   4   7
ATOM      7  C   LIG    1       -1.140   2.128   0.009  0.00  0.00    +0.050 A 
ATOM      8  C   LIG    1       -2.304   1.577  -0.507  0.00  0.00    +0.044 A 
ATOM      9  C   LIG    1       -3.475   2.310  -0.511  0.00  0.00    +0.043 A 
ATOM     10 CL   LIG    1       -4.928   1.611  -1.153  0.00  0.00    -0.083 Cl
ATOM     11  C   LIG    1       -3.494   3.603  -0.010  0.00  0.00    +0.021 A 
ATOM     12  C   LIG    1       -2.348   4.169   0.501  0.00  0.00    +0.018 A 
ATOM     13  C   LIG    1       -1.157   3.437   0.516  0.00  0.00    +0.080 A 
BRANCH  13  14
ATOM     14  C   LIG    1        0.074   4.036   1.062  0.00  0.00    +0.339 C 
ATOM     15  O   LIG    1        1.126   3.432   0.993  0.00  0.00    -0.245 OA
BRANCH  14  16
ATOM     16  O   LIG    1        0.032   5.253   1.639  0.00  0.00    -0.477 OA
ATOM     17  H   LIG    1       -0.779   5.719   1.692  0.00  0.00    +0.295 HD
ENDBRANCH  14  16
ENDBRANCH  13  14
ENDBRANCH   4   7
BRANCH   1  21
ATOM     18  C   LIG    1        0.959  -4.826  -0.369  0.00  0.00    +0.000 A 
ATOM     19  C   LIG    1        1.931  -4.126  -1.061  0.00  0.00    +0.002 A 
ATOM     20  C   LIG    1        1.990  -2.749  -0.969  0.00  0.00    +0.023 A 
ATOM     21  C   LIG    1        1.072  -2.067  -0.181  0.00  0.00    +0.035 A 
ATOM     22  C   LIG    1        0.101  -2.773   0.517  0.00  0.00    +0.023 A 
ATOM     23  C   LIG    1        0.044  -4.150   0.417  0.00  0.00    +0.002 A 
ENDBRANCH   1  21
TORSDOF 4
