REMARK  Name = ZINC13382258
REMARK                            x       y       z     vdW  Elec       q    Type
REMARK                         _______ _______ _______ _____ _____    ______ ____
ROOT
ATOM      1  C   LIG    1        4.651   4.364  -0.018  0.00  0.00    +0.136 A 
ATOM      2  C   LIG    1        5.590   3.371  -0.033  0.00  0.00    +0.050 A 
ATOM      3  C   LIG    1        4.903   2.155  -0.028  0.00  0.00    +0.050 A 
ATOM      4  C   LIG    1        3.553   2.459  -0.019  0.00  0.00    +0.130 A 
ATOM      5  O   LIG    1        3.429   3.803  -0.010  0.00  0.00    -0.455 OA
ENDROOT
BRANCH   4   6
ATOM      6  C   LIG    1        2.493   1.528  -0.014  0.00  0.00    +0.066 C 
ATOM      7  C   LIG    1        1.200   1.966   0.001  0.00  0.00    +0.080 C 
ATOM      8  C   LIG    1       -0.014   1.214   0.009  0.00  0.00    +0.256 C 
ATOM      9  N   LIG    1       -1.156   1.879   0.018  0.00  0.00    -0.270 N 
ATOM     10  H   LIG    1       -1.994   1.390   0.019  0.00  0.00    +0.156 HD
ATOM     11  C   LIG    1       -1.174   3.230   0.031  0.00  0.00    +0.118 C 
ATOM     12  S   LIG    1       -2.522   4.285   0.049  0.00  0.00    -0.027 S 
ATOM     13  O   LIG    1        0.002  -0.004   0.002  0.00  0.00    -0.269 OA
ATOM     14  S   LIG    1        0.565   3.637   0.016  0.00  0.00    -0.061 S 
ENDBRANCH   4   6
BRANCH   1  22
ATOM     15  C   LIG    1        3.881   6.732   0.002  0.00  0.00    +0.013 A 
ATOM     16  C   LIG    1        4.150   8.084   0.007  0.00  0.00    +0.022 A 
ATOM     17  C   LIG    1        5.460   8.533  -0.002  0.00  0.00    +0.059 A 
ATOM     18 CL   LIG    1        5.789  10.237   0.004  0.00  0.00    -0.082 Cl
ATOM     19  C   LIG    1        6.509   7.627  -0.017  0.00  0.00    +0.060 A 
ATOM     20 CL   LIG    1        8.148   8.199  -0.030  0.00  0.00    -0.082 Cl
ATOM     21  C   LIG    1        6.253   6.271  -0.016  0.00  0.00    +0.033 A 
ATOM     22  C   LIG    1        4.933   5.813  -0.012  0.00  0.00    +0.019 A 
ENDBRANCH   1  22
TORSDOF 2
