REMARK  Name = ZINC13472572
REMARK                            x       y       z     vdW  Elec       q    Type
REMARK                         _______ _______ _______ _____ _____    ______ ____
ROOT
ATOM      1  C   LIG    1        4.777   7.725  -0.004  0.00  0.00    +0.001 A 
ATOM      2  C   LIG    1        4.035   8.898   0.011  0.00  0.00    +0.002 A 
ATOM      3  C   LIG    1        2.658   8.860   0.024  0.00  0.00    +0.028 A 
ATOM      4  C   LIG    1        1.998   7.629   0.025  0.00  0.00    +0.078 A 
ATOM      5  C   LIG    1        2.758   6.438   0.010  0.00  0.00    +0.026 A 
ATOM      6  C   LIG    1        2.032   5.161   0.010  0.00  0.00    +0.082 A 
ATOM      7  C   LIG    1        2.410   3.844   0.005  0.00  0.00    +0.065 A 
ATOM      8  C   LIG    1        1.238   3.067   0.007  0.00  0.00    +0.170 A 
ATOM      9  N   LIG    1        0.197   3.880   0.021  0.00  0.00    -0.155 NA
ATOM     10  N   LIG    1        0.657   5.202   0.024  0.00  0.00    -0.182 N 
ATOM     11  C   LIG    1        0.012   6.413   0.037  0.00  0.00    +0.318 A 
ATOM     12  N   LIG    1        0.644   7.552   0.038  0.00  0.00    -0.195 NA
ATOM     13  C   LIG    1        4.149   6.498  -0.004  0.00  0.00    +0.012 A 
ENDROOT
BRANCH   8  14
ATOM     14  C   LIG    1        1.181   1.591  -0.001  0.00  0.00    +0.357 C 
ATOM     15  O   LIG    1        2.208   0.943  -0.014  0.00  0.00    -0.243 OA
BRANCH  14  16
ATOM     16  O   LIG    1       -0.011   0.963   0.007  0.00  0.00    -0.476 OA
ATOM     17  H   LIG    1       -0.804   1.462   0.018  0.00  0.00    +0.295 HD
ENDBRANCH  14  16
ENDBRANCH   8  14
BRANCH  11  18
ATOM     18  O   LIG    1       -1.339   6.424   0.051  0.00  0.00    -0.478 OA
ATOM     19  H   LIG    1       -1.814   5.617   0.052  0.00  0.00    +0.295 HD
ENDBRANCH  11  18
TORSDOF 3
