REMARK  Name = ZINC13531861
REMARK                            x       y       z     vdW  Elec       q    Type
REMARK                         _______ _______ _______ _____ _____    ______ ____
ROOT
ATOM      1  N   LIG    1       -1.281   1.686   0.123  0.00  0.00    -0.269 N 
ATOM      2  H   LIG    1       -1.258   2.640  -0.053  0.00  0.00    +0.156 HD
ATOM      3  C   LIG    1       -0.131   1.006   0.301  0.00  0.00    +0.308 C 
ATOM      4  N   LIG    1        1.045   1.665   0.323  0.00  0.00    -0.268 N 
ATOM      5  H   LIG    1        1.071   2.616   0.137  0.00  0.00    +0.156 HD
ATOM      6  O   LIG    1       -0.153  -0.202   0.437  0.00  0.00    -0.252 OA
ENDROOT
BRANCH   1   9
ATOM      7  C   LIG    1       -3.830  -0.942  -0.220  0.00  0.00    +0.003 A 
ATOM      8  C   LIG    1       -2.619  -0.281  -0.292  0.00  0.00    +0.023 A 
ATOM      9  C   LIG    1       -2.507   1.016   0.191  0.00  0.00    +0.036 A 
ATOM     10  C   LIG    1       -3.617   1.649   0.735  0.00  0.00    +0.043 A 
ATOM     11  C   LIG    1       -4.827   0.985   0.800  0.00  0.00    +0.043 A 
ATOM     12 CL   LIG    1       -6.215   1.774   1.481  0.00  0.00    -0.083 Cl
ATOM     13  C   LIG    1       -4.933  -0.310   0.323  0.00  0.00    +0.020 A 
ENDBRANCH   1   9
BRANCH   4  14
ATOM     14  C   LIG    1        2.222   0.979   0.614  0.00  0.00    +0.050 A 
ATOM     15  C   LIG    1        2.187  -0.164   1.400  0.00  0.00    +0.044 A 
ATOM     16  C   LIG    1        3.355  -0.845   1.683  0.00  0.00    +0.043 A 
ATOM     17 CL   LIG    1        3.303  -2.279   2.661  0.00  0.00    -0.083 Cl
ATOM     18  C   LIG    1        4.570  -0.388   1.193  0.00  0.00    +0.021 A 
ATOM     19  C   LIG    1        4.624   0.747   0.416  0.00  0.00    +0.018 A 
ATOM     20  C   LIG    1        3.450   1.444   0.117  0.00  0.00    +0.080 A 
BRANCH  20  21
ATOM     21  C   LIG    1        3.500   2.660  -0.714  0.00  0.00    +0.339 C 
ATOM     22  O   LIG    1        2.470   3.203  -1.060  0.00  0.00    -0.245 OA
BRANCH  21  23
ATOM     23  O   LIG    1        4.690   3.169  -1.090  0.00  0.00    -0.477 OA
ATOM     24  H   LIG    1        5.484   2.751  -0.823  0.00  0.00    +0.295 HD
ENDBRANCH  21  23
ENDBRANCH  20  21
ENDBRANCH   4  14
TORSDOF 4
