REMARK  Name = ZINC13472716
REMARK                            x       y       z     vdW  Elec       q    Type
REMARK                         _______ _______ _______ _____ _____    ______ ____
ROOT
ATOM      1  C   LIG    1       -2.140   1.036   1.486  0.00  0.00    +0.066 C 
ATOM      2  N   LIG    1       -3.164   1.691   0.872  0.00  0.00    -0.286 NA
ATOM      3  H   LIG    1       -3.022   2.611   0.506  0.00  0.00    +0.125 HD
ATOM      4  C   LIG    1       -4.343   1.008   0.806  0.00  0.00    +0.193 C 
ATOM      5  N   LIG    1       -4.540  -0.206   1.298  0.00  0.00    -0.273 NA
ATOM      6  H   LIG    1       -5.298  -0.127   1.975  0.00  0.00    +0.126 HD
ATOM      7  C   LIG    1       -3.556  -0.860   1.905  0.00  0.00    +0.130 C 
ATOM      8  C   LIG    1       -2.297  -0.241   2.019  0.00  0.00    +0.067 C 
ENDROOT
BRANCH   8   9
ATOM      9  C   LIG    1       -1.168  -0.930   2.688  0.00  0.00    -0.039 A 
ATOM     10  C   LIG    1       -0.068  -1.355   1.945  0.00  0.00    +0.004 A 
ATOM     11  C   LIG    1        0.983  -1.992   2.574  0.00  0.00    +0.002 A 
ATOM     12  C   LIG    1        0.942  -2.219   3.938  0.00  0.00    +0.020 A 
ATOM     13  C   LIG    1       -0.150  -1.804   4.681  0.00  0.00    +0.041 A 
ATOM     14 CL   LIG    1       -0.195  -2.093   6.392  0.00  0.00    -0.084 Cl
ATOM     15  C   LIG    1       -1.205  -1.161   4.062  0.00  0.00    +0.024 A 
ENDBRANCH   8   9
BRANCH   4  16
ATOM     16  N   LIG    1       -5.393   1.657   0.181  0.00  0.00    -0.303 NA
ATOM     17  H   LIG    1       -5.265   2.546  -0.184  0.00  0.00    +0.121 HD
ATOM     18  H   LIG    1       -6.257   1.222   0.108  0.00  0.00    +0.121 HD
ENDBRANCH   4  16
BRANCH   7  19
ATOM     19  N   LIG    1       -3.765  -2.128   2.418  0.00  0.00    -0.315 NA
ATOM     20  H   LIG    1       -4.636  -2.547   2.335  0.00  0.00    +0.120 HD
ATOM     21  H   LIG    1       -3.041  -2.598   2.860  0.00  0.00    +0.120 HD
ENDBRANCH   7  19
BRANCH   1  23
ATOM     22  C   LIG    1       -0.747   2.530   2.892  0.00  0.00    +0.005 C 
ATOM     23  C   LIG    1       -0.814   1.745   1.581  0.00  0.00    +0.016 C 
ENDBRANCH   1  23
TORSDOF 4
