REMARK  Name = ZINC13448389
REMARK                            x       y       z     vdW  Elec       q    Type
REMARK                         _______ _______ _______ _____ _____    ______ ____
ROOT
ATOM      1  C   LIG    1        4.473   3.625  -4.115  0.00  0.00    +0.015 C 
ATOM      2  C   LIG    1        5.441   3.527  -2.935  0.00  0.00    +0.011 C 
ATOM      3  C   LIG    1        5.714   2.070  -2.615  0.00  0.00    +0.011 C 
ATOM      4  C   LIG    1        4.353   1.390  -2.389  0.00  0.00    +0.005 C 
ATOM      5  C   LIG    1        3.564   2.076  -1.279  0.00  0.00    -0.001 C 
ATOM      6  C   LIG    1        3.406   3.579  -1.540  0.00  0.00    -0.004 C 
ATOM      7  C   LIG    1        2.683   4.205  -0.344  0.00  0.00    +0.004 C 
ATOM      8  C   LIG    1        1.293   3.582  -0.230  0.00  0.00    +0.005 C 
ATOM      9  C   LIG    1        1.403   2.072  -0.000  0.00  0.00    +0.001 C 
ATOM     10  C   LIG    1       -0.018   1.499   0.010  0.00  0.00    +0.060 C 
ATOM     11  C   LIG    1        0.002  -0.004   0.002  0.00  0.00    +0.050 A 
ATOM     12  N   LIG    1       -1.088  -0.643   0.380  0.00  0.00    -0.216 NA
ATOM     13  C   LIG    1       -1.151  -1.981   0.394  0.00  0.00    +0.236 A 
ATOM     14  N   LIG    1       -2.138  -2.801   0.738  0.00  0.00    -0.210 NA
ATOM     15  C   LIG    1       -1.742  -4.067   0.587  0.00  0.00    +0.092 A 
ATOM     16  C   LIG    1       -2.400  -5.286   0.810  0.00  0.00    +0.030 A 
ATOM     17  C   LIG    1       -1.694  -6.433   0.548  0.00  0.00    +0.002 A 
ATOM     18  C   LIG    1       -0.389  -6.408   0.083  0.00  0.00    +0.002 A 
ATOM     19  C   LIG    1        0.286  -5.220  -0.145  0.00  0.00    +0.028 A 
ATOM     20  C   LIG    1       -0.407  -4.043   0.113  0.00  0.00    +0.075 A 
ATOM     21  N   LIG    1       -0.058  -2.722   0.003  0.00  0.00    -0.283 N 
ATOM     22  C   LIG    1        1.081  -2.086  -0.391  0.00  0.00    +0.100 A 
ATOM     23  C   LIG    1        1.130  -0.726  -0.391  0.00  0.00    -0.009 A 
ATOM     24  C   LIG    1        2.411  -0.059  -0.801  0.00  0.00    +0.045 C 
ATOM     25  C   LIG    1        2.187   1.418  -1.142  0.00  0.00    -0.022 C 
ATOM     26  C   LIG    1        1.416   1.540  -2.458  0.00  0.00    +0.012 C 
ATOM     27  C   LIG    1        6.659   4.408  -3.192  0.00  0.00    +0.132 C 
ATOM     28  C   LIG    1        6.274   5.808  -2.650  0.00  0.00    +0.049 C 
ATOM     29  C   LIG    1        4.865   5.658  -2.014  0.00  0.00    +0.008 C 
ATOM     30  C   LIG    1        4.799   4.166  -1.674  0.00  0.00    +0.002 C 
ENDROOT
BRANCH  27  31
ATOM     31  O   LIG    1        6.933   4.477  -4.593  0.00  0.00    -0.376 OA
ATOM     32  H   LIG    1        7.673   5.057  -4.820  0.00  0.00    +0.211 HD
ENDBRANCH  27  31
BRANCH  27  33
ATOM     33  C   LIG    1        7.830   3.886  -2.469  0.00  0.00    -0.070 C 
ATOM     34  C   LIG    1        8.765   3.470  -1.893  0.00  0.00    +0.007 C 
ENDBRANCH  27  33
TORSDOF 2
