REMARK  Name = ZINC13526653
REMARK                            x       y       z     vdW  Elec       q    Type
REMARK                         _______ _______ _______ _____ _____    ______ ____
ROOT
ATOM      1  C   LIG    1       -2.530  -0.287  -0.082  0.00  0.00    +0.103 A 
ATOM      2  C   LIG    1       -2.881   0.952   0.352  0.00  0.00    +0.042 A 
ATOM      3  C   LIG    1       -4.259   1.129   0.082  0.00  0.00    +0.014 A 
ATOM      4  C   LIG    1       -4.713  -0.055  -0.531  0.00  0.00    +0.048 A 
ATOM      5  C   LIG    1       -6.049  -0.161  -0.908  0.00  0.00    +0.026 A 
ATOM      6  C   LIG    1       -6.910   0.889  -0.681  0.00  0.00    +0.003 A 
ATOM      7  C   LIG    1       -6.461   2.056  -0.078  0.00  0.00    +0.016 A 
ATOM      8  C   LIG    1       -5.155   2.184   0.302  0.00  0.00    +0.027 A 
ATOM      9 BR   LIG    1       -4.558   3.780   1.122  0.00  0.00    -0.050 Br
ATOM     10  N   LIG    1       -3.640  -0.909  -0.622  0.00  0.00    -0.351 N 
ATOM     11  H   LIG    1       -3.556  -1.927  -1.029  0.00  0.00    +0.166 HD
ENDROOT
BRANCH   1  17
ATOM     12  C   LIG    1       -0.710  -5.765   2.307  0.00  0.00    +0.105 C 
ATOM     13  N   LIG    1       -0.791  -4.726   1.271  0.00  0.00    -0.302 NA
ATOM     14  C   LIG    1       -2.091  -4.043   1.311  0.00  0.00    +0.103 C 
ATOM     15  C   LIG    1       -2.206  -3.100   0.110  0.00  0.00    +0.123 C 
ATOM     16  N   LIG    1       -1.036  -2.209   0.101  0.00  0.00    -0.294 N 
ATOM     17  C   LIG    1       -1.184  -0.873   0.008  0.00  0.00    +0.263 C 
ATOM     18  O   LIG    1       -0.205  -0.151  -0.001  0.00  0.00    -0.268 OA
ATOM     19  C   LIG    1        0.301  -2.816   0.192  0.00  0.00    +0.123 C 
ATOM     20  C   LIG    1        0.317  -3.770   1.396  0.00  0.00    +0.103 C 
ENDBRANCH   1  17
TORSDOF 1
