REMARK  Name = ZINC13511011
REMARK                            x       y       z     vdW  Elec       q    Type
REMARK                         _______ _______ _______ _____ _____    ______ ____
ROOT
ATOM      1  C   LIG    1        3.874  -4.716  -0.194  0.00  0.00    +0.001 A 
ATOM      2  C   LIG    1        5.035  -3.946  -0.200  0.00  0.00    +0.001 A 
ATOM      3  C   LIG    1        4.975  -2.587  -0.149  0.00  0.00    +0.011 A 
ATOM      4  C   LIG    1        3.724  -1.948  -0.089  0.00  0.00    +0.014 A 
ATOM      5  C   LIG    1        2.544  -2.732  -0.083  0.00  0.00    +0.006 A 
ATOM      6  C   LIG    1        1.289  -2.091  -0.023  0.00  0.00    +0.052 A 
ATOM      7  C   LIG    1        1.234  -0.716   0.029  0.00  0.00    +0.027 A 
ATOM      8  C   LIG    1        2.399   0.044   0.023  0.00  0.00    +0.035 A 
ATOM      9  C   LIG    1        3.624  -0.547  -0.035  0.00  0.00    +0.129 A 
ATOM     10  C   LIG    1        2.646  -4.131  -0.137  0.00  0.00    +0.010 A 
ENDROOT
BRANCH   6  11
ATOM     11  N   LIG    1        0.111  -2.846  -0.017  0.00  0.00    -0.209 N 
ATOM     12  C   LIG    1       -0.529  -3.197  -1.138  0.00  0.00    +0.231 C 
ATOM     13  C   LIG    1       -1.758  -4.004  -0.785  0.00  0.00    +0.095 C 
ATOM     14  C   LIG    1       -3.019  -3.142  -1.107  0.00  0.00    +0.025 C 
ATOM     15  C   LIG    1       -2.950  -2.088   0.058  0.00  0.00    +0.016 C 
ATOM     16  C   LIG    1       -2.974  -3.190   1.179  0.00  0.00    +0.025 C 
ATOM     17  C   LIG    1       -4.167  -4.025   0.701  0.00  0.00    -0.027 C 
ATOM     18  C   LIG    1       -4.194  -4.007  -0.637  0.00  0.00    -0.027 C 
ATOM     19  C   LIG    1       -1.715  -4.057   0.771  0.00  0.00    +0.095 C 
ATOM     20  O   LIG    1       -0.178  -2.913  -2.263  0.00  0.00    -0.274 OA
ATOM     21  C   LIG    1       -0.464  -3.280   1.111  0.00  0.00    +0.231 C 
ATOM     22  O   LIG    1       -0.048  -3.078   2.231  0.00  0.00    -0.274 OA
ENDBRANCH   6  11
BRANCH   9  23
ATOM     23  N   LIG    1        4.849   0.284  -0.041  0.00  0.00    +0.007 N 
ATOM     24  O   LIG    1        4.904   1.283   0.637  0.00  0.00    -0.130 OA
BRANCH  23  25
ATOM     25  O   LIG    1        5.795  -0.037  -0.722  0.00  0.00    -0.396 OA
ATOM     26  H   LIG    1        5.752  -0.812  -1.247  0.00  0.00    +0.329 HD
ENDBRANCH  23  25
ENDBRANCH   9  23
TORSDOF 3
