REMARK  Name = ZINC13551840
REMARK                            x       y       z     vdW  Elec       q    Type
REMARK                         _______ _______ _______ _____ _____    ______ ____
ROOT
ATOM      1  C   LIG    1       -2.184   1.212  -1.660  0.00  0.00    -0.004 C 
ATOM      2  C   LIG    1       -0.899   2.020  -1.467  0.00  0.00    +0.008 C 
ENDROOT
BRANCH   2   3
ATOM      3  N   LIG    1       -0.040   1.863  -2.648  0.00  0.00    +0.386 N 
ATOM      4  H   LIG    1        0.212   0.800  -2.780  0.00  0.00    -0.089 HD
ATOM      5  H   LIG    1       -0.572   2.228  -3.540  0.00  0.00    -0.089 HD
ATOM      6  H   LIG    1        0.884   2.444  -2.510  0.00  0.00    -0.089 HD
ENDBRANCH   2   3
BRANCH   2   7
ATOM      7  P   LIG    1       -0.017   1.416   0.010  0.00  0.00    +0.177 P 
ATOM      8  O   LIG    1        1.371   1.928  -0.001  0.00  0.00    -0.296 OA
ATOM      9  H   LIG    1        0.146   0.333   0.118  0.00  0.00    +0.126 HD
BRANCH   7  10
ATOM     10  O   LIG    1       -0.771   1.935   1.334  0.00  0.00    -0.347 OA
ATOM     11  H   LIG    1       -1.681   1.599   1.341  0.00  0.00    +0.217 HD
ENDBRANCH   7  10
ENDBRANCH   2   7
TORSDOF 3
