REMARK  Name = ZINC13491413
REMARK                            x       y       z     vdW  Elec       q    Type
REMARK                         _______ _______ _______ _____ _____    ______ ____
ROOT
ATOM      1  C   LIG    1       -0.019   1.526   0.010  0.00  0.00    +0.004 C 
ATOM      2  C   LIG    1        1.418   2.052  -0.001  0.00  0.00    +0.002 C 
ATOM      3  C   LIG    1        2.160   1.545   1.235  0.00  0.00    -0.025 C 
ATOM      4  C   LIG    1        1.463   2.042   2.501  0.00  0.00    -0.078 C 
ATOM      5  N   LIG    1        2.194   1.568   3.683  0.00  0.00    +0.388 N 
ATOM      6  H1  LIG    1        1.760   1.937   4.516  0.00  0.00    -0.085 HD
ATOM      7  H2  LIG    1        3.150   1.886   3.635  0.00  0.00    -0.085 HD
ATOM      8  CA  LIG    1        2.169   0.101   3.731  0.00  0.00    +0.039 C 
ATOM      9  C   LIG    1        2.892  -0.467   2.507  0.00  0.00    -0.001 C 
ATOM     10  C   LIG    1        2.174   0.014   1.242  0.00  0.00    -0.010 C 
ATOM     11  C   LIG    1        0.736  -0.509   1.246  0.00  0.00    +0.007 C 
ATOM     12  C   LIG    1        0.002  -0.004   0.002  0.00  0.00    -0.010 C 
ENDROOT
BRANCH   8  13
ATOM     13  C   LIG    1        2.860  -0.371   4.984  0.00  0.00    +0.291 C 
ATOM     14  O   LIG    1        3.329   0.440   5.764  0.00  0.00    -0.253 OA
BRANCH  13  15
ATOM     15  OXT LIG    1        2.950  -1.564   5.217  0.00  0.00    -0.482 OA
ATOM     16  HXT LIG    1        2.590  -2.188   4.618  0.00  0.00    +0.295 HD
ENDBRANCH  13  15
ENDBRANCH   8  13
BRANCH  12  17
ATOM     17  C   LIG    1       -1.433  -0.534   0.006  0.00  0.00    +0.011 C 
BRANCH  17  18
ATOM     18  C   LIG    1       -2.129  -0.132  -1.296  0.00  0.00    +0.078 C 
BRANCH  18  19
ATOM     19  C   LIG    1       -3.542  -0.653  -1.293  0.00  0.00    +0.149 A 
ATOM     20  N   LIG    1       -3.953  -1.827  -1.752  0.00  0.00    -0.243 N 
ATOM     21  H   LIG    1       -3.387  -2.521  -2.162  0.00  0.00    +0.192 HD
ATOM     22  N   LIG    1       -5.227  -1.895  -1.565  0.00  0.00    -0.047 NA
ATOM     23  N   LIG    1       -5.628  -0.803  -1.012  0.00  0.00    -0.023 NA
ATOM     24  N   LIG    1       -4.615  -0.025  -0.835  0.00  0.00    -0.114 NA
ENDBRANCH  18  19
ENDBRANCH  17  18
ENDBRANCH  12  17
TORSDOF 5
