REMARK  Name = ZINC13110453
REMARK                            x       y       z     vdW  Elec       q    Type
REMARK                         _______ _______ _______ _____ _____    ______ ____
ROOT
ATOM      1  C   LIG    1        5.930  -1.956   0.339  0.00  0.00    +0.362 C 
ATOM      2  O   LIG    1        5.904  -0.738   0.308  0.00  0.00    -0.247 OA
ENDROOT
BRANCH   1   3
ATOM      3  C   LIG    1        7.217  -2.664   0.493  0.00  0.00    +0.186 A 
ATOM      4  C   LIG    1        8.406  -1.935   0.646  0.00  0.00    +0.151 A 
ATOM      5  N   LIG    1        9.561  -2.576   0.783  0.00  0.00    -0.213 NA
ATOM      6  C   LIG    1        9.586  -3.902   0.776  0.00  0.00    +0.156 A 
ATOM      7  C   LIG    1        8.398  -4.627   0.623  0.00  0.00    +0.170 A 
ATOM      8 CL   LIG    1        8.437  -6.362   0.615  0.00  0.00    -0.058 Cl
ATOM      9  N   LIG    1        7.251  -3.996   0.491  0.00  0.00    -0.222 NA
BRANCH   4  10
ATOM     10  N   LIG    1        8.376  -0.551   0.652  0.00  0.00    -0.341 N 
ATOM     11  H   LIG    1        9.203  -0.048   0.720  0.00  0.00    +0.144 HD
ATOM     12  H   LIG    1        7.528  -0.084   0.589  0.00  0.00    +0.144 HD
ENDBRANCH   4  10
BRANCH   6  13
ATOM     13  N   LIG    1       10.790  -4.572   0.919  0.00  0.00    -0.341 N 
ATOM     14  H   LIG    1       10.809  -5.542   0.914  0.00  0.00    +0.144 HD
ATOM     15  H   LIG    1       11.614  -4.071   1.025  0.00  0.00    +0.144 HD
ENDBRANCH   6  13
ENDBRANCH   1   3
BRANCH   1  17
ATOM     16  C   LIG    1        3.626  -2.022   0.220  0.00  0.00    +0.382 C 
ATOM     17  N   LIG    1        4.790  -2.654   0.235  0.00  0.00    +0.002 NA
BRANCH  16  18
ATOM     18  N   LIG    1        2.484  -2.704  -0.083  0.00  0.00    -0.290 N 
ATOM     19  H   LIG    1        1.619  -2.234  -0.094  0.00  0.00    +0.254 HD
ATOM     20  H   LIG    1        2.524  -3.651  -0.287  0.00  0.00    +0.254 HD
ENDBRANCH  16  18
BRANCH  16  21
ATOM     21  N   LIG    1        3.570  -0.689   0.508  0.00  0.00    -0.245 N 
ATOM     22  H   LIG    1        4.365  -0.224   0.811  0.00  0.00    +0.265 HD
BRANCH  21  26
ATOM     23  C   LIG    1       -0.020   1.383   0.086  0.00  0.00    +0.000 A 
ATOM     24  C   LIG    1        1.145   2.072   0.371  0.00  0.00    +0.003 A 
ATOM     25  C   LIG    1        2.337   1.388   0.512  0.00  0.00    +0.042 A 
ATOM     26  C   LIG    1        2.365   0.007   0.367  0.00  0.00    +0.100 A 
ATOM     27  C   LIG    1        1.193  -0.682   0.081  0.00  0.00    +0.042 A 
ATOM     28  C   LIG    1        0.005   0.008  -0.059  0.00  0.00    +0.003 A 
ENDBRANCH  21  26
ENDBRANCH  16  21
ENDBRANCH   1  17
TORSDOF 7
