REMARK  Name = ZINC13209604
REMARK                            x       y       z     vdW  Elec       q    Type
REMARK                         _______ _______ _______ _____ _____    ______ ____
ROOT
ATOM      1  C   LIG    1       -0.018   1.503   0.010  0.00  0.00    +0.065 C 
ATOM      2  C   LIG    1        0.002  -0.004   0.002  0.00  0.00    +0.035 A 
ATOM      3  C   LIG    1        0.008  -0.801  -1.084  0.00  0.00    +0.060 A 
ATOM      4  N   LIG    1        0.027  -2.075  -0.663  0.00  0.00    -0.241 NA
ATOM      5  C   LIG    1        0.033  -2.097   0.641  0.00  0.00    +0.196 A 
ATOM      6  N   LIG    1        0.024  -0.826   1.097  0.00  0.00    -0.348 N 
ATOM      7  H   LIG    1        0.030  -0.547   2.026  0.00  0.00    +0.166 HD
ENDROOT
BRANCH   3   8
ATOM      8  C   LIG    1       -0.005  -0.342  -2.519  0.00  0.00    +0.038 C 
BRANCH   8   9
ATOM      9  C   LIG    1        1.433  -0.167  -3.011  0.00  0.00    -0.080 C 
BRANCH   9  10
ATOM     10  N   LIG    1        1.421   0.280  -4.410  0.00  0.00    +0.378 N 
ATOM     11  H   LIG    1        2.370   0.396  -4.735  0.00  0.00    -0.090 HD
ATOM     12  H   LIG    1        0.933   1.161  -4.478  0.00  0.00    -0.090 HD
ATOM     13  H   LIG    1        0.952  -0.408  -4.980  0.00  0.00    -0.090 HD
ENDBRANCH   9  10
ENDBRANCH   8   9
ENDBRANCH   3   8
TORSDOF 3
