REMARK  Name = ZINC13454507
REMARK                            x       y       z     vdW  Elec       q    Type
REMARK                         _______ _______ _______ _____ _____    ______ ____
ROOT
ATOM      1  C   LIG    1        4.493   1.637  -1.458  0.00  0.00    +0.070 C 
ATOM      2  C   LIG    1        3.467   0.823  -0.666  0.00  0.00    +0.248 C 
ATOM      3  O   LIG    1        3.561   1.159   0.729  0.00  0.00    -0.349 OA
ATOM      4  C   LIG    1        2.197   1.112   1.217  0.00  0.00    +0.196 C 
ATOM      5  C   LIG    1        1.412   1.635  -0.003  0.00  0.00    +0.084 C 
ATOM      6  C   LIG    1        1.383   3.159  -0.004  0.00  0.00    -0.041 C 
ATOM      7  N   LIG    1       -0.020   3.634   0.001  0.00  0.00    +0.382 N 
ATOM      8  H   LIG    1       -0.024   4.660  -0.002  0.00  0.00    -0.082 HD
ATOM      9  C   LIG    1       -0.723   3.146  -1.204  0.00  0.00    -0.078 C 
ATOM     10  C   LIG    1       -0.746   1.615  -1.233  0.00  0.00    -0.012 C 
ATOM     11  C   LIG    1       -0.711   3.153   1.216  0.00  0.00    -0.078 C 
ATOM     12  C   LIG    1       -0.724   1.602   1.268  0.00  0.00    -0.012 C 
ATOM     13  C   LIG    1       -0.013   1.086   0.008  0.00  0.00    +0.018 C 
ATOM     14  O   LIG    1        2.144   1.133  -1.128  0.00  0.00    -0.345 OA
ENDROOT
TORSDOF 0
