REMARK  Name = ZINC13467799
REMARK                            x       y       z     vdW  Elec       q    Type
REMARK                         _______ _______ _______ _____ _____    ______ ____
ROOT
ATOM      1  C   LIG    1       -0.371   1.958  -3.572  0.00  0.00    +0.141 A 
ATOM      2  N   LIG    1       -1.627   2.323  -3.719  0.00  0.00    -0.307 N 
ATOM      3  C   LIG    1       -2.445   2.332  -2.663  0.00  0.00    +0.256 A 
ATOM      4  O   LIG    1       -3.612   2.664  -2.805  0.00  0.00    -0.267 OA
ATOM      5  C   LIG    1       -1.969   1.960  -1.367  0.00  0.00    +0.048 A 
ATOM      6  C   LIG    1       -2.985   2.059  -0.257  0.00  0.00    +0.111 C 
ATOM      7  S   LIG    1       -2.459   1.063   1.166  0.00  0.00    -0.155 S 
ATOM      8  C   LIG    1       -0.700   1.507   1.290  0.00  0.00    +0.075 C 
ATOM      9  C   LIG    1       -0.013   1.086   0.008  0.00  0.00    +0.066 C 
ATOM     10  C   LIG    1       -0.699   1.563  -1.238  0.00  0.00    +0.053 A 
ATOM     11  H   LIG    1       -2.002   2.619  -4.710  0.00  0.00    +0.170 HD
ATOM     12  N   LIG    1        0.103   1.583  -2.362  0.00  0.00    -0.234 NA
ENDROOT
BRANCH   1  18
ATOM     13  C   LIG    1        1.867   1.579  -4.598  0.00  0.00    +0.012 A 
ATOM     14  C   LIG    1        2.703   1.575  -5.696  0.00  0.00    +0.013 A 
ATOM     15  C   LIG    1        2.222   1.958  -6.936  0.00  0.00    +0.055 A 
ATOM     16  C   LIG    1        0.901   2.341  -7.085  0.00  0.00    +0.013 A 
ATOM     17  C   LIG    1        0.054   2.343  -5.997  0.00  0.00    +0.012 A 
ATOM     18  C   LIG    1        0.532   1.958  -4.743  0.00  0.00    +0.017 A 
BRANCH  15  19
ATOM     19  C   LIG    1        3.142   1.958  -8.130  0.00  0.00    +0.417 C 
ATOM     20  F   LIG    1        2.403   1.697  -9.288  0.00  0.00    -0.166 F 
ATOM     21  F   LIG    1        4.118   0.968  -7.966  0.00  0.00    -0.166 F 
ATOM     22  F   LIG    1        3.760   3.208  -8.242  0.00  0.00    -0.166 F 
ENDBRANCH  15  19
ENDBRANCH   1  18
TORSDOF 2
