REMARK  Name = ZINC13518991
REMARK                            x       y       z     vdW  Elec       q    Type
REMARK                         _______ _______ _______ _____ _____    ______ ____
ROOT
ATOM      1  C   LIG    1        1.972   1.622   2.302  0.00  0.00    +0.105 A 
ATOM      2  C   LIG    1        2.132   0.783   1.261  0.00  0.00    +0.035 A 
ATOM      3  N   LIG    1        3.148  -0.043   1.548  0.00  0.00    -0.350 N 
ATOM      4  H   LIG    1        3.499  -0.788   0.934  0.00  0.00    +0.166 HD
ATOM      5  C   LIG    1        3.620   0.246   2.728  0.00  0.00    +0.171 A 
ATOM      6  N   LIG    1        2.912   1.278   3.236  0.00  0.00    -0.352 N 
ATOM      7  H   LIG    1        3.049   1.710   4.127  0.00  0.00    +0.166 HD
ENDROOT
BRANCH   2   8
ATOM      8  C   LIG    1        1.317   0.779  -0.006  0.00  0.00    +0.021 C 
ATOM      9  C   LIG    1       -0.019   1.526   0.010  0.00  0.00    -0.008 C 
ATOM     10  C   LIG    1        0.002  -0.004   0.002  0.00  0.00    -0.066 C 
BRANCH  10  11
ATOM     11  N   LIG    1       -0.373  -0.697  -1.243  0.00  0.00    +0.380 N 
ATOM     12  H   LIG    1        0.344  -1.397  -1.469  0.00  0.00    -0.090 HD
ATOM     13  H   LIG    1       -0.437  -0.029  -2.009  0.00  0.00    -0.090 HD
ATOM     14  H   LIG    1       -1.270  -1.165  -1.126  0.00  0.00    -0.090 HD
ENDBRANCH  10  11
ENDBRANCH   2   8
TORSDOF 2
