REMARK  Name = ZINC13060570
REMARK                            x       y       z     vdW  Elec       q    Type
REMARK                         _______ _______ _______ _____ _____    ______ ____
ROOT
ATOM      1  C   LIG    1        0.420  -5.050   0.252  0.00  0.00    +0.121 A 
ATOM      2  C   LIG    1        1.810  -5.041   0.247  0.00  0.00    +0.046 A 
ATOM      3  C   LIG    1        2.492  -3.848   0.156  0.00  0.00    +0.011 A 
ATOM      4  C   LIG    1        1.783  -2.644   0.068  0.00  0.00    -0.024 A 
ATOM      5  C   LIG    1        0.383  -2.659   0.079  0.00  0.00    +0.011 A 
ATOM      6  C   LIG    1       -0.289  -3.858   0.165  0.00  0.00    +0.046 A 
ENDROOT
BRANCH   4   7
ATOM      7  C   LIG    1        2.505  -1.369  -0.029  0.00  0.00    +0.028 C 
ATOM      8  C   LIG    1        1.827  -0.223  -0.286  0.00  0.00    +0.080 C 
ATOM      9  C   LIG    1        2.303   1.175  -0.279  0.00  0.00    +0.258 C 
ATOM     10  N   LIG    1        1.411   2.107  -0.572  0.00  0.00    -0.243 N 
ATOM     11  H   LIG    1        1.682   3.038  -0.578  0.00  0.00    +0.159 HD
ATOM     12  C   LIG    1        0.132   1.791  -0.862  0.00  0.00    +0.283 C 
ATOM     13  O   LIG    1       -0.783   2.538  -1.151  0.00  0.00    -0.262 OA
ATOM     14  O   LIG    1        3.457   1.456  -0.017  0.00  0.00    -0.269 OA
ATOM     15  S   LIG    1        0.110   0.011  -0.728  0.00  0.00    -0.026 S 
ENDBRANCH   4   7
BRANCH   1  16
ATOM     16  O   LIG    1       -0.248  -6.229   0.341  0.00  0.00    -0.487 OA
BRANCH  16  17
ATOM     17  C   LIG    1       -1.675  -6.168   0.341  0.00  0.00    +0.264 C 
BRANCH  17  22
ATOM     18  C   LIG    1       -3.834 -11.513   0.743  0.00  0.00    +0.044 C 
ATOM     19  C   LIG    1       -3.271 -10.119   0.638  0.00  0.00    -0.050 A 
ATOM     20  C   LIG    1       -3.009  -9.391   1.784  0.00  0.00    +0.004 A 
ATOM     21  C   LIG    1       -2.493  -8.112   1.688  0.00  0.00    +0.007 A 
ATOM     22  C   LIG    1       -2.238  -7.562   0.446  0.00  0.00    -0.010 A 
ATOM     23  C   LIG    1       -2.505  -8.287  -0.700  0.00  0.00    +0.007 A 
ATOM     24  C   LIG    1       -3.018  -9.568  -0.604  0.00  0.00    +0.004 A 
ENDBRANCH  17  22
ENDBRANCH  16  17
ENDBRANCH   1  16
TORSDOF 4
