REMARK  Name = ZINC13208878
REMARK                            x       y       z     vdW  Elec       q    Type
REMARK                         _______ _______ _______ _____ _____    ______ ____
ROOT
ATOM      1  N   LIG    1       -1.318  -1.702  -1.129  0.00  0.00    -0.294 NA
ATOM      2  C   LIG    1       -1.377  -0.969  -2.404  0.00  0.00    +0.089 C 
ATOM      3  C   LIG    1       -1.081  -1.949  -3.543  0.00  0.00    +0.043 C 
ATOM      4  C   LIG    1       -1.928  -3.180  -3.385  0.00  0.00    -0.019 C 
ATOM      5  C   LIG    1       -2.534  -3.486  -2.258  0.00  0.00    -0.011 C 
ATOM      6  C   LIG    1       -2.448  -2.634  -1.024  0.00  0.00    +0.121 C 
ENDROOT
BRANCH   5   7
ATOM      7  C   LIG    1       -3.338  -4.724  -2.204  0.00  0.00    +0.077 A 
ATOM      8  C   LIG    1       -3.440  -5.532  -3.303  0.00  0.00    +0.076 A 
ATOM      9  S   LIG    1       -4.495  -6.828  -2.669  0.00  0.00    -0.060 S 
ATOM     10  C   LIG    1       -4.693  -6.171  -1.018  0.00  0.00    +0.156 A 
ATOM     11  N   LIG    1       -3.968  -5.071  -1.082  0.00  0.00    -0.225 NA
BRANCH  10  12
ATOM     12  N   LIG    1       -5.414  -6.684   0.047  0.00  0.00    -0.338 N 
ATOM     13  H   LIG    1       -5.431  -6.212   0.894  0.00  0.00    +0.144 HD
ATOM     14  H   LIG    1       -5.903  -7.516  -0.053  0.00  0.00    +0.144 HD
ENDBRANCH  10  12
ENDBRANCH   5   7
BRANCH   1  15
ATOM     15  C   LIG    1       -1.293  -0.775   0.010  0.00  0.00    +0.111 C 
BRANCH  15  17
ATOM     16  C   LIG    1       -0.016   1.306   0.009  0.00  0.00    +0.005 C 
ATOM     17  C   LIG    1        0.002  -0.004   0.002  0.00  0.00    -0.019 C 
ENDBRANCH  15  17
ENDBRANCH   1  15
TORSDOF 4
