REMARK  Name = ZINC13284470
REMARK                            x       y       z     vdW  Elec       q    Type
REMARK                         _______ _______ _______ _____ _____    ______ ____
ROOT
ATOM      1  C   LIG    1        0.723   8.507   5.641  0.00  0.00    +0.128 A 
ATOM      2  C   LIG    1        0.718   9.432   4.603  0.00  0.00    +0.047 A 
ATOM      3  C   LIG    1        0.590   9.007   3.300  0.00  0.00    +0.016 A 
ATOM      4  C   LIG    1        0.466   7.644   3.020  0.00  0.00    +0.037 A 
ATOM      5  C   LIG    1        0.466   6.717   4.066  0.00  0.00    +0.016 A 
ATOM      6  C   LIG    1        0.600   7.149   5.367  0.00  0.00    +0.047 A 
ENDROOT
BRANCH   4   7
ATOM      7  C   LIG    1        0.328   7.184   1.625  0.00  0.00    +0.244 C 
ATOM      8  N   LIG    1        0.208   5.868   1.357  0.00  0.00    -0.306 N 
ATOM      9  H   LIG    1        0.212   5.224   2.082  0.00  0.00    +0.149 HD
ATOM     10  O   LIG    1        0.322   7.992   0.716  0.00  0.00    -0.270 OA
BRANCH   8  11
ATOM     11  C   LIG    1        0.071   5.412  -0.029  0.00  0.00    +0.160 C 
BRANCH  11  12
ATOM     12  C   LIG    1       -0.045   3.910  -0.053  0.00  0.00    +0.058 A 
ATOM     13  C   LIG    1       -1.295   3.322  -0.081  0.00  0.00    +0.025 A 
ATOM     14  C   LIG    1       -1.391   1.939  -0.109  0.00  0.00    +0.003 A 
ATOM     15  C   LIG    1       -0.220   1.196  -0.098  0.00  0.00    +0.020 A 
ATOM     16  C   LIG    1        0.995   1.854  -0.069  0.00  0.00    +0.111 A 
ATOM     17  N   LIG    1        1.048   3.172  -0.048  0.00  0.00    -0.258 NA
ENDBRANCH  11  12
ENDBRANCH   8  11
ENDBRANCH   4   7
BRANCH   1  18
ATOM     18  O   LIG    1        0.850   8.929   6.924  0.00  0.00    -0.456 OA
BRANCH  18  22
ATOM     19  C   LIG    1       -2.246  11.112   8.558  0.00  0.00    +0.000 A 
ATOM     20  C   LIG    1       -1.072  10.940   9.269  0.00  0.00    +0.004 A 
ATOM     21  C   LIG    1       -0.034  10.209   8.724  0.00  0.00    +0.046 A 
ATOM     22  C   LIG    1       -0.170   9.648   7.462  0.00  0.00    +0.128 A 
ATOM     23  C   LIG    1       -1.347   9.826   6.749  0.00  0.00    +0.046 A 
ATOM     24  C   LIG    1       -2.384  10.554   7.301  0.00  0.00    +0.004 A 
ENDBRANCH  18  22
ENDBRANCH   1  18
TORSDOF 5
