REMARK  Name = ZINC13489844
REMARK                            x       y       z     vdW  Elec       q    Type
REMARK                         _______ _______ _______ _____ _____    ______ ____
ROOT
ATOM      1  N   LIG    1       -0.018   1.462   0.010  0.00  0.00    -0.295 NA
ATOM      2  C   LIG    1        1.355   1.991  -0.000  0.00  0.00    +0.089 C 
ATOM      3  C   LIG    1        1.989   1.722   1.365  0.00  0.00    +0.051 C 
ATOM      4  C   LIG    1        1.807   0.274   1.741  0.00  0.00    -0.042 A 
ATOM      5  C   LIG    1        2.598  -0.251   2.752  0.00  0.00    +0.004 A 
ATOM      6  C   LIG    1        2.458  -1.571   3.132  0.00  0.00    +0.000 A 
ATOM      7  C   LIG    1        1.524  -2.373   2.502  0.00  0.00    +0.000 A 
ATOM      8  C   LIG    1        0.739  -1.851   1.494  0.00  0.00    +0.005 A 
ATOM      9  C   LIG    1        0.879  -0.526   1.110  0.00  0.00    -0.030 A 
ATOM     10  C   LIG    1        0.002  -0.004   0.002  0.00  0.00    +0.120 C 
ENDROOT
BRANCH   1  17
ATOM     11  C   LIG    1       -4.201   1.678  -2.568  0.00  0.00    +0.024 C 
ATOM     12  C   LIG    1       -2.768   2.086  -2.341  0.00  0.00    +0.052 C 
ATOM     13  N   LIG    1       -2.233   2.958  -3.238  0.00  0.00    -0.313 NA
ATOM     14  H   LIG    1       -2.774   3.324  -4.031  0.00  0.00    +0.122 HD
ATOM     15  C   LIG    1       -0.939   3.317  -3.021  0.00  0.00    +0.082 C 
ATOM     16  C   LIG    1       -0.179   2.850  -1.970  0.00  0.00    +0.034 C 
ATOM     17  C   LIG    1       -0.751   1.957  -1.065  0.00  0.00    +0.060 C 
ATOM     18  C   LIG    1       -2.074   1.568  -1.268  0.00  0.00    +0.037 C 
ENDBRANCH   1  17
TORSDOF 1
