REMARK  Name = ZINC13283285
REMARK                            x       y       z     vdW  Elec       q    Type
REMARK                         _______ _______ _______ _____ _____    ______ ____
ROOT
ATOM      1  C   LIG    1       -1.255  -0.836   0.009  0.00  0.00    +0.160 C 
ENDROOT
BRANCH   1   2
ATOM      2  C   LIG    1        0.002  -0.004   0.002  0.00  0.00    +0.243 C 
ATOM      3  N   LIG    1       -0.019   1.281   0.009  0.00  0.00    -0.275 N 
ATOM      4  H   LIG    1       -0.869   1.857   0.020  0.00  0.00    +0.304 HD
ATOM      5  C   LIG    1        1.357   1.804  -0.001  0.00  0.00    +0.276 C 
ATOM      6  C   LIG    1        2.237   0.538  -0.016  0.00  0.00    +0.268 C 
ATOM      7  N   LIG    1        1.249  -0.554  -0.013  0.00  0.00    -0.237 N 
ATOM      8  H   LIG    1        1.451  -1.503  -0.020  0.00  0.00    +0.291 HD
ENDBRANCH   1   2
BRANCH   1  11
ATOM      9  C   LIG    1       -4.135   1.336  -1.099  0.00  0.00    +0.020 A 
ATOM     10  C   LIG    1       -3.029   0.502  -1.162  0.00  0.00    +0.007 A 
ATOM     11  C   LIG    1       -2.458   0.072   0.026  0.00  0.00    -0.018 A 
ATOM     12  C   LIG    1       -3.008   0.482   1.225  0.00  0.00    +0.115 A 
ATOM     13  N   LIG    1       -4.058   1.281   1.248  0.00  0.00    -0.263 NA
ATOM     14  C   LIG    1       -4.627   1.709   0.138  0.00  0.00    +0.111 A 
ENDBRANCH   1  11
TORSDOF 2
