REMARK  Name = ZINC13470092
REMARK                            x       y       z     vdW  Elec       q    Type
REMARK                         _______ _______ _______ _____ _____    ______ ____
ROOT
ATOM      1  C   LIG    1       -4.052   5.260   0.755  0.00  0.00    -0.096 C 
ATOM      2  N   LIG    1       -2.837   4.424   0.677  0.00  0.00    +0.378 N 
ATOM      3  H   LIG    1       -2.046   4.948   1.069  0.00  0.00    -0.082 HD
ATOM      4  C   LIG    1       -2.541   4.094  -0.734  0.00  0.00    -0.079 C 
ATOM      5  C   LIG    1       -1.217   3.330  -0.799  0.00  0.00    -0.009 C 
ATOM      6  C   LIG    1       -1.336   2.041   0.019  0.00  0.00    +0.034 C 
ATOM      7  C   LIG    1       -1.715   2.393   1.461  0.00  0.00    -0.009 C 
ATOM      8  C   LIG    1       -3.025   3.184   1.460  0.00  0.00    -0.079 C 
ENDROOT
BRANCH   6   9
ATOM      9  C   LIG    1       -0.016   1.314   0.009  0.00  0.00    +0.044 A 
ATOM     10  C   LIG    1        1.162   2.038   0.002  0.00  0.00    +0.023 A 
ATOM     11  C   LIG    1        2.371   1.359  -0.013  0.00  0.00    +0.003 A 
ATOM     12  C   LIG    1        2.350  -0.027  -0.020  0.00  0.00    +0.020 A 
ATOM     13  C   LIG    1        1.133  -0.682  -0.013  0.00  0.00    +0.111 A 
ATOM     14  N   LIG    1        0.002  -0.004   0.002  0.00  0.00    -0.260 NA
ENDBRANCH   6   9
TORSDOF 1
