REMARK  Name = ZINC13444117
REMARK                            x       y       z     vdW  Elec       q    Type
REMARK                         _______ _______ _______ _____ _____    ______ ____
ROOT
ATOM      1  C   LIG    1        2.388   3.982   0.000  0.00  0.00    +0.065 C 
ATOM      2  C   LIG    1        1.111   3.183   0.008  0.00  0.00    +0.038 A 
ATOM      3  C   LIG    1        1.169   1.802   0.001  0.00  0.00    +0.023 A 
ATOM      4  C   LIG    1       -0.013   1.076   0.008  0.00  0.00    +0.005 A 
ATOM      5  C   LIG    1       -1.213   1.769   0.017  0.00  0.00    -0.043 A 
ATOM      6  C   LIG    1       -1.193   3.151   0.030  0.00  0.00    +0.113 A 
ATOM      7  N   LIG    1       -0.050   3.809   0.022  0.00  0.00    -0.260 NA
ENDROOT
BRANCH   5   8
ATOM      8  C   LIG    1       -2.524   1.026   0.020  0.00  0.00    -0.037 C 
ATOM      9  N   LIG    1       -3.542   1.739   0.800  0.00  0.00    +0.382 N 
ATOM     10  H   LIG    1       -3.465   2.750   0.638  0.00  0.00    -0.081 HD
ATOM     11  C   LIG    1       -3.372   1.461   2.261  0.00  0.00    -0.095 C 
ATOM     12  C   LIG    1       -4.837   1.256   0.327  0.00  0.00    -0.078 C 
ATOM     13  C   LIG    1       -4.645   1.137  -1.200  0.00  0.00    -0.020 C 
ATOM     14  C   LIG    1       -3.123   0.986  -1.402  0.00  0.00    -0.013 C 
ENDBRANCH   5   8
TORSDOF 1
