REMARK  Name = ZINC13441891
REMARK                            x       y       z     vdW  Elec       q    Type
REMARK                         _______ _______ _______ _____ _____    ______ ____
ROOT
ATOM      1  C   LIG    1        7.954  -3.015   4.908  0.00  0.00    +0.165 C 
ATOM      2  C   LIG    1        8.487  -1.850   5.748  0.00  0.00    +0.030 C 
ATOM      3  C   LIG    1        9.257  -2.402   6.949  0.00  0.00    +0.003 C 
ATOM      4  C   LIG    1       10.448  -3.228   6.458  0.00  0.00    +0.017 C 
ATOM      5  C   LIG    1        9.938  -4.409   5.626  0.00  0.00    +0.110 C 
ATOM      6  N   LIG    1        9.074  -3.897   4.553  0.00  0.00    -0.165 NA
ENDROOT
BRANCH   1   9
ATOM      7  N   LIG    1        6.095  -2.920   3.280  0.00  0.00    -0.314 N 
ATOM      8  H   LIG    1        5.630  -3.578   3.819  0.00  0.00    +0.149 HD
ATOM      9  C   LIG    1        7.313  -2.481   3.653  0.00  0.00    +0.232 C 
ATOM     10  O   LIG    1        7.894  -1.658   2.978  0.00  0.00    -0.274 OA
BRANCH   7  11
ATOM     11  C   LIG    1        5.472  -2.401   2.059  0.00  0.00    +0.104 C 
BRANCH  11  12
ATOM     12  C   LIG    1        4.103  -3.057   1.867  0.00  0.00    +0.023 C 
BRANCH  12  13
ATOM     13  C   LIG    1        3.453  -2.515   0.593  0.00  0.00    +0.036 C 
BRANCH  13  17
ATOM     14  C   LIG    1       -0.370  -4.345   0.054  0.00  0.00    +0.000 A 
ATOM     15  C   LIG    1       -0.261  -3.171   0.775  0.00  0.00    +0.000 A 
ATOM     16  C   LIG    1        0.976  -2.579   0.950  0.00  0.00    +0.003 A 
ATOM     17  C   LIG    1        2.104  -3.161   0.403  0.00  0.00    -0.047 A 
ATOM     18  C   LIG    1        1.996  -4.336  -0.318  0.00  0.00    +0.003 A 
ATOM     19  C   LIG    1        0.759  -4.927  -0.493  0.00  0.00    +0.000 A 
ENDBRANCH  13  17
ENDBRANCH  12  13
ENDBRANCH  11  12
ENDBRANCH   7  11
ENDBRANCH   1   9
BRANCH   6  20
ATOM     20  S   LIG    1        9.361  -4.302   2.973  0.00  0.00    +0.062 S 
ATOM     21  O   LIG    1        8.161  -4.034   2.261  0.00  0.00    -0.153 OA
ATOM     22  O   LIG    1        9.967  -5.587   2.987  0.00  0.00    -0.153 OA
BRANCH  20  23
ATOM     23  C   LIG    1       10.573  -3.180   2.359  0.00  0.00    +0.106 A 
ATOM     24  C   LIG    1       10.185  -2.091   1.600  0.00  0.00    +0.028 A 
ATOM     25  C   LIG    1       11.136  -1.211   1.118  0.00  0.00    +0.002 A 
ATOM     26  C   LIG    1       12.474  -1.419   1.396  0.00  0.00    +0.000 A 
ATOM     27  C   LIG    1       12.861  -2.506   2.156  0.00  0.00    +0.002 A 
ATOM     28  C   LIG    1       11.910  -3.385   2.641  0.00  0.00    +0.028 A 
ENDBRANCH  20  23
ENDBRANCH   6  20
TORSDOF 7
