REMARK  Name = ZINC13447673
REMARK                            x       y       z     vdW  Elec       q    Type
REMARK                         _______ _______ _______ _____ _____    ______ ____
ROOT
ATOM      1  C   LIG    1        3.969  -0.694  -1.273  0.00  0.00    +0.070 C 
ATOM      2  C   LIG    1        2.584  -0.087  -1.503  0.00  0.00    +0.186 C 
ATOM      3  C   LIG    1        2.095   0.634  -0.230  0.00  0.00    +0.214 C 
ATOM      4  C   LIG    1        0.623   0.201  -0.062  0.00  0.00    +0.106 C 
ATOM      5  C   LIG    1        0.342  -0.742  -1.250  0.00  0.00    +0.226 C 
ATOM      6  N   LIG    1       -0.411  -0.010  -2.272  0.00  0.00    -0.311 N 
ATOM      7  C   LIG    1       -1.769  -0.019  -2.470  0.00  0.00    +0.052 A 
ATOM      8  C   LIG    1       -2.791  -0.622  -1.738  0.00  0.00    +0.026 A 
ATOM      9  C   LIG    1       -4.081  -0.478  -2.219  0.00  0.00    +0.002 A 
ATOM     10  C   LIG    1       -4.365   0.231  -3.373  0.00  0.00    +0.001 A 
ATOM     11  C   LIG    1       -3.370   0.844  -4.115  0.00  0.00    +0.010 A 
ATOM     12  C   LIG    1       -2.062   0.715  -3.646  0.00  0.00    +0.008 A 
ATOM     13  C   LIG    1       -0.792   1.225  -4.153  0.00  0.00    +0.022 A 
ATOM     14  C   LIG    1       -0.398   2.024  -5.252  0.00  0.00    +0.052 A 
ATOM     15  C   LIG    1       -1.158   2.585  -6.380  0.00  0.00    +0.245 C 
ATOM     16  N   LIG    1       -0.352   3.310  -7.174  0.00  0.00    -0.307 N 
ATOM     17  H   LIG    1       -0.624   3.780  -7.978  0.00  0.00    +0.149 HD
ATOM     18  C   LIG    1        1.006   3.272  -6.623  0.00  0.00    +0.141 C 
ATOM     19  O   LIG    1       -2.347   2.416  -6.567  0.00  0.00    -0.270 OA
ATOM     20  C   LIG    1        0.932   2.416  -5.382  0.00  0.00    -0.008 A 
ATOM     21  C   LIG    1        1.886   2.021  -4.449  0.00  0.00    +0.015 A 
ATOM     22  C   LIG    1        3.304   2.308  -4.225  0.00  0.00    +0.008 A 
ATOM     23  C   LIG    1        4.210   3.108  -4.918  0.00  0.00    +0.010 A 
ATOM     24  C   LIG    1        5.502   3.165  -4.423  0.00  0.00    +0.001 A 
ATOM     25  C   LIG    1        5.881   2.463  -3.292  0.00  0.00    +0.002 A 
ATOM     26  C   LIG    1        4.996   1.660  -2.592  0.00  0.00    +0.026 A 
ATOM     27  C   LIG    1        3.691   1.580  -3.074  0.00  0.00    +0.053 A 
ATOM     28  C   LIG    1        1.512   1.166  -3.404  0.00  0.00    +0.077 A 
ATOM     29  C   LIG    1        0.175   0.782  -3.251  0.00  0.00    +0.077 A 
ATOM     30  N   LIG    1        2.608   0.870  -2.614  0.00  0.00    -0.306 N 
ATOM     31  O   LIG    1        1.625  -1.115  -1.754  0.00  0.00    -0.327 OA
ENDROOT
BRANCH   3  32
ATOM     32  O   LIG    1        2.179   2.050  -0.399  0.00  0.00    -0.374 OA
ATOM     33  H   LIG    1        1.884   2.556   0.371  0.00  0.00    +0.211 HD
ENDBRANCH   3  32
BRANCH   3  34
ATOM     34  C   LIG    1        2.909   0.200   0.962  0.00  0.00    +0.342 C 
ATOM     35  O   LIG    1        2.525  -0.711   1.656  0.00  0.00    -0.248 OA
BRANCH  34  36
ATOM     36  O   LIG    1        4.060   0.826   1.251  0.00  0.00    -0.479 OA
ATOM     37  H   LIG    1        4.358   1.533   0.713  0.00  0.00    +0.295 HD
ENDBRANCH  34  36
ENDBRANCH   3  34
TORSDOF 3
