REMARK  Name = ZINC13545798
REMARK                            x       y       z     vdW  Elec       q    Type
REMARK                         _______ _______ _______ _____ _____    ______ ____
ROOT
ATOM      1  C   LIG    1       -0.542   1.839   3.644  0.00  0.00    +0.004 C 
ATOM      2  C   LIG    1       -0.192   3.317   3.465  0.00  0.00    +0.009 C 
ENDROOT
BRANCH   1   3
ATOM      3  C   LIG    1       -0.071   1.051   2.420  0.00  0.00    +0.088 C 
BRANCH   3   7
ATOM      4  C   LIG    1       -0.426   0.845  -2.485  0.00  0.00    +0.039 C 
ATOM      5  C   LIG    1       -0.969   1.496  -1.212  0.00  0.00    +0.130 C 
ATOM      6  C   LIG    1       -0.221   0.943   0.004  0.00  0.00    +0.115 C 
ATOM      7  N   LIG    1       -0.798   1.513   1.230  0.00  0.00    -0.297 NA
ATOM      8  C   LIG    1       -2.230   1.193   1.330  0.00  0.00    +0.115 C 
ATOM      9  C   LIG    1       -2.958   1.743   0.101  0.00  0.00    +0.130 C 
ATOM     10  C   LIG    1       -4.434   1.343   0.160  0.00  0.00    +0.039 C 
ATOM     11  O   LIG    1       -2.363   1.201  -1.082  0.00  0.00    -0.371 OA
ENDBRANCH   3   7
ENDBRANCH   1   3
BRANCH   1  12
ATOM     12  C   LIG    1        0.151   1.298   4.896  0.00  0.00    +0.039 C 
BRANCH  12  13
ATOM     13  C   LIG    1       -0.403   1.990   6.115  0.00  0.00    -0.047 A 
ATOM     14  C   LIG    1        0.186   3.152   6.578  0.00  0.00    +0.004 A 
ATOM     15  C   LIG    1       -0.325   3.789   7.693  0.00  0.00    +0.004 A 
ATOM     16  C   LIG    1       -1.419   3.259   8.352  0.00  0.00    -0.042 A 
ATOM     17  C   LIG    1       -2.004   2.094   7.892  0.00  0.00    +0.004 A 
ATOM     18  C   LIG    1       -1.496   1.460   6.774  0.00  0.00    +0.004 A 
BRANCH  16  19
ATOM     19  C   LIG    1       -1.972   3.951   9.571  0.00  0.00    -0.013 C 
ATOM     20  C   LIG    1       -3.429   4.345   9.316  0.00  0.00    +0.015 C 
ATOM     21  C   LIG    1       -1.148   5.206   9.863  0.00  0.00    +0.015 C 
ATOM     22  C   LIG    1       -1.903   3.004  10.770  0.00  0.00    +0.015 C 
ENDBRANCH  16  19
ENDBRANCH  12  13
ENDBRANCH   1  12
TORSDOF 5
