REMARK  Name = ZINC13531864
REMARK                            x       y       z     vdW  Elec       q    Type
REMARK                         _______ _______ _______ _____ _____    ______ ____
ROOT
ATOM      1  N   LIG    1       -1.281   1.684   0.124  0.00  0.00    -0.269 N 
ATOM      2  H   LIG    1       -1.259   2.638  -0.051  0.00  0.00    +0.156 HD
ATOM      3  C   LIG    1       -0.131   1.004   0.302  0.00  0.00    +0.308 C 
ATOM      4  N   LIG    1        1.045   1.663   0.324  0.00  0.00    -0.268 N 
ATOM      5  H   LIG    1        1.071   2.615   0.138  0.00  0.00    +0.156 HD
ATOM      6  O   LIG    1       -0.153  -0.204   0.437  0.00  0.00    -0.252 OA
ENDROOT
BRANCH   1   9
ATOM      7  C   LIG    1       -3.830  -0.945  -0.218  0.00  0.00    +0.003 A 
ATOM      8  C   LIG    1       -2.619  -0.284  -0.291  0.00  0.00    +0.023 A 
ATOM      9  C   LIG    1       -2.507   1.014   0.192  0.00  0.00    +0.036 A 
ATOM     10  C   LIG    1       -3.617   1.646   0.737  0.00  0.00    +0.037 A 
ATOM     11  C   LIG    1       -4.827   0.982   0.802  0.00  0.00    +0.015 A 
ATOM     12  I   LIG    1       -6.501   1.935   1.624  0.00  0.00    -0.044 I 
ATOM     13  C   LIG    1       -4.933  -0.313   0.325  0.00  0.00    +0.014 A 
ENDBRANCH   1   9
BRANCH   4  14
ATOM     14  C   LIG    1        2.222   0.978   0.614  0.00  0.00    +0.050 A 
ATOM     15  C   LIG    1        2.187  -0.165   1.400  0.00  0.00    +0.044 A 
ATOM     16  C   LIG    1        3.356  -0.846   1.682  0.00  0.00    +0.043 A 
ATOM     17 CL   LIG    1        3.304  -2.280   2.660  0.00  0.00    -0.083 Cl
ATOM     18  C   LIG    1        4.571  -0.389   1.192  0.00  0.00    +0.021 A 
ATOM     19  C   LIG    1        4.624   0.747   0.415  0.00  0.00    +0.018 A 
ATOM     20  C   LIG    1        3.449   1.444   0.117  0.00  0.00    +0.080 A 
BRANCH  20  21
ATOM     21  C   LIG    1        3.499   2.659  -0.714  0.00  0.00    +0.339 C 
ATOM     22  O   LIG    1        2.469   3.202  -1.059  0.00  0.00    -0.245 OA
BRANCH  21  23
ATOM     23  O   LIG    1        4.689   3.169  -1.091  0.00  0.00    -0.477 OA
ATOM     24  H   LIG    1        5.484   2.750  -0.824  0.00  0.00    +0.295 HD
ENDBRANCH  21  23
ENDBRANCH  20  21
ENDBRANCH   4  14
TORSDOF 4
