REMARK  Name = ZINC13118827
REMARK                            x       y       z     vdW  Elec       q    Type
REMARK                         _______ _______ _______ _____ _____    ______ ____
ROOT
ATOM      1  C   LIG    1        4.701  -7.998   3.597  0.00  0.00    +0.039 A 
ATOM      2  C   LIG    1        5.212  -7.032   4.473  0.00  0.00    +0.014 A 
ATOM      3  C   LIG    1        5.997  -7.397   5.529  0.00  0.00    +0.016 A 
ATOM      4  C   LIG    1        6.295  -8.742   5.740  0.00  0.00    +0.065 A 
ATOM      5  C   LIG    1        5.788  -9.730   4.866  0.00  0.00    +0.080 A 
ATOM      6  N   LIG    1        6.091 -11.030   5.091  0.00  0.00    -0.223 NA
ATOM      7  C   LIG    1        6.843 -11.394   6.100  0.00  0.00    +0.169 A 
ATOM      8  N   LIG    1        7.374 -10.506   6.992  0.00  0.00    -0.283 N 
ATOM      9  C   LIG    1        7.137  -9.180   6.865  0.00  0.00    +0.263 A 
ATOM     10  O   LIG    1        7.604  -8.378   7.653  0.00  0.00    -0.267 OA
ATOM     11  C   LIG    1        4.981  -9.344   3.791  0.00  0.00    +0.041 A 
ENDROOT
BRANCH   1  14
ATOM     12  N   LIG    1        3.577  -6.276   2.265  0.00  0.00    -0.311 N 
ATOM     13  H   LIG    1        3.936  -5.609   2.871  0.00  0.00    +0.149 HD
ATOM     14  C   LIG    1        3.852  -7.581   2.458  0.00  0.00    +0.244 C 
ATOM     15  O   LIG    1        3.402  -8.416   1.698  0.00  0.00    -0.270 OA
BRANCH  12  16
ATOM     16  C   LIG    1        2.736  -5.863   1.138  0.00  0.00    +0.102 C 
BRANCH  16  17
ATOM     17  C   LIG    1        2.582  -4.341   1.147  0.00  0.00    +0.000 C 
BRANCH  17  18
ATOM     18  C   LIG    1        1.704  -3.911  -0.029  0.00  0.00    -0.077 C 
BRANCH  18  23
ATOM     19  C   LIG    1       -0.019   1.526   0.010  0.00  0.00    +0.007 C 
ATOM     20  C   LIG    1        0.002  -0.004   0.002  0.00  0.00    -0.018 C 
ATOM     21  C   LIG    1        0.727  -0.499  -1.252  0.00  0.00    -0.016 C 
ATOM     22  C   LIG    1        0.814  -2.027  -1.215  0.00  0.00    -0.079 C 
ATOM     23  N   LIG    1        1.556  -2.449  -0.021  0.00  0.00    +0.380 N 
ATOM     24  H   LIG    1        2.469  -2.020  -0.024  0.00  0.00    -0.082 HD
ATOM     25  C   LIG    1        0.829  -2.040   1.187  0.00  0.00    -0.079 C 
ATOM     26  C   LIG    1        0.743  -0.513   1.242  0.00  0.00    -0.016 C 
ENDBRANCH  18  23
ENDBRANCH  17  18
ENDBRANCH  16  17
ENDBRANCH  12  16
ENDBRANCH   1  14
BRANCH   7  27
ATOM     27  S   LIG    1        7.187 -13.108   6.316  0.00  0.00    -0.105 S 
ATOM     28  H   LIG    1        6.574 -13.821   5.333  0.00  0.00    +0.110 HD
ENDBRANCH   7  27
BRANCH   8  29
ATOM     29  C   LIG    1        8.206 -10.994   8.095  0.00  0.00    +0.162 C 
BRANCH  29  30
ATOM     30  C   LIG    1        9.647 -11.033   7.657  0.00  0.00    -0.027 A 
ATOM     31  C   LIG    1       10.159 -12.172   7.066  0.00  0.00    +0.007 A 
ATOM     32  C   LIG    1       11.482 -12.209   6.665  0.00  0.00    +0.020 A 
ATOM     33  C   LIG    1       12.293 -11.104   6.855  0.00  0.00    +0.041 A 
ATOM     34 CL   LIG    1       13.954 -11.149   6.352  0.00  0.00    -0.084 Cl
ATOM     35  C   LIG    1       11.780  -9.964   7.447  0.00  0.00    +0.020 A 
ATOM     36  C   LIG    1       10.456  -9.927   7.843  0.00  0.00    +0.007 A 
ENDBRANCH  29  30
ENDBRANCH   8  29
TORSDOF 8
