REMARK  Name = ZINC13472440
REMARK                            x       y       z     vdW  Elec       q    Type
REMARK                         _______ _______ _______ _____ _____    ______ ____
ROOT
ATOM      1  CA  CYS A  1        1.229   3.158   0.156  0.00  0.00    +0.049 C 
ENDROOT
BRANCH   1   2
ATOM      2  N   CYS A  1        2.670   3.400  -0.048  0.00  0.00    +0.390 N 
ATOM      3  H1  CYS A  1        3.027   2.742  -0.751  0.00  0.00    -0.084 HD
ATOM      4  H2  CYS A  1        3.167   3.257   0.839  0.00  0.00    -0.084 HD
BRANCH   2   6
ATOM      5  C   UNK A  0        4.298   5.229  -0.098  0.00  0.00    -0.014 C 
ATOM      6  C   UNK A  0        2.896   4.781  -0.515  0.00  0.00    -0.077 C 
ATOM      7  C   UNK A  0        2.777   4.830  -2.040  0.00  0.00    -0.014 C 
ENDBRANCH   2   6
ENDBRANCH   1   2
BRANCH   1   8
ATOM      8  C   CYS A  1        0.892   1.762  -0.298  0.00  0.00    +0.291 C 
ATOM      9  O   CYS A  1        1.756   1.047  -0.747  0.00  0.00    -0.253 OA
BRANCH   8  10
ATOM     10  OXT CYS A  1       -0.369   1.311  -0.203  0.00  0.00    -0.482 OA
ATOM     11  HXT CYS A  1       -1.040   1.865   0.145  0.00  0.00    +0.295 HD
ENDBRANCH   8  10
ENDBRANCH   1   8
BRANCH   1  12
ATOM     12  CB  CYS A  1        0.894   3.307   1.642  0.00  0.00    +0.061 C 
BRANCH  12  13
ATOM     13  SG  CYS A  1        1.156   5.027   2.152  0.00  0.00    -0.179 S 
ATOM     14  HG  CYS A  1        0.834   5.032   3.458  0.00  0.00    +0.102 HD
ENDBRANCH  12  13
ENDBRANCH   1  12
TORSDOF 6
