REMARK  Name = ZINC13473901
REMARK                            x       y       z     vdW  Elec       q    Type
REMARK                         _______ _______ _______ _____ _____    ______ ____
ROOT
ATOM      1  C   LIG    1        4.181  -0.594   1.190  0.00  0.00    +0.016 C 
ENDROOT
BRANCH   1   2
ATOM      2  C   LIG    1        3.556   0.664   0.643  0.00  0.00    +0.202 C 
ATOM      3  N   LIG    1        2.217   0.751   0.515  0.00  0.00    -0.287 N 
ATOM      4  C   LIG    1        1.250  -0.303   0.870  0.00  0.00    +0.109 C 
ATOM      5  C   LIG    1        0.002  -0.004   0.002  0.00  0.00    +0.022 C 
ATOM      6  C   LIG    1       -0.019   1.547   0.011  0.00  0.00    +0.039 C 
ATOM      7  C   LIG    1        1.480   1.913  -0.002  0.00  0.00    +0.179 C 
ATOM      8  O   LIG    1        4.259   1.598   0.318  0.00  0.00    -0.277 OA
BRANCH   7   9
ATOM      9  C   LIG    1        1.717   3.082   0.862  0.00  0.00    +0.085 C 
ATOM     10  N   LIG    1        1.900   3.983   1.528  0.00  0.00    -0.195 NA
ENDBRANCH   7   9
ENDBRANCH   1   2
BRANCH   1  14
ATOM     11  C   LIG    1        5.332  -0.652   5.362  0.00  0.00    +0.000 C 
ATOM     12  C   LIG    1        4.599  -1.872   4.798  0.00  0.00    +0.000 C 
ATOM     13  C   LIG    1        4.707  -1.871   3.272  0.00  0.00    +0.002 C 
ATOM     14  C   LIG    1        4.073  -0.594   2.716  0.00  0.00    -0.017 C 
ATOM     15  C   LIG    1        4.806   0.625   3.280  0.00  0.00    +0.002 C 
ATOM     16  C   LIG    1        4.698   0.625   4.806  0.00  0.00    +0.000 C 
ENDBRANCH   1  14
BRANCH   1  17
ATOM     17  N   LIG    1        5.593  -0.647   0.774  0.00  0.00    +0.386 N 
ATOM     18  H   LIG    1        5.644  -0.613  -0.251  0.00  0.00    -0.089 HD
ATOM     19  H   LIG    1        6.020  -1.513   1.099  0.00  0.00    -0.089 HD
ATOM     20  H   LIG    1        6.101   0.147   1.159  0.00  0.00    -0.089 HD
ENDBRANCH   1  17
TORSDOF 4
