REMARK  Name = ZINC13445493
REMARK                            x       y       z     vdW  Elec       q    Type
REMARK                         _______ _______ _______ _____ _____    ______ ____
ROOT
ATOM      1  CA  GLU A  2       -1.330   1.944   0.019  0.00  0.00    +0.160 C 
ENDROOT
BRANCH   1   2
ATOM      2  C   GLU A  2       -0.014   1.209   0.009  0.00  0.00    +0.237 C 
ATOM      3  N   PRO A  3        1.143   1.898   0.001  0.00  0.00    -0.288 N 
ATOM      4  CD  PRO A  3        1.269   3.367   0.009  0.00  0.00    +0.109 C 
ATOM      5  CG  PRO A  3        2.659   3.650  -0.615  0.00  0.00    +0.021 C 
ATOM      6  CB  PRO A  3        3.500   2.478  -0.044  0.00  0.00    +0.033 C 
ATOM      7  CA  PRO A  3        2.491   1.310  -0.009  0.00  0.00    +0.162 C 
ATOM      8  O   GLU A  2        0.002  -0.004   0.002  0.00  0.00    -0.274 OA
BRANCH   7   9
ATOM      9  C   PRO A  3        2.700   0.486   1.236  0.00  0.00    +0.234 C 
ATOM     10  N   ASP A  4        3.873  -0.148   1.435  0.00  0.00    -0.304 N 
ATOM     11  H   ASP A  4        4.582  -0.074   0.777  0.00  0.00    +0.149 HD
ATOM     12  O   PRO A  3        1.813   0.394   2.058  0.00  0.00    -0.274 OA
BRANCH  10  13
ATOM     13  CA  ASP A  4        4.076  -0.949   2.644  0.00  0.00    +0.146 C 
BRANCH  13  14
ATOM     14  C   ASP A  4        4.534  -0.055   3.768  0.00  0.00    +0.246 C 
ATOM     15  O   ASP A  4        4.675   1.129   3.578  0.00  0.00    -0.299 OA
ENDBRANCH  13  14
BRANCH  13  16
ATOM     16  CB  ASP A  4        5.138  -2.016   2.377  0.00  0.00    +0.150 C 
BRANCH  16  17
ATOM     17  CG  ASP A  4        4.629  -2.983   1.339  0.00  0.00    +0.307 C 
ATOM     18  OD1 ASP A  4        3.529  -2.834   0.863  0.00  0.00    -0.251 OA
BRANCH  17  19
ATOM     19  OD2 ASP A  4        5.398  -4.010   0.944  0.00  0.00    -0.481 OA
ATOM     20  HD2 ASP A  4        6.251  -4.126   1.314  0.00  0.00    +0.295 HD
ENDBRANCH  17  19
ENDBRANCH  16  17
ENDBRANCH  13  16
ENDBRANCH  10  13
ENDBRANCH   7   9
ENDBRANCH   1   2
BRANCH   1  22
ATOM     21  C   ILE A  1       -3.637   1.330  -0.467  0.00  0.00    +0.234 C 
ATOM     22  N   GLU A  2       -2.430   0.977   0.019  0.00  0.00    -0.302 N 
ATOM     23  H   GLU A  2       -2.290   0.083   0.368  0.00  0.00    +0.150 HD
ATOM     24  O   ILE A  1       -3.812   2.447  -0.904  0.00  0.00    -0.274 OA
BRANCH  21  25
ATOM     25  CA  ILE A  1       -4.769   0.335  -0.467  0.00  0.00    +0.162 C 
BRANCH  25  26
ATOM     26  N   ILE A  1       -6.045   1.047  -0.577  0.00  0.00    -0.304 N 
ATOM     27  H   ILE A  1       -6.711   0.960   0.122  0.00  0.00    +0.149 HD
ATOM     28  C   UNK A  0       -6.293   1.823  -1.651  0.00  0.00    +0.211 C 
ATOM     29  C   UNK A  0       -7.605   2.555  -1.765  0.00  0.00    +0.109 C 
ATOM     30  O   UNK A  0       -5.460   1.931  -2.526  0.00  0.00    -0.276 OA
ENDBRANCH  25  26
BRANCH  25  31
ATOM     31  CB  ILE A  1       -4.612  -0.617  -1.654  0.00  0.00    +0.015 C 
ATOM     32  CG2 ILE A  1       -3.279  -1.360  -1.539  0.00  0.00    +0.010 C 
BRANCH  31  34
ATOM     33  CD1 ILE A  1       -5.674  -2.498  -2.909  0.00  0.00    +0.004 C 
ATOM     34  CG1 ILE A  1       -5.761  -1.627  -1.654  0.00  0.00    +0.002 C 
ENDBRANCH  31  34
ENDBRANCH  25  31
ENDBRANCH  21  25
ENDBRANCH   1  22
BRANCH   1  35
ATOM     35  CB  GLU A  2       -1.417   2.816   1.273  0.00  0.00    +0.043 C 
BRANCH  35  36
ATOM     36  CG  GLU A  2       -2.694   3.656   1.223  0.00  0.00    +0.123 C 
BRANCH  36  37
ATOM     37  CD  GLU A  2       -2.780   4.515   2.458  0.00  0.00    +0.305 C 
ATOM     38  OE1 GLU A  2       -1.909   4.460   3.294  0.00  0.00    -0.251 OA
BRANCH  37  39
ATOM     39  OE2 GLU A  2       -3.824   5.341   2.631  0.00  0.00    -0.481 OA
ATOM     40  HE2 GLU A  2       -4.500   5.383   1.983  0.00  0.00    +0.295 HD
ENDBRANCH  37  39
ENDBRANCH  36  37
ENDBRANCH  35  36
ENDBRANCH   1  35
TORSDOF 16
