REMARK  Name = ZINC13553172
REMARK                            x       y       z     vdW  Elec       q    Type
REMARK                         _______ _______ _______ _____ _____    ______ ____
ROOT
ATOM      1  C   LIG    1       -0.070   5.347   0.031  0.00  0.00    +0.088 C 
ATOM      2  C   LIG    1       -0.087   5.867  -1.410  0.00  0.00    +0.021 C 
ATOM      3  C   LIG    1       -0.045   7.396  -1.395  0.00  0.00    -0.075 C 
ATOM      4  N   LIG    1        1.194   7.837  -0.720  0.00  0.00    +0.383 N 
ATOM      5  H   LIG    1        2.001   7.413  -1.193  0.00  0.00    -0.081 HD
ATOM      6  C   LIG    1        1.184   7.401   0.693  0.00  0.00    -0.075 C 
ATOM      7  C   LIG    1        1.180   5.872   0.741  0.00  0.00    +0.021 C 
ENDROOT
BRANCH   1  10
ATOM      8  C   LIG    1        1.175   1.783   0.000  0.00  0.00    +0.001 A 
ATOM      9  C   LIG    1        1.156   3.166   0.008  0.00  0.00    +0.006 A 
ATOM     10  C   LIG    1       -0.050   3.840   0.022  0.00  0.00    -0.016 A 
ATOM     11  C   LIG    1       -1.238   3.133   0.029  0.00  0.00    +0.018 A 
ATOM     12  C   LIG    1       -1.219   1.751   0.017  0.00  0.00    +0.055 A 
ATOM     13  C   LIG    1       -0.013   1.076   0.008  0.00  0.00    +0.012 A 
BRANCH  12  14
ATOM     14  C   LIG    1       -2.514   0.980   0.019  0.00  0.00    +0.417 C 
ATOM     15  F   LIG    1       -3.257   1.314  -1.118  0.00  0.00    -0.166 F 
ATOM     16  F   LIG    1       -3.247   1.301   1.167  0.00  0.00    -0.166 F 
ATOM     17  F   LIG    1       -2.240  -0.392   0.010  0.00  0.00    -0.166 F 
ENDBRANCH  12  14
ENDBRANCH   1  10
BRANCH   1  18
ATOM     18  O   LIG    1       -1.237   5.805   0.717  0.00  0.00    -0.384 OA
ATOM     19  H   LIG    1       -2.068   5.511   0.319  0.00  0.00    +0.211 HD
ENDBRANCH   1  18
BRANCH   4  20
ATOM     20  C   LIG    1        1.313   9.308  -0.793  0.00  0.00    -0.043 C 
BRANCH  20  21
ATOM     21  C   LIG    1        1.541   9.705  -2.229  0.00  0.00    -0.064 A 
ATOM     22  C   LIG    1        2.828   9.786  -2.727  0.00  0.00    +0.004 A 
ATOM     23  C   LIG    1        3.038  10.145  -4.045  0.00  0.00    +0.038 A 
ATOM     24  C   LIG    1        1.959  10.434  -4.864  0.00  0.00    +0.123 A 
ATOM     25  F   LIG    1        2.163  10.790  -6.151  0.00  0.00    -0.205 F 
ATOM     26  C   LIG    1        0.671  10.358  -4.362  0.00  0.00    +0.038 A 
ATOM     27  C   LIG    1        0.463   9.993  -3.045  0.00  0.00    +0.004 A 
ENDBRANCH  20  21
ENDBRANCH   4  20
TORSDOF 5
