REMARK  Name = ZINC13472190
REMARK                            x       y       z     vdW  Elec       q    Type
REMARK                         _______ _______ _______ _____ _____    ______ ____
ROOT
ATOM      1  C   LIG    1       -1.940   0.790  -1.589  0.00  0.00    +0.074 C 
ATOM      2  C   LIG    1       -0.692   1.560  -1.248  0.00  0.00    +0.033 C 
ATOM      3  C   LIG    1       -0.013   1.086   0.008  0.00  0.00    +0.105 C 
ATOM      4  N   LIG    1       -0.639   1.526   1.225  0.00  0.00    -0.310 N 
ATOM      5  H   LIG    1       -0.033   1.759   1.946  0.00  0.00    +0.149 HD
ATOM      6  C   LIG    1       -1.913   1.657   1.504  0.00  0.00    +0.261 C 
ATOM      7  C   LIG    1       -3.060   1.476   0.632  0.00  0.00    +0.108 A 
ATOM      8  N   LIG    1       -4.373   1.665   1.037  0.00  0.00    -0.344 N 
ATOM      9  H   LIG    1       -4.658   1.912   1.930  0.00  0.00    +0.167 HD
ATOM     10  C   LIG    1       -5.193   1.447  -0.018  0.00  0.00    +0.098 A 
ATOM     11 BR   LIG    1       -7.079   1.589   0.005  0.00  0.00    -0.030 Br
ATOM     12  C   LIG    1       -4.441   1.111  -1.092  0.00  0.00    +0.054 A 
ATOM     13 BR   LIG    1       -5.089   0.703  -2.821  0.00  0.00    -0.047 Br
ATOM     14  O   LIG    1       -2.170   1.975   2.650  0.00  0.00    -0.269 OA
ATOM     15  C   LIG    1       -3.095   1.119  -0.696  0.00  0.00    +0.006 A 
ENDROOT
BRANCH   1  17
ATOM     16  C   LIG    1       -2.184   2.278  -3.642  0.00  0.00    +0.109 A 
ATOM     17  C   LIG    1       -2.326   1.099  -3.013  0.00  0.00    +0.068 A 
ATOM     18  N   LIG    1       -2.895   0.229  -3.915  0.00  0.00    -0.219 NA
ATOM     19  C   LIG    1       -3.076   0.918  -5.074  0.00  0.00    +0.191 A 
ATOM     20  N   LIG    1       -2.642   2.144  -4.899  0.00  0.00    -0.333 N 
ATOM     21  H   LIG    1       -2.651   2.865  -5.591  0.00  0.00    +0.168 HD
BRANCH  19  22
ATOM     22  N   LIG    1       -3.624   0.411  -6.240  0.00  0.00    -0.329 N 
ATOM     23  H   LIG    1       -3.713   0.980  -7.021  0.00  0.00    +0.145 HD
ATOM     24  H   LIG    1       -3.918  -0.512  -6.277  0.00  0.00    +0.145 HD
ENDBRANCH  19  22
ENDBRANCH   1  17
TORSDOF 2
