REMARK  Name = ZINC13543704
REMARK                            x       y       z     vdW  Elec       q    Type
REMARK                         _______ _______ _______ _____ _____    ______ ____
ROOT
ATOM      1  C   LIG    1       -1.264  -0.761   0.011  0.00  0.00    +0.139 A 
ATOM      2  C   LIG    1       -1.213  -2.120   0.008  0.00  0.00    +0.098 A 
ATOM      3  C   LIG    1       -2.418  -2.863   0.017  0.00  0.00    +0.197 A 
ATOM      4  C   LIG    1       -3.681  -2.106   0.028  0.00  0.00    +0.105 A 
ATOM      5  C   LIG    1       -4.920  -2.759   0.037  0.00  0.00    +0.135 A 
ATOM      6  C   LIG    1       -6.083  -2.012   0.048  0.00  0.00    +0.092 A 
ATOM      7  C   LIG    1       -6.021  -0.623   0.049  0.00  0.00    +0.131 A 
ATOM      8  C   LIG    1       -4.798   0.030   0.040  0.00  0.00    +0.093 A 
ATOM      9  C   LIG    1       -3.621  -0.702   0.029  0.00  0.00    +0.146 A 
ATOM     10  O   LIG    1       -2.410  -4.084   0.016  0.00  0.00    -0.287 OA
ATOM     11  O   LIG    1       -2.422  -0.082   0.026  0.00  0.00    -0.454 OA
ENDROOT
BRANCH   1  17
ATOM     12  C   LIG    1       -0.017   1.393   0.010  0.00  0.00    +0.015 A 
ATOM     13  C   LIG    1        1.168   2.096   0.002  0.00  0.00    +0.046 A 
ATOM     14  C   LIG    1        2.380   1.418  -0.013  0.00  0.00    +0.117 A 
ATOM     15  C   LIG    1        2.404   0.028  -0.021  0.00  0.00    +0.046 A 
ATOM     16  C   LIG    1        1.224  -0.682  -0.013  0.00  0.00    +0.015 A 
ATOM     17  C   LIG    1        0.002  -0.004   0.002  0.00  0.00    +0.018 A 
BRANCH  14  18
ATOM     18  O   LIG    1        3.546   2.115  -0.022  0.00  0.00    -0.507 OA
ATOM     19  H   LIG    1        3.892   2.312   0.859  0.00  0.00    +0.292 HD
ENDBRANCH  14  18
ENDBRANCH   1  17
BRANCH   5  20
ATOM     20  O   LIG    1       -4.978  -4.115   0.036  0.00  0.00    -0.506 OA
ATOM     21  H   LIG    1       -4.987  -4.509   0.918  0.00  0.00    +0.292 HD
ENDBRANCH   5  20
BRANCH   7  22
ATOM     22  O   LIG    1       -7.170   0.101   0.059  0.00  0.00    -0.461 OA
BRANCH  22  23
ATOM     23  C   LIG    1       -8.397  -0.630   0.068  0.00  0.00    +0.340 C 
ATOM     24  C   LIG    1       -9.570   0.344   0.204  0.00  0.00    +0.214 C 
ATOM     25  C   LIG    1      -10.885  -0.441   0.152  0.00  0.00    +0.180 C 
ATOM     26  C   LIG    1      -10.939  -1.238  -1.155  0.00  0.00    +0.185 C 
ATOM     27  C   LIG    1       -9.713  -2.151  -1.238  0.00  0.00    +0.261 C 
ATOM     28  O   LIG    1       -8.525  -1.361  -1.153  0.00  0.00    -0.322 OA
BRANCH  24  29
ATOM     29  O   LIG    1       -9.475   1.036   1.451  0.00  0.00    -0.383 OA
ATOM     30  H   LIG    1       -8.663   1.552   1.553  0.00  0.00    +0.210 HD
ENDBRANCH  24  29
BRANCH  25  31
ATOM     31  O   LIG    1      -11.987   0.467   0.206  0.00  0.00    -0.386 OA
ATOM     32  H   LIG    1      -12.852   0.037   0.178  0.00  0.00    +0.210 HD
ENDBRANCH  25  31
BRANCH  26  33
ATOM     33  O   LIG    1      -12.128  -2.030  -1.182  0.00  0.00    -0.386 OA
ATOM     34  H   LIG    1      -12.228  -2.562  -1.983  0.00  0.00    +0.210 HD
ENDBRANCH  26  33
BRANCH  27  35
ATOM     35  C   LIG    1       -9.729  -2.895  -2.549  0.00  0.00    +0.337 C 
ATOM     36  O   LIG    1       -8.855  -2.693  -3.375  0.00  0.00    -0.248 OA
BRANCH  35  37
ATOM     37  O   LIG    1      -10.615  -3.700  -2.782  0.00  0.00    -0.479 OA
ATOM     38  H   LIG    1      -11.286  -3.855  -2.147  0.00  0.00    +0.295 HD
ENDBRANCH  35  37
ENDBRANCH  27  35
ENDBRANCH  22  23
ENDBRANCH   7  22
TORSDOF 10
