REMARK  Name = ZINC13489845
REMARK                            x       y       z     vdW  Elec       q    Type
REMARK                         _______ _______ _______ _____ _____    ______ ____
ROOT
ATOM      1  C   LIG    1       -0.043   1.348   0.014  0.00  0.00    +0.000 A 
ATOM      2  C   LIG    1        1.142   2.061   0.019  0.00  0.00    +0.000 A 
ATOM      3  C   LIG    1        2.345   1.388   0.001  0.00  0.00    +0.005 A 
ATOM      4  C   LIG    1        2.377   0.000  -0.019  0.00  0.00    -0.030 A 
ATOM      5  C   LIG    1        1.198  -0.712  -0.015  0.00  0.00    -0.042 A 
ATOM      6  C   LIG    1        1.153  -2.217  -0.005  0.00  0.00    +0.051 C 
ATOM      7  C   LIG    1        2.475  -2.804  -0.497  0.00  0.00    +0.089 C 
ATOM      8  N   LIG    1        3.568  -2.109   0.202  0.00  0.00    -0.295 NA
ATOM      9  C   LIG    1        3.726  -0.673  -0.054  0.00  0.00    +0.120 C 
ATOM     10  C   LIG    1       -0.013  -0.031  -0.004  0.00  0.00    +0.004 A 
ENDROOT
BRANCH   8  11
ATOM     11  C   LIG    1        4.418  -2.786   1.072  0.00  0.00    +0.061 C 
ATOM     12  C   LIG    1        4.190  -4.126   1.396  0.00  0.00    +0.034 C 
ATOM     13  C   LIG    1        5.052  -4.765   2.260  0.00  0.00    +0.084 C 
ATOM     14  N   LIG    1        6.085  -4.128   2.783  0.00  0.00    -0.301 NA
ATOM     15  H   LIG    1        6.675  -4.604   3.388  0.00  0.00    +0.123 HD
ATOM     16  C   LIG    1        6.337  -2.858   2.503  0.00  0.00    +0.120 C 
ATOM     17  C   LIG    1        5.518  -2.148   1.636  0.00  0.00    +0.053 C 
BRANCH  16  18
ATOM     18  N   LIG    1        7.436  -2.231   3.079  0.00  0.00    -0.315 NA
ATOM     19  H   LIG    1        7.625  -1.302   2.878  0.00  0.00    +0.120 HD
ATOM     20  H   LIG    1        8.014  -2.724   3.683  0.00  0.00    +0.120 HD
ENDBRANCH  16  18
ENDBRANCH   8  11
TORSDOF 2
