REMARK  Name = ZINC13285379
REMARK                            x       y       z     vdW  Elec       q    Type
REMARK                         _______ _______ _______ _____ _____    ______ ____
ROOT
ATOM      1  C   LIG    1       -0.169   1.500   0.013  0.00  0.00    +0.044 C 
ATOM      2  C   LIG    1       -0.132  -0.007   0.005  0.00  0.00    -0.048 A 
ATOM      3  C   LIG    1       -0.157  -0.690  -1.202  0.00  0.00    +0.005 A 
ATOM      4  C   LIG    1       -0.124  -2.065  -1.226  0.00  0.00    +0.030 A 
ATOM      5  C   LIG    1       -0.065  -2.783  -0.025  0.00  0.00    +0.090 A 
ATOM      6  C   LIG    1       -0.040  -2.086   1.194  0.00  0.00    +0.074 A 
ATOM      7  N   LIG    1        0.018  -2.788   2.388  0.00  0.00    -0.292 N 
ATOM      8  C   LIG    1        0.054  -2.413   3.696  0.00  0.00    +0.041 A 
ATOM      9  C   LIG    1        0.038  -1.002   4.224  0.00  0.00    +0.065 C 
ATOM     10  C   LIG    1        0.107  -3.549   4.433  0.00  0.00    +0.134 A 
ATOM     11  N   LIG    1        0.104  -4.593   3.603  0.00  0.00    -0.233 NA
ATOM     12  C   LIG    1        0.051  -4.158   2.359  0.00  0.00    +0.179 A 
ATOM     13  C   LIG    1        0.023  -4.841   1.061  0.00  0.00    +0.163 A 
ATOM     14  N   LIG    1       -0.033  -4.140  -0.048  0.00  0.00    -0.227 NA
ATOM     15  C   LIG    1       -0.069  -0.697   1.196  0.00  0.00    +0.031 A 
ENDROOT
BRANCH  13  16
ATOM     16  N   LIG    1        0.055  -6.222   1.006  0.00  0.00    -0.328 N 
ATOM     17  H   LIG    1        0.096  -6.739   1.825  0.00  0.00    +0.147 HD
BRANCH  16  18
ATOM     18  C   LIG    1        0.028  -6.904  -0.290  0.00  0.00    +0.083 C 
BRANCH  18  19
ATOM     19  C   LIG    1        0.072  -8.417  -0.071  0.00  0.00    -0.068 C 
BRANCH  19  20
ATOM     20  N   LIG    1        0.045  -9.101  -1.371  0.00  0.00    +0.379 N 
ATOM     21  H   LIG    1        0.074 -10.099  -1.227  0.00  0.00    -0.090 HD
ATOM     22  H   LIG    1        0.843  -8.816  -1.918  0.00  0.00    -0.090 HD
ATOM     23  H   LIG    1       -0.803  -8.857  -1.861  0.00  0.00    -0.090 HD
ENDBRANCH  19  20
ENDBRANCH  18  19
ENDBRANCH  16  18
ENDBRANCH  13  16
TORSDOF 4
