REMARK  Name = ZINC13125763
REMARK                            x       y       z     vdW  Elec       q    Type
REMARK                         _______ _______ _______ _____ _____    ______ ____
ROOT
ATOM      1  C   LIG    1        2.984  -4.020  -0.049  0.00  0.00    +0.049 A 
ATOM      2  C   LIG    1        1.989  -5.000  -0.050  0.00  0.00    +0.018 A 
ATOM      3  C   LIG    1        2.336  -6.333  -0.060  0.00  0.00    +0.046 A 
ATOM      4  C   LIG    1        3.675  -6.707  -0.070  0.00  0.00    +0.120 A 
ATOM      5  C   LIG    1        4.670  -5.741  -0.069  0.00  0.00    +0.091 A 
ATOM      6  C   LIG    1        4.333  -4.399  -0.064  0.00  0.00    +0.130 A 
ENDROOT
BRANCH   1  13
ATOM      7  C   LIG    1       -0.016   1.356   0.009  0.00  0.00    +0.002 A 
ATOM      8  C   LIG    1        1.155   2.100   0.002  0.00  0.00    +0.001 A 
ATOM      9  C   LIG    1        2.373   1.447  -0.013  0.00  0.00    +0.017 A 
ATOM     10  C   LIG    1        2.403   0.074  -0.021  0.00  0.00    +0.040 A 
ATOM     11  C   LIG    1        1.227  -0.713  -0.013  0.00  0.00    +0.079 A 
ATOM     12  N   LIG    1        1.417  -2.047  -0.023  0.00  0.00    -0.239 NA
ATOM     13  C   LIG    1        2.615  -2.591  -0.038  0.00  0.00    +0.113 A 
ATOM     14  S   LIG    1        3.683  -1.157  -0.040  0.00  0.00    -0.067 S 
ATOM     15  C   LIG    1        0.002  -0.004   0.002  0.00  0.00    +0.029 A 
ENDBRANCH   1  13
BRANCH   4  16
ATOM     16  O   LIG    1        4.010  -8.023  -0.080  0.00  0.00    -0.507 OA
ATOM     17  H   LIG    1        4.102  -8.399  -0.966  0.00  0.00    +0.292 HD
ENDBRANCH   4  16
BRANCH   6  18
ATOM     18  O   LIG    1        5.306  -3.451  -0.069  0.00  0.00    -0.506 OA
ATOM     19  H   LIG    1        5.596  -3.182   0.813  0.00  0.00    +0.292 HD
ENDBRANCH   6  18
TORSDOF 3
