REMARK  Name = ZINC13472715
REMARK                            x       y       z     vdW  Elec       q    Type
REMARK                         _______ _______ _______ _____ _____    ______ ____
ROOT
ATOM      1  C   LIG    1       -2.140   1.036   1.486  0.00  0.00    +0.056 A 
ATOM      2  C   LIG    1       -2.297  -0.241   2.019  0.00  0.00    +0.043 A 
ATOM      3  C   LIG    1       -3.556  -0.860   1.905  0.00  0.00    +0.129 A 
ATOM      4  N   LIG    1       -4.539  -0.206   1.298  0.00  0.00    -0.199 NA
ATOM      5  C   LIG    1       -4.343   1.008   0.806  0.00  0.00    +0.214 A 
ATOM      6  N   LIG    1       -3.172   1.622   0.900  0.00  0.00    -0.219 NA
ENDROOT
BRANCH   2   7
ATOM      7  C   LIG    1       -1.168  -0.931   2.688  0.00  0.00    -0.013 A 
ATOM      8  C   LIG    1       -0.069  -1.355   1.942  0.00  0.00    +0.012 A 
ATOM      9  C   LIG    1        0.983  -1.992   2.568  0.00  0.00    +0.046 A 
ATOM     10  C   LIG    1        0.943  -2.220   3.937  0.00  0.00    +0.120 A 
ATOM     11  C   LIG    1       -0.153  -1.803   4.681  0.00  0.00    +0.046 A 
ATOM     12  C   LIG    1       -1.205  -1.161   4.062  0.00  0.00    +0.012 A 
BRANCH  10  13
ATOM     13  O   LIG    1        1.978  -2.852   4.550  0.00  0.00    -0.495 OA
ATOM     14  C   LIG    1        3.073  -3.254   3.725  0.00  0.00    +0.277 C 
ENDBRANCH  10  13
ENDBRANCH   2   7
BRANCH   3  15
ATOM     15  N   LIG    1       -3.765  -2.128   2.418  0.00  0.00    -0.343 N 
ATOM     16  H   LIG    1       -4.636  -2.547   2.335  0.00  0.00    +0.144 HD
ATOM     17  H   LIG    1       -3.041  -2.598   2.860  0.00  0.00    +0.144 HD
ENDBRANCH   3  15
BRANCH   5  18
ATOM     18  N   LIG    1       -5.393   1.657   0.181  0.00  0.00    -0.327 N 
ATOM     19  H   LIG    1       -5.265   2.547  -0.184  0.00  0.00    +0.145 HD
ATOM     20  H   LIG    1       -6.257   1.223   0.108  0.00  0.00    +0.145 HD
ENDBRANCH   5  18
BRANCH   1  22
ATOM     21  C   LIG    1       -0.747   2.530   2.893  0.00  0.00    +0.010 C 
ATOM     22  C   LIG    1       -0.813   1.745   1.581  0.00  0.00    +0.053 C 
ENDBRANCH   1  22
TORSDOF 5
