REMARK  Name = ZINC13310235
REMARK                            x       y       z     vdW  Elec       q    Type
REMARK                         _______ _______ _______ _____ _____    ______ ____
ROOT
ATOM      1  C   LIG    1       -0.017   1.397   0.010  0.00  0.00    +0.031 A 
ATOM      2  C   LIG    1        1.272   1.816  -0.000  0.00  0.00    +0.084 A 
ATOM      3  N   LIG    1        2.099   0.734  -0.004  0.00  0.00    -0.357 N 
ATOM      4  C   LIG    1        1.351  -0.388   0.029  0.00  0.00    +0.112 A 
ATOM      5  C   LIG    1        1.732  -1.810   0.128  0.00  0.00    +0.261 C 
ATOM      6  O   LIG    1        2.625  -2.174   0.869  0.00  0.00    -0.269 OA
ATOM      7  N   LIG    1        1.049  -2.697  -0.641  0.00  0.00    -0.310 N 
ATOM      8  H   LIG    1        1.106  -3.645  -0.446  0.00  0.00    +0.149 HD
ATOM      9  C   LIG    1        0.231  -2.241  -1.755  0.00  0.00    +0.112 C 
ATOM     10  C   LIG    1       -1.180  -1.819  -1.337  0.00  0.00    +0.098 C 
ATOM     11  C   LIG    1       -1.097  -0.976  -0.079  0.00  0.00    +0.167 C 
ATOM     12  O   LIG    1       -1.902  -1.099   0.820  0.00  0.00    -0.292 OA
ATOM     13  H   LIG    1        3.068   0.765  -0.027  0.00  0.00    +0.165 HD
ATOM     14  C   LIG    1        0.002  -0.004   0.002  0.00  0.00    +0.047 A 
ENDROOT
TORSDOF 0
