REMARK  Name = ZINC13491993
REMARK                            x       y       z     vdW  Elec       q    Type
REMARK                         _______ _______ _______ _____ _____    ______ ____
ROOT
ATOM      1  C   LIG    1        7.072   6.989  -0.026  0.00  0.00    +0.067 C 
ATOM      2  C   LIG    1        6.367   5.658  -0.027  0.00  0.00    +0.059 A 
ATOM      3  C   LIG    1        6.966   4.450  -0.038  0.00  0.00    +0.120 A 
ATOM      4  N   LIG    1        5.971   3.507  -0.034  0.00  0.00    -0.256 N 
ATOM      5  C   LIG    1        5.969   2.139  -0.042  0.00  0.00    +0.202 A 
ATOM      6  N   LIG    1        4.818   1.493  -0.029  0.00  0.00    -0.196 NA
ATOM      7  C   LIG    1        3.659   2.162  -0.021  0.00  0.00    +0.167 A 
ATOM      8  N   LIG    1        3.630   3.484  -0.014  0.00  0.00    -0.192 NA
ATOM      9  C   LIG    1        4.775   4.183  -0.020  0.00  0.00    +0.239 A 
ATOM     10  N   LIG    1        5.040   5.478  -0.016  0.00  0.00    -0.216 NA
ENDROOT
BRANCH   7  11
ATOM     11  C   LIG    1        2.384   1.407  -0.013  0.00  0.00    +0.019 A 
ATOM     12  C   LIG    1        1.167   2.088   0.002  0.00  0.00    +0.011 A 
ATOM     13  C   LIG    1       -0.017   1.379   0.010  0.00  0.00    +0.001 A 
ATOM     14  C   LIG    1        0.002  -0.004   0.002  0.00  0.00    +0.000 A 
ATOM     15  C   LIG    1        1.206  -0.685  -0.013  0.00  0.00    +0.001 A 
ATOM     16  C   LIG    1        2.397   0.013  -0.020  0.00  0.00    +0.011 A 
ENDBRANCH   7  11
BRANCH   5  17
ATOM     17  N   LIG    1        7.150   1.446  -0.055  0.00  0.00    -0.328 N 
ATOM     18  H   LIG    1        7.143   0.476  -0.060  0.00  0.00    +0.145 HD
ATOM     19  H   LIG    1        7.994   1.925  -0.059  0.00  0.00    +0.145 HD
ENDBRANCH   5  17
TORSDOF 2
