REMARK  Name = ZINC13491910
REMARK                            x       y       z     vdW  Elec       q    Type
REMARK                         _______ _______ _______ _____ _____    ______ ____
ROOT
ATOM      1  N   LIG    1        3.388   4.420  -0.362  0.00  0.00    +0.383 N 
ATOM      2  H   LIG    1        3.235   5.232   0.248  0.00  0.00    -0.081 HD
ATOM      3  C   LIG    1        2.157   4.169  -1.142  0.00  0.00    -0.075 C 
ATOM      4  C   LIG    1        0.983   3.996  -0.174  0.00  0.00    +0.021 C 
ATOM      5  C   LIG    1        1.267   2.818   0.757  0.00  0.00    +0.093 C 
ATOM      6  C   LIG    1        0.137   2.645   1.740  0.00  0.00    -0.009 A 
ATOM      7  C   LIG    1       -0.207   3.305   2.902  0.00  0.00    +0.007 A 
ATOM      8  C   LIG    1       -1.327   2.915   3.612  0.00  0.00    +0.000 A 
ATOM      9  C   LIG    1       -2.103   1.864   3.159  0.00  0.00    +0.000 A 
ATOM     10  C   LIG    1       -1.760   1.202   1.995  0.00  0.00    +0.007 A 
ATOM     11  C   LIG    1       -0.642   1.591   1.286  0.00  0.00    +0.001 A 
ATOM     12  C   LIG    1       -0.013   1.086   0.008  0.00  0.00    +0.251 C 
ATOM     13  O   LIG    1        1.332   1.600  -0.002  0.00  0.00    -0.347 OA
ATOM     14  C   LIG    1        2.584   3.042   1.497  0.00  0.00    +0.021 C 
ATOM     15  C   LIG    1        3.708   3.245   0.476  0.00  0.00    -0.075 C 
ENDROOT
BRANCH  12  16
ATOM     16  C   LIG    1       -0.757   1.589  -1.158  0.00  0.00    +0.099 C 
ATOM     17  N   LIG    1       -1.331   1.977  -2.058  0.00  0.00    -0.193 NA
ENDBRANCH  12  16
BRANCH   1  18
ATOM     18  C   LIG    1        4.513   4.710  -1.275  0.00  0.00    -0.043 C 
BRANCH  18  22
ATOM     19  C   LIG    1        3.785   8.449  -3.208  0.00  0.00    +0.000 A 
ATOM     20  C   LIG    1        4.456   8.415  -2.001  0.00  0.00    +0.000 A 
ATOM     21  C   LIG    1        4.692   7.205  -1.375  0.00  0.00    +0.002 A 
ATOM     22  C   LIG    1        4.256   6.029  -1.957  0.00  0.00    -0.064 A 
ATOM     23  C   LIG    1        3.589   6.063  -3.167  0.00  0.00    +0.002 A 
ATOM     24  C   LIG    1        3.349   7.273  -3.791  0.00  0.00    +0.000 A 
ENDBRANCH  18  22
ENDBRANCH   1  18
TORSDOF 3
