REMARK  Name = ZINC13473627
REMARK                            x       y       z     vdW  Elec       q    Type
REMARK                         _______ _______ _______ _____ _____    ______ ____
ROOT
ATOM      1  C   LIG    1       -0.013   1.086   0.008  0.00  0.00    +0.155 C 
ATOM      2  N   LIG    1       -0.721   1.571  -1.179  0.00  0.00    -0.280 N 
ATOM      3  C   LIG    1       -0.041   1.816  -2.314  0.00  0.00    +0.333 A 
ATOM      4  O   LIG    1        1.160   1.629  -2.337  0.00  0.00    -0.246 OA
ATOM      5  N   LIG    1       -0.657   2.256  -3.425  0.00  0.00    -0.262 N 
ATOM      6  C   LIG    1        0.129   2.501  -4.637  0.00  0.00    +0.157 C 
ATOM      7  C   LIG    1       -1.987   2.482  -3.439  0.00  0.00    +0.282 A 
ATOM      8  O   LIG    1       -2.532   2.886  -4.451  0.00  0.00    -0.265 OA
ATOM      9  C   LIG    1       -2.739   2.244  -2.271  0.00  0.00    +0.149 A 
ATOM     10  N   LIG    1       -4.076   2.364  -1.940  0.00  0.00    -0.332 N 
ATOM     11  C   LIG    1       -4.196   1.980  -0.639  0.00  0.00    +0.141 A 
ATOM     12  N   LIG    1       -3.009   1.639  -0.175  0.00  0.00    -0.210 NA
ATOM     13  H   LIG    1       -4.792   2.663  -2.523  0.00  0.00    +0.168 HD
ATOM     14  C   LIG    1       -2.091   1.783  -1.129  0.00  0.00    +0.168 A 
ENDROOT
BRANCH  11  15
ATOM     15  C   LIG    1       -5.455   1.950   0.131  0.00  0.00    +0.017 A 
ATOM     16  C   LIG    1       -6.655   2.330  -0.475  0.00  0.00    +0.013 A 
ATOM     17  C   LIG    1       -7.828   2.301   0.246  0.00  0.00    +0.024 A 
ATOM     18  C   LIG    1       -7.819   1.894   1.576  0.00  0.00    +0.029 A 
ATOM     19  C   LIG    1       -6.625   1.515   2.183  0.00  0.00    +0.024 A 
ATOM     20  C   LIG    1       -5.450   1.536   1.465  0.00  0.00    +0.013 A 
BRANCH  18  21
ATOM     21  N   LIG    1       -9.007   1.866   2.303  0.00  0.00    -0.336 N 
ATOM     22  C   LIG    1       -8.999   1.437   3.703  0.00  0.00    +0.129 C 
ATOM     23  C   LIG    1      -10.264   2.265   1.666  0.00  0.00    +0.129 C 
ENDBRANCH  18  21
ENDBRANCH  11  15
TORSDOF 2
