REMARK  Name = ZINC13509425
REMARK                            x       y       z     vdW  Elec       q    Type
REMARK                         _______ _______ _______ _____ _____    ______ ____
ROOT
ATOM      1  C   LIG    1       -0.019   1.526   0.010  0.00  0.00    +0.019 C 
ATOM      2  C   LIG    1        0.002  -0.004   0.002  0.00  0.00    +0.029 C 
ATOM      3  C   LIG    1       -1.407  -0.526   0.183  0.00  0.00    +0.015 C 
ATOM      4  C   LIG    1       -1.973   0.097   1.474  0.00  0.00    +0.009 C 
ATOM      5  C   LIG    1       -1.081  -0.228   2.663  0.00  0.00    +0.023 C 
ATOM      6  C   LIG    1       -1.593   0.393   3.930  0.00  0.00    -0.041 A 
ATOM      7  C   LIG    1       -2.966   0.512   4.096  0.00  0.00    +0.008 A 
ATOM      8  C   LIG    1       -3.490   1.066   5.245  0.00  0.00    +0.046 A 
ATOM      9  C   LIG    1       -2.636   1.508   6.245  0.00  0.00    +0.117 A 
ATOM     10  C   LIG    1       -1.267   1.393   6.078  0.00  0.00    +0.049 A 
ATOM     11  C   LIG    1       -0.740   0.841   4.917  0.00  0.00    -0.040 A 
ATOM     12  C   LIG    1        0.759   0.776   4.793  0.00  0.00    +0.036 C 
ATOM     13  C   LIG    1        1.184  -0.154   3.657  0.00  0.00    +0.009 C 
ATOM     14  C   LIG    1        0.366   0.223   2.422  0.00  0.00    +0.001 C 
ATOM     15  C   LIG    1        0.751  -0.483  -1.205  0.00  0.00    +0.139 C 
ATOM     16  O   LIG    1        0.287  -0.777  -2.280  0.00  0.00    -0.297 OA
ATOM     17  C   LIG    1        2.220  -0.524  -0.796  0.00  0.00    +0.075 C 
ATOM     18  C   LIG    1        2.273  -0.151   0.711  0.00  0.00    +0.012 C 
ATOM     19  C   LIG    1        0.862  -0.512   1.193  0.00  0.00    +0.006 C 
ENDROOT
BRANCH   9  20
ATOM     20  O   LIG    1       -3.141   2.051   7.383  0.00  0.00    -0.507 OA
ATOM     21  H   LIG    1       -3.309   1.407   8.085  0.00  0.00    +0.292 HD
ENDBRANCH   9  20
TORSDOF 1
