REMARK  Name = ZINC13493571
REMARK                            x       y       z     vdW  Elec       q    Type
REMARK                         _______ _______ _______ _____ _____    ______ ____
ROOT
ATOM      1  C   LIG    1       -0.189  -0.374   2.507  0.00  0.00    +0.261 C 
ATOM      2  N   LIG    1       -0.393   0.929   2.785  0.00  0.00    -0.306 N 
ATOM      3  H   LIG    1       -0.536   1.562   2.065  0.00  0.00    +0.149 HD
ATOM      4  O   LIG    1       -0.101  -1.183   3.412  0.00  0.00    -0.269 OA
ENDROOT
BRANCH   1  10
ATOM      5  C   LIG    1        0.070  -3.305   1.538  0.00  0.00    +0.149 C 
ATOM      6  N   LIG    1        0.044  -2.118   0.680  0.00  0.00    -0.346 N 
ATOM      7  C   LIG    1        0.123  -2.119  -0.673  0.00  0.00    +0.086 A 
ATOM      8  C   LIG    1        0.066  -0.840  -1.116  0.00  0.00    +0.020 A 
ATOM      9  C   LIG    1       -0.054  -0.004  -0.001  0.00  0.00    +0.032 A 
ATOM     10  C   LIG    1       -0.072  -0.817   1.113  0.00  0.00    +0.104 A 
ENDBRANCH   1  10
BRANCH   2  11
ATOM     11  C   LIG    1       -0.398   1.388   4.176  0.00  0.00    +0.140 C 
BRANCH  11  12
ATOM     12  C   LIG    1       -0.646   2.874   4.213  0.00  0.00    -0.030 A 
ATOM     13  C   LIG    1        0.420   3.754   4.164  0.00  0.00    +0.005 A 
ATOM     14  C   LIG    1        0.193   5.117   4.198  0.00  0.00    +0.000 A 
ATOM     15  C   LIG    1       -1.100   5.601   4.281  0.00  0.00    +0.000 A 
ATOM     16  C   LIG    1       -2.165   4.721   4.330  0.00  0.00    +0.000 A 
ATOM     17  C   LIG    1       -1.938   3.358   4.291  0.00  0.00    +0.005 A 
ENDBRANCH  11  12
ENDBRANCH   2  11
TORSDOF 3
