REMARK  Name = ZINC13179867
REMARK                            x       y       z     vdW  Elec       q    Type
REMARK                         _______ _______ _______ _____ _____    ______ ____
ROOT
ATOM      1  C   LIG    1        1.213  -0.685  -0.008  0.00  0.00    +0.034 A 
ATOM      2  C   LIG    1        0.014  -0.008   0.193  0.00  0.00    +0.024 A 
ATOM      3  C   LIG    1       -0.007   1.368   0.206  0.00  0.00    +0.015 A 
ATOM      4  C   LIG    1        1.177   2.086   0.018  0.00  0.00    +0.037 A 
ATOM      5  C   LIG    1        2.380   1.403  -0.182  0.00  0.00    +0.015 A 
ATOM      6  C   LIG    1        2.394   0.026  -0.195  0.00  0.00    +0.024 A 
ENDROOT
BRANCH   1   8
ATOM      7  C   LIG    1        0.176  -2.761  -0.509  0.00  0.00    +0.248 C 
ATOM      8  N   LIG    1        1.231  -2.078  -0.021  0.00  0.00    -0.282 N 
ATOM      9  H   LIG    1        2.003  -2.557   0.320  0.00  0.00    +0.155 HD
ATOM     10  O   LIG    1       -0.749  -2.164  -1.024  0.00  0.00    -0.270 OA
BRANCH   7  14
ATOM     11  C   LIG    1        0.084  -6.999  -0.245  0.00  0.00    +0.000 A 
ATOM     12  C   LIG    1       -0.971  -6.323  -0.832  0.00  0.00    +0.001 A 
ATOM     13  C   LIG    1       -0.947  -4.946  -0.920  0.00  0.00    +0.013 A 
ATOM     14  C   LIG    1        0.144  -4.236  -0.417  0.00  0.00    +0.037 A 
ATOM     15  C   LIG    1        1.207  -4.925   0.169  0.00  0.00    +0.013 A 
ATOM     16  C   LIG    1        1.169  -6.301   0.257  0.00  0.00    +0.001 A 
ENDBRANCH   7  14
ENDBRANCH   1   8
BRANCH   4  17
ATOM     17  C   LIG    1        1.158   3.562   0.032  0.00  0.00    +0.245 C 
ATOM     18  N   LIG    1        2.301   4.252  -0.149  0.00  0.00    -0.301 N 
ATOM     19  H   LIG    1        3.137   3.779  -0.289  0.00  0.00    +0.150 HD
ATOM     20  O   LIG    1        0.111   4.154   0.207  0.00  0.00    -0.270 OA
BRANCH  18  21
ATOM     21  C   LIG    1        2.283   5.717  -0.136  0.00  0.00    +0.225 C 
BRANCH  21  22
ATOM     22  C   LIG    1        3.678   6.239  -0.360  0.00  0.00    +0.322 C 
ATOM     23  O   LIG    1        4.595   5.467  -0.514  0.00  0.00    -0.249 OA
BRANCH  22  24
ATOM     24  O   LIG    1        3.903   7.562  -0.387  0.00  0.00    -0.480 OA
ATOM     25  H   LIG    1        3.192   8.161  -0.267  0.00  0.00    +0.295 HD
ENDBRANCH  22  24
ENDBRANCH  21  22
ENDBRANCH  18  21
ENDBRANCH   4  17
TORSDOF 6
