REMARK  Name = ZINC13472532
REMARK                            x       y       z     vdW  Elec       q    Type
REMARK                         _______ _______ _______ _____ _____    ______ ____
ROOT
ATOM      1  C   LIG    1       -2.457   3.915   0.048  0.00  0.00    +0.091 A 
ATOM      2  C   LIG    1       -2.655   5.200   0.532  0.00  0.00    +0.074 A 
ATOM      3  N   LIG    1       -3.948   5.508   0.358  0.00  0.00    -0.339 N 
ATOM      4  H   LIG    1       -4.385   6.400   0.618  0.00  0.00    +0.167 HD
ATOM      5  C   LIG    1       -4.570   4.492  -0.198  0.00  0.00    +0.117 A 
ATOM      6  N   LIG    1       -3.679   3.480  -0.407  0.00  0.00    -0.338 N 
ATOM      7  H   LIG    1       -3.878   2.589  -0.815  0.00  0.00    +0.167 HD
ENDROOT
BRANCH   2   8
ATOM      8  C   LIG    1       -1.621   6.077   1.132  0.00  0.00    +0.004 A 
ATOM      9  C   LIG    1       -0.600   5.525   1.905  0.00  0.00    +0.014 A 
ATOM     10  C   LIG    1        0.361   6.343   2.463  0.00  0.00    +0.050 A 
ATOM     11  C   LIG    1        0.316   7.713   2.258  0.00  0.00    +0.166 A 
ATOM     12  C   LIG    1       -0.702   8.270   1.485  0.00  0.00    +0.167 A 
ATOM     13  O   LIG    1       -0.522   9.623   1.436  0.00  0.00    -0.453 OA
ATOM     14  C   LIG    1        0.841   9.844   1.843  0.00  0.00    +0.466 C 
ATOM     15  O   LIG    1        1.132   8.718   2.692  0.00  0.00    -0.453 OA
ATOM     16  C   LIG    1       -1.665   7.454   0.919  0.00  0.00    +0.059 A 
ENDBRANCH   2   8
BRANCH   1  21
ATOM     17  C   LIG    1       -0.013   1.076   0.008  0.00  0.00    +0.004 A 
ATOM     18  C   LIG    1        1.172   1.802   0.001  0.00  0.00    +0.020 A 
ATOM     19  C   LIG    1        1.122   3.183   0.009  0.00  0.00    +0.111 A 
ATOM     20  N   LIG    1       -0.032   3.819   0.023  0.00  0.00    -0.253 NA
ATOM     21  C   LIG    1       -1.188   3.163   0.031  0.00  0.00    +0.089 A 
ATOM     22  C   LIG    1       -1.211   1.766   0.017  0.00  0.00    +0.030 A 
ENDBRANCH   1  21
BRANCH   5  23
ATOM     23  C   LIG    1       -6.007   4.452  -0.541  0.00  0.00    +0.015 A 
ATOM     24  C   LIG    1       -6.552   3.312  -1.137  0.00  0.00    +0.012 A 
ATOM     25  C   LIG    1       -7.886   3.273  -1.451  0.00  0.00    +0.015 A 
ATOM     26  C   LIG    1       -8.699   4.379  -1.185  0.00  0.00    +0.059 A 
ATOM     27  C   LIG    1       -8.152   5.522  -0.595  0.00  0.00    +0.015 A 
ATOM     28  C   LIG    1       -6.819   5.558  -0.275  0.00  0.00    +0.012 A 
BRANCH  26  29
ATOM     29  C   LIG    1      -10.133   4.340  -1.530  0.00  0.00    +0.337 C 
ATOM     30  O   LIG    1      -10.839   5.302  -1.300  0.00  0.00    -0.245 OA
BRANCH  29  31
ATOM     31  O   LIG    1      -10.660   3.238  -2.099  0.00  0.00    -0.477 OA
ATOM     32  H   LIG    1      -10.115   2.497  -2.277  0.00  0.00    +0.295 HD
ENDBRANCH  29  31
ENDBRANCH  26  29
ENDBRANCH   5  23
TORSDOF 5
