REMARK  Name = ZINC13472189
REMARK                            x       y       z     vdW  Elec       q    Type
REMARK                         _______ _______ _______ _____ _____    ______ ____
ROOT
ATOM      1  C   LIG    1        0.746   4.059  -0.179  0.00  0.00    +0.074 C 
ATOM      2  C   LIG    1        1.355   2.849  -0.838  0.00  0.00    +0.033 C 
ATOM      3  C   LIG    1        1.279   1.601  -0.002  0.00  0.00    +0.105 C 
ATOM      4  N   LIG    1       -0.011   0.966   0.007  0.00  0.00    -0.310 N 
ATOM      5  H   LIG    1        0.002  -0.004   0.002  0.00  0.00    +0.149 HD
ATOM      6  C   LIG    1       -1.204   1.514   0.017  0.00  0.00    +0.261 C 
ATOM      7  C   LIG    1       -1.565   2.919  -0.052  0.00  0.00    +0.108 A 
ATOM      8  N   LIG    1       -2.873   3.380  -0.048  0.00  0.00    -0.344 N 
ATOM      9  H   LIG    1       -3.666   2.825   0.024  0.00  0.00    +0.167 HD
ATOM     10  C   LIG    1       -2.864   4.728  -0.161  0.00  0.00    +0.098 A 
ATOM     11 BR   LIG    1       -4.393   5.839  -0.218  0.00  0.00    -0.030 Br
ATOM     12  C   LIG    1       -1.579   5.150  -0.226  0.00  0.00    +0.054 A 
ATOM     13 BR   LIG    1       -1.005   6.945  -0.388  0.00  0.00    -0.047 Br
ATOM     14  O   LIG    1       -2.137   0.737   0.100  0.00  0.00    -0.269 OA
ATOM     15  C   LIG    1       -0.749   4.022  -0.152  0.00  0.00    +0.006 A 
ENDROOT
BRANCH   1  17
ATOM     16  C   LIG    1        1.397   5.392  -2.249  0.00  0.00    +0.109 A 
ATOM     17  C   LIG    1        1.187   5.291  -0.925  0.00  0.00    +0.068 A 
ATOM     18  N   LIG    1        1.457   6.527  -0.381  0.00  0.00    -0.219 NA
ATOM     19  C   LIG    1        1.819   7.343  -1.407  0.00  0.00    +0.191 A 
ATOM     20  N   LIG    1        1.776   6.653  -2.521  0.00  0.00    -0.333 N 
ATOM     21  H   LIG    1        1.992   7.008  -3.431  0.00  0.00    +0.168 HD
BRANCH  19  22
ATOM     22  N   LIG    1        2.174   8.677  -1.293  0.00  0.00    -0.329 N 
ATOM     23  H   LIG    1        2.420   9.182  -2.084  0.00  0.00    +0.145 HD
ATOM     24  H   LIG    1        2.178   9.106  -0.423  0.00  0.00    +0.145 HD
ENDBRANCH  19  22
ENDBRANCH   1  17
TORSDOF 2
