REMARK  Name = ZINC13488292
REMARK                            x       y       z     vdW  Elec       q    Type
REMARK                         _______ _______ _______ _____ _____    ______ ____
ROOT
ATOM      1  CA  GLN A  1        1.235   3.094   0.007  0.00  0.00    +0.182 C 
ENDROOT
BRANCH   1   3
ATOM      2  C   UNK A  0        3.319   3.625   1.153  0.00  0.00    +0.246 C 
ATOM      3  N   GLN A  1        2.634   3.529  -0.004  0.00  0.00    -0.298 N 
ATOM      4  H   GLN A  1        3.067   3.747  -0.844  0.00  0.00    +0.150 HD
ATOM      5  O   UNK A  0        2.776   3.352   2.205  0.00  0.00    -0.270 OA
BRANCH   2  11
ATOM      6  C   UNK A  0        6.675   4.786  -0.069  0.00  0.00    +0.001 A 
ATOM      7  C   UNK A  0        7.376   4.884   1.120  0.00  0.00    +0.001 A 
ATOM      8  C   UNK A  0        6.762   4.574   2.320  0.00  0.00    +0.016 A 
ATOM      9  C   UNK A  0        5.443   4.165   2.338  0.00  0.00    +0.030 A 
ATOM     10 BR   UNK A  0        4.604   3.741   3.980  0.00  0.00    -0.050 Br
ATOM     11  C   UNK A  0        4.730   4.064   1.141  0.00  0.00    +0.051 A 
ATOM     12  C   UNK A  0        5.359   4.373  -0.066  0.00  0.00    +0.014 A 
ENDBRANCH   2  11
ENDBRANCH   1   3
BRANCH   1  13
ATOM     13  C   GLN A  1        1.177   1.588  -0.001  0.00  0.00    +0.325 C 
ATOM     14  O   GLN A  1        2.199   0.944  -0.014  0.00  0.00    -0.249 OA
BRANCH  13  15
ATOM     15  OXT GLN A  1       -0.011   0.963   0.007  0.00  0.00    -0.479 OA
ATOM     16  HXT GLN A  1       -0.804   1.462   0.018  0.00  0.00    +0.295 HD
ENDBRANCH  13  15
ENDBRANCH   1  13
BRANCH   1  17
ATOM     17  CB  GLN A  1        0.522   3.639  -1.233  0.00  0.00    +0.043 C 
BRANCH  17  18
ATOM     18  CG  GLN A  1        0.472   5.166  -1.163  0.00  0.00    +0.098 C 
BRANCH  18  19
ATOM     19  CD  GLN A  1       -0.230   5.702  -2.384  0.00  0.00    +0.211 C 
ATOM     20  NE2 GLN A  1       -0.392   7.031  -2.539  0.00  0.00    -0.329 N 
ATOM     21 HE21 GLN A  1       -0.844   7.376  -3.325  0.00  0.00    +0.145 HD
ATOM     22 HE22 GLN A  1       -0.057   7.643  -1.864  0.00  0.00    +0.145 HD
ATOM     23  OE1 GLN A  1       -0.649   4.938  -3.227  0.00  0.00    -0.276 OA
ENDBRANCH  18  19
ENDBRANCH  17  18
ENDBRANCH   1  17
TORSDOF 7
