REMARK  Name = ZINC13538221
REMARK                            x       y       z     vdW  Elec       q    Type
REMARK                         _______ _______ _______ _____ _____    ______ ____
ROOT
ATOM      1  C   LIG    1       -0.138   3.610  -1.372  0.00  0.00    +0.091 A 
ATOM      2  C   LIG    1       -1.514   3.495  -1.077  0.00  0.00    +0.117 A 
ATOM      3  C   LIG    1       -1.788   2.123  -0.940  0.00  0.00    +0.124 A 
ATOM      4  N   LIG    1       -0.607   1.461  -1.138  0.00  0.00    -0.272 N 
ATOM      5  H   LIG    1       -0.473   0.471  -1.100  0.00  0.00    +0.189 HD
ATOM      6  C   LIG    1       -3.103   1.732  -0.648  0.00  0.00    +0.148 A 
ATOM      7  N   LIG    1       -4.030   2.674  -0.519  0.00  0.00    -0.219 NA
ATOM      8  C   LIG    1       -3.732   3.954  -0.659  0.00  0.00    +0.224 A 
ATOM      9  N   LIG    1       -2.515   4.371  -0.924  0.00  0.00    -0.232 NA
ATOM     10  N   LIG    1        0.384   2.416  -1.405  0.00  0.00    -0.176 NA
ENDROOT
BRANCH   1  12
ATOM     11  C   LIG    1        1.720   5.043  -0.572  0.00  0.00    +0.014 C 
ATOM     12  C   LIG    1        0.604   4.900  -1.608  0.00  0.00    +0.035 C 
ATOM     13  C   LIG    1        1.211   4.888  -3.013  0.00  0.00    +0.014 C 
ENDBRANCH   1  12
BRANCH   6  14
ATOM     14  N   LIG    1       -3.427   0.395  -0.499  0.00  0.00    -0.324 N 
ATOM     15  H   LIG    1       -2.741  -0.284  -0.595  0.00  0.00    +0.148 HD
BRANCH  14  16
ATOM     16  C   LIG    1       -4.806   0.005  -0.195  0.00  0.00    +0.130 C 
BRANCH  16  17
ATOM     17  C   LIG    1       -4.891  -1.495  -0.083  0.00  0.00    -0.010 C 
ATOM     18  C   LIG    1       -5.388  -2.045   0.997  0.00  0.00    -0.078 C 
ATOM     19  C   LIG    1       -5.360  -3.543   1.161  0.00  0.00    +0.038 C 
ATOM     20  C   LIG    1       -5.988  -1.179   2.075  0.00  0.00    +0.038 C 
ENDBRANCH  16  17
ENDBRANCH  14  16
ENDBRANCH   6  14
TORSDOF 4
