REMARK  Name = ZINC13448101
REMARK                            x       y       z     vdW  Elec       q    Type
REMARK                         _______ _______ _______ _____ _____    ______ ____
ROOT
ATOM      1  C   LIG    1        2.909   1.326  -1.393  0.00  0.00    -0.085 C 
ATOM      2  C   LIG    1        3.272   1.191  -2.502  0.00  0.00    -0.119 C 
ENDROOT
BRANCH   1   3
ATOM      3  C   LIG    1        2.454   1.494  -0.004  0.00  0.00    +0.197 C 
BRANCH   3  10
ATOM      4  C   LIG    1        0.863   4.001  -1.402  0.00  0.00    +0.028 C 
ATOM      5  C   LIG    1        0.711   3.415   0.003  0.00  0.00    +0.074 C 
ATOM      6  C   LIG    1       -0.768   3.460   0.446  0.00  0.00    +0.031 C 
ATOM      7  C   LIG    1       -1.266   2.058   0.019  0.00  0.00    +0.098 C 
ATOM      8  C   LIG    1       -0.014   1.209   0.009  0.00  0.00    +0.217 C 
ATOM      9  O   LIG    1        0.002  -0.004   0.002  0.00  0.00    -0.276 OA
ATOM     10  N   LIG    1        1.077   1.993   0.003  0.00  0.00    -0.288 N 
ENDBRANCH   3  10
ENDBRANCH   1   3
BRANCH   2  11
ATOM     11  C   LIG    1        3.727   1.023  -3.892  0.00  0.00    +0.012 C 
BRANCH  11  12
ATOM     12  N   LIG    1        5.127   0.503  -3.903  0.00  0.00    +0.387 N 
ATOM     13  H   LIG    1        5.760   1.234  -3.555  0.00  0.00    -0.080 HD
ATOM     14  C   LIG    1        5.518   0.115  -5.259  0.00  0.00    -0.078 C 
ATOM     15  C   LIG    1        6.463  -1.090  -5.104  0.00  0.00    -0.020 C 
ATOM     16  C   LIG    1        6.535  -1.355  -3.583  0.00  0.00    -0.020 C 
ATOM     17  C   LIG    1        5.236  -0.694  -3.055  0.00  0.00    -0.078 C 
ENDBRANCH  11  12
ENDBRANCH   2  11
TORSDOF 4
