REMARK  Name = ZINC13382498
REMARK                            x       y       z     vdW  Elec       q    Type
REMARK                         _______ _______ _______ _____ _____    ______ ____
ROOT
ATOM      1  C   LIG    1        2.765   5.677   0.124  0.00  0.00    +0.016 A 
ATOM      2  C   LIG    1        2.706   4.281   0.136  0.00  0.00    +0.072 A 
ATOM      3  C   LIG    1        3.883   3.519   0.202  0.00  0.00    +0.143 A 
ATOM      4  O   LIG    1        3.838   2.171   0.217  0.00  0.00    -0.454 OA
ATOM      5  C   LIG    1        2.691   1.463   0.165  0.00  0.00    +0.146 A 
ATOM      6  C   LIG    1        2.729   0.078   0.176  0.00  0.00    +0.093 A 
ATOM      7  C   LIG    1        1.554  -0.664   0.122  0.00  0.00    +0.132 A 
ATOM      8  C   LIG    1        0.324  -0.025   0.061  0.00  0.00    +0.039 A 
ATOM      9  C   LIG    1       -0.966  -0.804   0.013  0.00  0.00    +0.077 C 
ATOM     10  C   LIG    1       -0.681  -2.249  -0.403  0.00  0.00    +0.162 C 
ATOM     11  C   LIG    1        0.483  -2.773   0.447  0.00  0.00    +0.131 C 
ATOM     12  C   LIG    1        0.154  -2.606   1.932  0.00  0.00    +0.058 C 
ATOM     13  C   LIG    1        0.723  -4.252   0.136  0.00  0.00    +0.058 C 
ATOM     14  C   LIG    1        0.263   1.359   0.047  0.00  0.00    +0.138 A 
ATOM     15  O   LIG    1        1.652  -2.019   0.125  0.00  0.00    -0.483 OA
ATOM     16  C   LIG    1        1.445   2.110   0.097  0.00  0.00    +0.106 A 
ATOM     17  C   LIG    1        5.109   4.171   0.254  0.00  0.00    +0.096 A 
ATOM     18  C   LIG    1        5.163   5.553   0.241  0.00  0.00    +0.162 A 
ATOM     19  C   LIG    1        1.407   3.582   0.081  0.00  0.00    +0.204 A 
ATOM     20  O   LIG    1        0.355   4.193   0.024  0.00  0.00    -0.286 OA
ATOM     21  C   LIG    1        3.990   6.309   0.176  0.00  0.00    +0.166 A 
ENDROOT
BRANCH  10  22
ATOM     22  O   LIG    1       -0.325  -2.291  -1.786  0.00  0.00    -0.388 OA
ATOM     23  H   LIG    1       -1.018  -1.972  -2.381  0.00  0.00    +0.210 HD
ENDBRANCH  10  22
BRANCH  14  24
ATOM     24  O   LIG    1       -0.938   1.986  -0.022  0.00  0.00    -0.506 OA
ATOM     25  H   LIG    1       -1.333   2.175   0.841  0.00  0.00    +0.292 HD
ENDBRANCH  14  24
BRANCH  18  26
ATOM     26  O   LIG    1        6.366   6.181   0.291  0.00  0.00    -0.503 OA
ATOM     27  H   LIG    1        6.673   6.372   1.188  0.00  0.00    +0.292 HD
ENDBRANCH  18  26
BRANCH  21  28
ATOM     28  O   LIG    1        4.055   7.668   0.165  0.00  0.00    -0.491 OA
ATOM     29  C   LIG    1        4.025   8.329   1.431  0.00  0.00    +0.277 C 
ENDBRANCH  21  28
BRANCH   1  30
ATOM     30  C   LIG    1        1.497   6.488   0.053  0.00  0.00    +0.067 C 
BRANCH  30  34
ATOM     31  C   LIG    1        0.674   9.032   0.959  0.00  0.00    +0.038 C 
ATOM     32  C   LIG    1        0.626   7.846   1.886  0.00  0.00    -0.079 C 
ATOM     33  C   LIG    1        0.232   8.033   3.329  0.00  0.00    +0.038 C 
ATOM     34  C   LIG    1        0.927   6.652   1.439  0.00  0.00    -0.023 C 
ENDBRANCH  30  34
ENDBRANCH   1  30
TORSDOF 6
