REMARK  Name = ZINC13491700
REMARK                            x       y       z     vdW  Elec       q    Type
REMARK                         _______ _______ _______ _____ _____    ______ ____
ROOT
ATOM      1  N   LIG    1       -1.372  -0.511   0.012  0.00  0.00    -0.220 N 
ATOM      2  C   LIG    1       -2.192  -0.803  -1.175  0.00  0.00    +0.271 C 
ATOM      3  C   LIG    1       -3.523  -1.300  -0.576  0.00  0.00    +0.277 C 
ATOM      4  N   LIG    1       -3.312  -1.235   0.879  0.00  0.00    -0.272 N 
ATOM      5  H   LIG    1       -4.008  -1.494   1.589  0.00  0.00    +0.304 HD
ATOM      6  C   LIG    1       -2.114  -0.801   1.132  0.00  0.00    +0.265 C 
ENDROOT
BRANCH   1   8
ATOM      7  C   LIG    1       -0.019   1.526   0.010  0.00  0.00    +0.051 C 
ATOM      8  C   LIG    1        0.002  -0.004   0.002  0.00  0.00    +0.222 C 
ENDBRANCH   1   8
BRANCH   6   9
ATOM      9  C   LIG    1       -1.601  -0.632   2.498  0.00  0.00    +0.095 C 
ATOM     10  C   LIG    1       -2.379  -0.935   3.551  0.00  0.00    +0.017 C 
BRANCH  10  11
ATOM     11  C   LIG    1       -1.864  -0.765   4.921  0.00  0.00    -0.007 A 
ATOM     12  C   LIG    1       -2.665  -1.077   6.028  0.00  0.00    +0.011 A 
ATOM     13  C   LIG    1       -2.133  -0.900   7.293  0.00  0.00    +0.020 A 
ATOM     14  C   LIG    1       -0.840  -0.425   7.423  0.00  0.00    +0.111 A 
ATOM     15  N   LIG    1       -0.108  -0.140   6.364  0.00  0.00    -0.263 NA
ATOM     16  C   LIG    1       -0.566  -0.296   5.139  0.00  0.00    +0.118 A 
ENDBRANCH  10  11
ENDBRANCH   6   9
TORSDOF 3
