REMARK  Name = ZINC13488965
REMARK                            x       y       z     vdW  Elec       q    Type
REMARK                         _______ _______ _______ _____ _____    ______ ____
ROOT
ATOM      1  C   LIG    1       -2.736   2.253   2.431  0.00  0.00    +0.241 C 
ATOM      2  N   LIG    1       -4.069   2.456   2.413  0.00  0.00    -0.281 N 
ATOM      3  H   LIG    1       -4.562   2.359   1.583  0.00  0.00    +0.155 HD
ATOM      4  O   LIG    1       -2.101   2.473   3.446  0.00  0.00    -0.270 OA
ENDROOT
BRANCH   2   5
ATOM      5  C   LIG    1       -4.735   2.805   3.583  0.00  0.00    +0.048 A 
ATOM      6  C   LIG    1       -4.207   2.453   4.818  0.00  0.00    +0.024 A 
ATOM      7  C   LIG    1       -4.868   2.803   5.978  0.00  0.00    +0.002 A 
ATOM      8  C   LIG    1       -6.066   3.499   5.920  0.00  0.00    +0.001 A 
ATOM      9  C   LIG    1       -6.607   3.852   4.704  0.00  0.00    +0.017 A 
ATOM     10  C   LIG    1       -5.948   3.509   3.521  0.00  0.00    +0.080 A 
BRANCH  10  11
ATOM     11  C   LIG    1       -6.522   3.883   2.216  0.00  0.00    +0.339 C 
ATOM     12  O   LIG    1       -5.994   3.505   1.189  0.00  0.00    -0.245 OA
BRANCH  11  13
ATOM     13  O   LIG    1       -7.632   4.645   2.162  0.00  0.00    -0.477 OA
ATOM     14  H   LIG    1       -8.040   4.936   2.954  0.00  0.00    +0.295 HD
ENDBRANCH  11  13
ENDBRANCH  10  11
ENDBRANCH   2   5
BRANCH   1  17
ATOM     15  C   LIG    1       -0.016   1.068   0.013  0.00  0.00    +0.044 C 
ATOM     16  C   LIG    1       -0.719   1.567   1.249  0.00  0.00    -0.038 C 
ATOM     17  C   LIG    1       -2.053   1.770   1.231  0.00  0.00    +0.071 C 
BRANCH  16  18
ATOM     18  C   LIG    1        0.048   1.832   2.476  0.00  0.00    -0.021 A 
ATOM     19  C   LIG    1        0.147   3.149   2.968  0.00  0.00    +0.009 A 
ATOM     20  C   LIG    1        0.845   3.417   4.100  0.00  0.00    +0.009 A 
ATOM     21  C   LIG    1        1.491   2.376   4.793  0.00  0.00    -0.018 A 
ATOM     22  C   LIG    1        2.223   2.631   5.964  0.00  0.00    +0.008 A 
ATOM     23  C   LIG    1        2.839   1.605   6.614  0.00  0.00    +0.001 A 
ATOM     24  C   LIG    1        2.754   0.299   6.135  0.00  0.00    +0.001 A 
ATOM     25  C   LIG    1        2.053   0.012   5.004  0.00  0.00    +0.008 A 
ATOM     26  C   LIG    1        1.404   1.046   4.306  0.00  0.00    -0.017 A 
ATOM     27  C   LIG    1        0.674   0.785   3.137  0.00  0.00    +0.016 A 
ENDBRANCH  16  18
ENDBRANCH   1  17
TORSDOF 5
