REMARK  Name = ZINC13553655
REMARK                            x       y       z     vdW  Elec       q    Type
REMARK                         _______ _______ _______ _____ _____    ______ ____
ROOT
ATOM      1  C   LIG    1        3.669   2.231  -0.021  0.00  0.00    +0.044 C 
ATOM      2  C   LIG    1        2.387   1.439  -0.013  0.00  0.00    -0.050 A 
ATOM      3  C   LIG    1        1.168   2.096   0.002  0.00  0.00    +0.005 A 
ATOM      4  C   LIG    1       -0.017   1.385   0.010  0.00  0.00    +0.024 A 
ATOM      5  C   LIG    1        0.002  -0.004   0.002  0.00  0.00    +0.048 A 
ATOM      6  C   LIG    1        1.240  -0.668  -0.013  0.00  0.00    +0.049 A 
ATOM      7  C   LIG    1        0.943  -2.112  -0.018  0.00  0.00    +0.250 C 
ATOM      8  C   LIG    1       -0.555  -2.196  -0.004  0.00  0.00    +0.292 C 
ATOM      9  O   LIG    1       -1.216  -3.213  -0.003  0.00  0.00    -0.266 OA
ATOM     10  O   LIG    1        1.735  -3.031  -0.031  0.00  0.00    -0.282 OA
ATOM     11  N   LIG    1       -1.030  -0.939   0.007  0.00  0.00    -0.260 N 
ATOM     12  C   LIG    1        2.429   0.060  -0.021  0.00  0.00    +0.017 A 
ENDROOT
BRANCH  11  13
ATOM     13  C   LIG    1       -2.455  -0.596   0.023  0.00  0.00    +0.149 C 
BRANCH  13  14
ATOM     14  C   LIG    1       -2.957  -0.469  -1.392  0.00  0.00    -0.026 A 
ATOM     15  C   LIG    1       -2.912   0.754  -2.035  0.00  0.00    +0.005 A 
ATOM     16  C   LIG    1       -3.367   0.872  -3.335  0.00  0.00    +0.004 A 
ATOM     17  C   LIG    1       -3.878  -0.231  -3.991  0.00  0.00    +0.045 A 
ATOM     18  C   LIG    1       -3.930  -1.458  -3.347  0.00  0.00    +0.120 A 
ATOM     19  C   LIG    1       -3.468  -1.575  -2.044  0.00  0.00    +0.050 A 
BRANCH  18  20
ATOM     20  O   LIG    1       -4.434  -2.544  -3.990  0.00  0.00    -0.495 OA
ATOM     21  C   LIG    1       -4.891  -2.350  -5.330  0.00  0.00    +0.277 C 
ENDBRANCH  18  20
ENDBRANCH  13  14
ENDBRANCH  11  13
TORSDOF 3
