REMARK  Name = ZINC13531918
REMARK                            x       y       z     vdW  Elec       q    Type
REMARK                         _______ _______ _______ _____ _____    ______ ____
ROOT
ATOM      1  N   LIG    1       -2.480   5.280   0.084  0.00  0.00    -0.269 N 
ATOM      2  H   LIG    1       -1.654   5.780   0.174  0.00  0.00    +0.156 HD
ATOM      3  C   LIG    1       -3.655   5.932  -0.022  0.00  0.00    +0.308 C 
ATOM      4  N   LIG    1       -3.673   7.277  -0.117  0.00  0.00    -0.268 N 
ATOM      5  H   LIG    1       -2.841   7.769  -0.193  0.00  0.00    +0.156 HD
ATOM      6  O   LIG    1       -4.698   5.308  -0.031  0.00  0.00    -0.252 OA
ENDROOT
BRANCH   1  15
ATOM      7  C   LIG    1        0.680   1.764   1.852  0.00  0.00    +0.001 A 
ATOM      8  C   LIG    1        0.672   3.157   1.884  0.00  0.00    +0.001 A 
ATOM      9  C   LIG    1       -0.339   3.865   1.308  0.00  0.00    +0.010 A 
ATOM     10  C   LIG    1       -1.389   3.185   0.671  0.00  0.00    +0.003 A 
ATOM     11  C   LIG    1       -1.378   1.768   0.633  0.00  0.00    -0.016 A 
ATOM     12  C   LIG    1       -2.432   1.086   0.002  0.00  0.00    +0.008 A 
ATOM     13  C   LIG    1       -3.446   1.786  -0.576  0.00  0.00    +0.002 A 
ATOM     14  C   LIG    1       -3.464   3.178  -0.550  0.00  0.00    +0.024 A 
ATOM     15  C   LIG    1       -2.453   3.884   0.064  0.00  0.00    +0.042 A 
ATOM     16  C   LIG    1       -0.321   1.071   1.244  0.00  0.00    +0.008 A 
ENDBRANCH   1  15
BRANCH   4  17
ATOM     17  C   LIG    1       -4.887   7.959  -0.107  0.00  0.00    +0.050 A 
ATOM     18  C   LIG    1       -6.000   7.394   0.500  0.00  0.00    +0.044 A 
ATOM     19  C   LIG    1       -7.201   8.075   0.514  0.00  0.00    +0.043 A 
ATOM     20 CL   LIG    1       -8.587   7.366   1.283  0.00  0.00    -0.083 Cl
ATOM     21  C   LIG    1       -7.309   9.321  -0.088  0.00  0.00    +0.021 A 
ATOM     22  C   LIG    1       -6.217   9.894  -0.701  0.00  0.00    +0.018 A 
ATOM     23  C   LIG    1       -4.993   9.219  -0.718  0.00  0.00    +0.080 A 
BRANCH  23  24
ATOM     24  C   LIG    1       -3.821   9.826  -1.371  0.00  0.00    +0.339 C 
ATOM     25  O   LIG    1       -2.785   9.197  -1.468  0.00  0.00    -0.245 OA
BRANCH  24  26
ATOM     26  O   LIG    1       -3.897  11.079  -1.861  0.00  0.00    -0.477 OA
ATOM     27  H   LIG    1       -4.695  11.564  -1.787  0.00  0.00    +0.295 HD
ENDBRANCH  24  26
ENDBRANCH  23  24
ENDBRANCH   4  17
TORSDOF 4
