REMARK  Name = ZINC13515668
REMARK                            x       y       z     vdW  Elec       q    Type
REMARK                         _______ _______ _______ _____ _____    ______ ____
ROOT
ATOM      1  C   LIG    1       -1.392   1.243   4.187  0.00  0.00    +0.052 C 
ATOM      2  C   LIG    1       -0.337   0.203   3.803  0.00  0.00    +0.176 C 
ATOM      3  C   LIG    1        0.701   0.081   4.925  0.00  0.00    +0.079 C 
ATOM      4  C   LIG    1        0.925  -1.393   5.256  0.00  0.00    +0.155 C 
ATOM      5  C   LIG    1        1.874  -1.763   6.391  0.00  0.00    +0.170 C 
ATOM      6  C   LIG    1        2.543  -0.687   7.201  0.00  0.00    +0.007 C 
ATOM      7  C   LIG    1        3.359   0.202   6.648  0.00  0.00    -0.002 C 
ATOM      8  C   LIG    1        3.664   0.186   5.224  0.00  0.00    +0.003 C 
ATOM      9  C   LIG    1        3.846   1.372   4.584  0.00  0.00    +0.046 C 
ATOM     10  C   LIG    1        4.079   1.396   3.198  0.00  0.00    +0.160 C 
ATOM     11  C   LIG    1        3.898   2.692   2.443  0.00  0.00    +0.116 C 
ATOM     12  C   LIG    1        3.154   2.401   1.165  0.00  0.00    -0.001 A 
ATOM     13  C   LIG    1        1.874   1.835   1.202  0.00  0.00    +0.105 A 
ATOM     14  C   LIG    1        1.211   1.534   2.483  0.00  0.00    +0.343 C 
ATOM     15  O   LIG    1        1.483   2.208   3.459  0.00  0.00    -0.245 OA
ATOM     16  C   LIG    1        1.221   1.532  -0.001  0.00  0.00    +0.135 A 
ATOM     17  C   LIG    1        1.831   1.825  -1.209  0.00  0.00    +0.093 A 
ATOM     18  C   LIG    1        3.092   2.399  -1.231  0.00  0.00    +0.139 A 
ATOM     19  C   LIG    1        3.752   2.684  -0.040  0.00  0.00    +0.087 A 
ATOM     20 CL   LIG    1        5.335   3.398  -0.079  0.00  0.00    -0.079 Cl
ATOM     21  O   LIG    1        4.397   0.385   2.607  0.00  0.00    -0.292 OA
ATOM     22  O   LIG    1        0.455  -1.884   6.514  0.00  0.00    -0.364 OA
ATOM     23  O   LIG    1        0.292   0.568   2.557  0.00  0.00    -0.458 OA
ENDROOT
BRANCH  16  24
ATOM     24  O   LIG    1       -0.011   0.963   0.007  0.00  0.00    -0.506 OA
ATOM     25  H   LIG    1       -0.429   0.762   0.822  0.00  0.00    +0.292 HD
ENDBRANCH  16  24
BRANCH  18  26
ATOM     26  O   LIG    1        3.685   2.686  -2.418  0.00  0.00    -0.505 OA
ATOM     27  H   LIG    1        4.686   3.141  -2.437  0.00  0.00    +0.292 HD
ENDBRANCH  18  26
TORSDOF 2
