REMARK  Name = ZINC13449627
REMARK                            x       y       z     vdW  Elec       q    Type
REMARK                         _______ _______ _______ _____ _____    ______ ____
ROOT
ATOM      1  S   LIG    1        0.707  -0.501   1.862  0.00  0.00    +0.086 S 
ATOM      2  O   LIG    1       -0.308  -0.046   2.747  0.00  0.00    -0.246 OA
ENDROOT
BRANCH   1   3
ATOM      3  S   LIG    1        0.002  -0.004   0.002  0.00  0.00    -0.056 S 
BRANCH   3   4
ATOM      4  C   LIG    1       -0.022   1.810   0.012  0.00  0.00    +0.118 C 
BRANCH   4   8
ATOM      5  C   LIG    1        3.985   3.289  -0.018  0.00  0.00    +0.000 A 
ATOM      6  C   LIG    1        3.325   3.056  -1.210  0.00  0.00    +0.000 A 
ATOM      7  C   LIG    1        2.028   2.577  -1.201  0.00  0.00    +0.004 A 
ATOM      8  C   LIG    1        1.391   2.331   0.001  0.00  0.00    -0.037 A 
ATOM      9  C   LIG    1        2.049   2.570   1.194  0.00  0.00    +0.004 A 
ATOM     10  C   LIG    1        3.348   3.043   1.184  0.00  0.00    +0.000 A 
ENDBRANCH   4   8
ENDBRANCH   3   4
ENDBRANCH   1   3
BRANCH   1  11
ATOM     11  C   LIG    1        0.732  -2.314   1.852  0.00  0.00    +0.150 C 
BRANCH  11  12
ATOM     12  C   LIG    1        1.237  -2.817   3.180  0.00  0.00    -0.034 A 
ATOM     13  C   LIG    1        2.589  -3.036   3.367  0.00  0.00    +0.004 A 
ATOM     14  C   LIG    1        3.053  -3.492   4.586  0.00  0.00    +0.000 A 
ATOM     15  C   LIG    1        2.164  -3.740   5.615  0.00  0.00    +0.000 A 
ATOM     16  C   LIG    1        0.811  -3.527   5.426  0.00  0.00    +0.000 A 
ATOM     17  C   LIG    1        0.348  -3.066   4.209  0.00  0.00    +0.004 A 
ENDBRANCH  11  12
ENDBRANCH   1  11
TORSDOF 5
