REMARK  Name = ZINC13522362
REMARK                            x       y       z     vdW  Elec       q    Type
REMARK                         _______ _______ _______ _____ _____    ______ ____
ROOT
ATOM      1  C   LIG    1        1.474   1.937  -0.002  0.00  0.00    +0.161 C 
ATOM      2  C   LIG    1       -0.019   1.541   0.011  0.00  0.00    +0.177 C 
ATOM      3  C   LIG    1        0.002  -0.004   0.002  0.00  0.00    +0.195 C 
ATOM      4  C   LIG    1        1.506  -0.359  -0.014  0.00  0.00    +0.253 C 
ATOM      5  O   LIG    1        2.163   0.795   0.553  0.00  0.00    -0.347 OA
ENDROOT
BRANCH   4   6
ATOM      6  N   LIG    1        1.758  -1.545   0.807  0.00  0.00    -0.286 N 
ATOM      7  C   LIG    1        2.151  -1.554   2.113  0.00  0.00    +0.203 A 
ATOM      8  N   LIG    1        2.282  -2.780   2.530  0.00  0.00    -0.231 NA
ATOM      9  C   LIG    1        1.982  -3.634   1.521  0.00  0.00    +0.147 A 
ATOM     10  C   LIG    1        1.949  -5.032   1.387  0.00  0.00    +0.147 A 
ATOM     11  N   LIG    1        1.598  -5.547   0.213  0.00  0.00    -0.219 NA
ATOM     12  C   LIG    1        1.287  -4.771  -0.809  0.00  0.00    +0.225 A 
ATOM     13  N   LIG    1        1.305  -3.458  -0.730  0.00  0.00    -0.216 NA
ATOM     14  C   LIG    1        1.638  -2.852   0.405  0.00  0.00    +0.167 A 
BRANCH  10  15
ATOM     15  N   LIG    1        2.272  -5.853   2.453  0.00  0.00    -0.341 N 
ATOM     16  H   LIG    1        2.245  -6.817   2.348  0.00  0.00    +0.144 HD
ATOM     17  H   LIG    1        3.211  -5.668   2.743  0.00  0.00    +0.144 HD
ENDBRANCH  10  15
ENDBRANCH   4   6
BRANCH   2  18
ATOM     18  O   LIG    1       -0.678   2.039  -1.155  0.00  0.00    -0.386 OA
ATOM     19  H   LIG    1       -1.604   1.769  -1.229  0.00  0.00    +0.210 HD
ENDBRANCH   2  18
BRANCH   3  20
ATOM     20  O   LIG    1       -0.644  -0.507  -1.169  0.00  0.00    -0.385 OA
ATOM     21  H   LIG    1       -1.577  -0.262  -1.240  0.00  0.00    +0.210 HD
ENDBRANCH   3  20
BRANCH   1  22
ATOM     22  C   LIG    1        1.705   3.173   0.870  0.00  0.00    +0.093 C 
BRANCH  22  24
ATOM     23  C   LIG    1        4.362   2.427   1.614  0.00  0.00    +0.073 C 
ATOM     24  S   LIG    1        3.433   3.704   0.722  0.00  0.00    -0.209 S 
BRANCH  24  25
ATOM     25  C   LIG    1        3.539   5.158   1.800  0.00  0.00    +0.057 C 
BRANCH  25  26
ATOM     26  C   LIG    1        4.965   5.714   1.768  0.00  0.00    +0.005 C 
BRANCH  26  27
ATOM     27  CA  LIG    1        5.055   6.941   2.677  0.00  0.00    +0.036 C 
BRANCH  27  28
ATOM     28  N   LIG    1        4.830   6.558   4.082  0.00  0.00    +0.387 N 
ATOM     29  H1  LIG    1        4.927   7.388   4.678  0.00  0.00    -0.089 HD
ATOM     30  H2  LIG    1        5.516   5.861   4.368  0.00  0.00    -0.089 HD
ATOM     31  H3  LIG    1        3.892   6.176   4.195  0.00  0.00    -0.089 HD
ENDBRANCH  27  28
BRANCH  27  32
ATOM     32  C   LIG    1        6.423   7.560   2.552  0.00  0.00    +0.290 C 
ATOM     33  O   LIG    1        7.264   7.342   3.390  0.00  0.00    -0.253 OA
BRANCH  32  34
ATOM     34  OXT LIG    1        6.706   8.355   1.508  0.00  0.00    -0.482 OA
ATOM     35  HXT LIG    1        6.053   8.525   0.857  0.00  0.00    +0.295 HD
ENDBRANCH  32  34
ENDBRANCH  27  32
ENDBRANCH  26  27
ENDBRANCH  25  26
ENDBRANCH  24  25
ENDBRANCH  22  24
ENDBRANCH   1  22
TORSDOF 12
