REMARK  Name = ZINC13512456
REMARK                            x       y       z     vdW  Elec       q    Type
REMARK                         _______ _______ _______ _____ _____    ______ ____
ROOT
ATOM      1  C   LIG    1       -3.320  -2.204   0.607  0.00  0.00    +0.262 C 
ATOM      2  O   LIG    1       -4.215  -2.828   1.147  0.00  0.00    -0.269 OA
ATOM      3  N   LIG    1       -2.307  -2.861   0.009  0.00  0.00    -0.281 N 
ATOM      4  H   LIG    1       -1.630  -2.367  -0.479  0.00  0.00    +0.155 HD
ENDROOT
BRANCH   3   5
ATOM      5  C   LIG    1       -2.233  -4.255   0.091  0.00  0.00    +0.034 A 
ATOM      6  C   LIG    1       -0.996  -4.882   0.177  0.00  0.00    +0.024 A 
ATOM      7  C   LIG    1       -0.926  -6.259   0.258  0.00  0.00    +0.014 A 
ATOM      8  C   LIG    1       -2.085  -7.014   0.253  0.00  0.00    +0.055 A 
ATOM      9  C   LIG    1       -3.318  -6.393   0.166  0.00  0.00    +0.014 A 
ATOM     10  C   LIG    1       -3.395  -5.016   0.092  0.00  0.00    +0.024 A 
BRANCH   8  11
ATOM     11  C   LIG    1       -2.005  -8.516   0.341  0.00  0.00    +0.417 C 
ATOM     12  F   LIG    1       -0.813  -8.954  -0.247  0.00  0.00    -0.166 F 
ATOM     13  F   LIG    1       -3.092  -9.081  -0.334  0.00  0.00    -0.166 F 
ATOM     14  F   LIG    1       -2.034  -8.907   1.683  0.00  0.00    -0.166 F 
ENDBRANCH   8  11
ENDBRANCH   3   5
BRANCH   1  17
ATOM     15  C   LIG    1       -4.394   1.437   1.214  0.00  0.00    +0.087 C 
ATOM     16  C   LIG    1       -4.369  -0.070   1.213  0.00  0.00    +0.113 C 
ATOM     17  C   LIG    1       -3.344  -0.734   0.608  0.00  0.00    +0.150 C 
BRANCH  17  18
ATOM     18  C   LIG    1       -2.291  -0.001  -0.027  0.00  0.00    +0.108 C 
ATOM     19  N   LIG    1       -1.456   0.581  -0.531  0.00  0.00    -0.191 NA
ENDBRANCH  17  18
BRANCH  16  20
ATOM     20  O   LIG    1       -5.358  -0.758   1.809  0.00  0.00    -0.510 OA
ATOM     21  H   LIG    1       -6.062  -0.302   2.225  0.00  0.00    +0.292 HD
ENDBRANCH  16  20
ENDBRANCH   1  17
TORSDOF 5
