REMARK  Name = ZINC13470446
REMARK                            x       y       z     vdW  Elec       q    Type
REMARK                         _______ _______ _______ _____ _____    ______ ____
ROOT
ATOM      1  N   LIG    1        0.142  -1.717   4.018  0.00  0.00    -0.237 N 
ATOM      2  H   LIG    1        0.128  -0.958   3.413  0.00  0.00    +0.174 HD
ENDROOT
BRANCH   1  12
ATOM      3  C   LIG    1        1.025   1.412   0.029  0.00  0.00    +0.044 C 
ATOM      4  C   LIG    1        0.742  -0.068   0.015  0.00  0.00    -0.050 A 
ATOM      5  C   LIG    1        0.660  -0.746  -1.190  0.00  0.00    +0.005 A 
ATOM      6  C   LIG    1        0.401  -2.101  -1.219  0.00  0.00    +0.024 A 
ATOM      7  C   LIG    1        0.220  -2.802  -0.031  0.00  0.00    +0.043 A 
ATOM      8  C   LIG    1        0.305  -2.113   1.186  0.00  0.00    +0.028 A 
ATOM      9  C   LIG    1        0.072  -3.116   2.250  0.00  0.00    +0.152 C 
ATOM     10  C   LIG    1       -0.144  -4.386   1.537  0.00  0.00    +0.269 C 
ATOM     11  O   LIG    1       -0.370  -5.467   2.051  0.00  0.00    -0.268 OA
ATOM     12  N   LIG    1        0.059  -2.916   3.549  0.00  0.00    -0.177 NA
ATOM     13  N   LIG    1       -0.046  -4.143   0.219  0.00  0.00    -0.280 N 
ATOM     14  H   LIG    1       -0.149  -4.818  -0.470  0.00  0.00    +0.155 HD
ATOM     15  C   LIG    1        0.571  -0.749   1.204  0.00  0.00    +0.015 A 
ENDBRANCH   1  12
BRANCH   1  16
ATOM     16  C   LIG    1        0.251  -1.511   5.394  0.00  0.00    +0.048 A 
ATOM     17  C   LIG    1        0.276  -2.598   6.260  0.00  0.00    +0.026 A 
ATOM     18  C   LIG    1        0.384  -2.390   7.621  0.00  0.00    +0.030 A 
ATOM     19  C   LIG    1        0.467  -1.104   8.122  0.00  0.00    +0.105 A 
ATOM     20  C   LIG    1        0.442  -0.021   7.263  0.00  0.00    +0.030 A 
ATOM     21  C   LIG    1        0.340  -0.220   5.900  0.00  0.00    +0.026 A 
BRANCH  19  22
ATOM     22  S   LIG    1        0.605  -0.845   9.859  0.00  0.00    +0.056 S 
ATOM     23  O   LIG    1        0.057  -1.996  10.487  0.00  0.00    -0.153 OA
ATOM     24  O   LIG    1        0.118   0.466  10.114  0.00  0.00    -0.153 OA
BRANCH  22  25
ATOM     25  N   LIG    1        2.220  -0.829  10.225  0.00  0.00    -0.204 NA
ATOM     26  H   LIG    1        2.843  -1.349   9.694  0.00  0.00    +0.144 HD
ATOM     27  H   LIG    1        2.543  -0.299  10.971  0.00  0.00    +0.144 HD
ENDBRANCH  22  25
ENDBRANCH  19  22
ENDBRANCH   1  16
TORSDOF 4
