REMARK  Name = ZINC13517144
REMARK                            x       y       z     vdW  Elec       q    Type
REMARK                         _______ _______ _______ _____ _____    ______ ____
ROOT
ATOM      1  C   LIG    1       -0.013   1.086   0.008  0.00  0.00    +0.157 C 
ATOM      2  N   LIG    1       -0.721   1.571  -1.179  0.00  0.00    -0.262 N 
ATOM      3  C   LIG    1       -0.854   2.899  -1.377  0.00  0.00    +0.282 A 
ATOM      4  C   LIG    1       -1.538   3.360  -2.522  0.00  0.00    +0.149 A 
ATOM      5  C   LIG    1       -2.058   2.435  -3.418  0.00  0.00    +0.165 A 
ATOM      6  N   LIG    1       -1.888   1.085  -3.159  0.00  0.00    -0.291 N 
ATOM      7  H   LIG    1       -2.245   0.425  -3.774  0.00  0.00    +0.172 HD
ATOM      8  N   LIG    1       -2.647   3.122  -4.400  0.00  0.00    -0.218 NA
ATOM      9  C   LIG    1       -2.529   4.406  -4.175  0.00  0.00    +0.199 A 
ATOM     10  N   LIG    1       -1.852   4.606  -3.028  0.00  0.00    -0.339 N 
ATOM     11  H   LIG    1       -1.627   5.463  -2.632  0.00  0.00    +0.167 HD
ATOM     12  O   LIG    1       -0.389   3.691  -0.577  0.00  0.00    -0.265 OA
ATOM     13  C   LIG    1       -1.225   0.687  -2.057  0.00  0.00    +0.331 A 
ATOM     14  O   LIG    1       -1.081  -0.503  -1.848  0.00  0.00    -0.246 OA
ENDROOT
TORSDOF 0
