REMARK  Name = ZINC13283158
REMARK                            x       y       z     vdW  Elec       q    Type
REMARK                         _______ _______ _______ _____ _____    ______ ____
ROOT
ATOM      1  C   LIG    1        2.978  -2.512  -1.960  0.00  0.00    +0.001 A 
ATOM      2  C   LIG    1        3.371  -1.205  -1.724  0.00  0.00    +0.001 A 
ATOM      3  C   LIG    1        2.478  -0.291  -1.202  0.00  0.00    +0.009 A 
ATOM      4  C   LIG    1        1.172  -0.683  -0.915  0.00  0.00    -0.010 A 
ATOM      5  C   LIG    1        0.773  -2.010  -1.149  0.00  0.00    -0.010 A 
ATOM      6  C   LIG    1       -0.645  -2.154  -0.755  0.00  0.00    -0.010 A 
ATOM      7  C   LIG    1       -1.515  -3.243  -0.785  0.00  0.00    +0.009 A 
ATOM      8  C   LIG    1       -2.815  -3.099  -0.348  0.00  0.00    +0.001 A 
ATOM      9  C   LIG    1       -3.268  -1.877   0.124  0.00  0.00    +0.001 A 
ATOM     10  C   LIG    1       -2.422  -0.787   0.162  0.00  0.00    +0.009 A 
ATOM     11  C   LIG    1       -1.106  -0.915  -0.276  0.00  0.00    -0.010 A 
ATOM     12  C   LIG    1        0.014   0.046  -0.356  0.00  0.00    -0.009 C 
ATOM     13  C   LIG    1       -0.016   1.354   0.009  0.00  0.00    +0.018 C 
ATOM     14  C   LIG    1        1.690  -2.918  -1.677  0.00  0.00    +0.009 A 
ENDROOT
BRANCH  13  15
ATOM     15  C   LIG    1        1.235   2.118   0.114  0.00  0.00    -0.006 A 
ATOM     16  C   LIG    1        1.328   3.414  -0.417  0.00  0.00    +0.011 A 
ATOM     17  C   LIG    1        2.528   4.088  -0.291  0.00  0.00    +0.020 A 
ATOM     18  C   LIG    1        3.590   3.471   0.348  0.00  0.00    +0.111 A 
ATOM     19  N   LIG    1        3.475   2.251   0.838  0.00  0.00    -0.263 NA
ATOM     20  C   LIG    1        2.354   1.568   0.750  0.00  0.00    +0.118 A 
ENDBRANCH  13  15
TORSDOF 1
