REMARK  Name = ZINC13519257
REMARK                            x       y       z     vdW  Elec       q    Type
REMARK                         _______ _______ _______ _____ _____    ______ ____
ROOT
ATOM      1  C   LIG    1       -0.019   1.526   0.010  0.00  0.00    +0.177 C 
ATOM      2  C   LIG    1        1.417   2.055  -0.000  0.00  0.00    +0.177 C 
ATOM      3  C   LIG    1        2.157   1.548   1.239  0.00  0.00    +0.193 C 
ATOM      4  C   LIG    1        2.178   0.019   1.231  0.00  0.00    +0.194 C 
ATOM      5  C   LIG    1        0.742  -0.511   1.242  0.00  0.00    +0.194 C 
ATOM      6  C   LIG    1        0.002  -0.004   0.002  0.00  0.00    +0.193 C 
ENDROOT
BRANCH   2   7
ATOM      7  O   LIG    1        1.397   3.484   0.007  0.00  0.00    -0.386 OA
ATOM      8  H   LIG    1        0.943   3.876  -0.751  0.00  0.00    +0.210 HD
ENDBRANCH   2   7
BRANCH   1   9
ATOM      9  O   LIG    1       -0.688   1.987   1.186  0.00  0.00    -0.386 OA
ATOM     10  H   LIG    1       -0.738   2.950   1.258  0.00  0.00    +0.210 HD
ENDBRANCH   1   9
BRANCH   4  11
ATOM     11  O   LIG    1        2.869  -0.455   2.388  0.00  0.00    -0.278 OA
BRANCH  11  12
ATOM     12  P   LIG    1        4.194  -1.365   2.307  0.00  0.00    +0.473 P 
ATOM     13  O   LIG    1        3.907  -2.617   1.448  0.00  0.00    -0.228 OA
BRANCH  12  14
ATOM     14  O   LIG    1        5.339  -0.551   1.665  0.00  0.00    -0.303 OA
ATOM     15  H   LIG    1        5.080  -0.277   0.771  0.00  0.00    +0.222 HD
ENDBRANCH  12  14
BRANCH  12  16
ATOM     16  O   LIG    1        4.625  -1.820   3.791  0.00  0.00    -0.303 OA
ATOM     17  H   LIG    1        5.418  -2.372   3.818  0.00  0.00    +0.222 HD
ENDBRANCH  12  16
ENDBRANCH  11  12
ENDBRANCH   4  11
BRANCH   5  18
ATOM     18  O   LIG    1        0.761  -1.940   1.234  0.00  0.00    -0.278 OA
BRANCH  18  19
ATOM     19  P   LIG    1        0.110  -2.832   2.405  0.00  0.00    +0.473 P 
ATOM     20  O   LIG    1        0.715  -2.405   3.785  0.00  0.00    -0.228 OA
BRANCH  19  21
ATOM     21  O   LIG    1       -1.442  -2.614   2.425  0.00  0.00    -0.303 OA
ATOM     22  H   LIG    1       -1.635  -1.677   2.587  0.00  0.00    +0.222 HD
ENDBRANCH  19  21
BRANCH  19  23
ATOM     23  O   LIG    1        0.421  -4.345   2.143  0.00  0.00    -0.303 OA
ATOM     24  H   LIG    1        1.381  -4.480   2.130  0.00  0.00    +0.222 HD
ENDBRANCH  19  23
ENDBRANCH  18  19
ENDBRANCH   5  18
BRANCH   6  25
ATOM     25  O   LIG    1       -1.339  -0.499   0.012  0.00  0.00    -0.278 OA
BRANCH  25  26
ATOM     26  P   LIG    1       -1.939  -1.429  -1.157  0.00  0.00    +0.473 P 
ATOM     27  O   LIG    1       -1.759  -0.713  -2.538  0.00  0.00    -0.228 OA
BRANCH  26  28
ATOM     28  O   LIG    1       -1.179  -2.799  -1.175  0.00  0.00    -0.303 OA
ATOM     29  H   LIG    1       -0.235  -2.643  -1.339  0.00  0.00    +0.222 HD
ENDBRANCH  26  28
BRANCH  26  30
ATOM     30  O   LIG    1       -3.462  -1.681  -0.893  0.00  0.00    -0.303 OA
ATOM     31  H   LIG    1       -3.933  -0.833  -0.881  0.00  0.00    +0.222 HD
ENDBRANCH  26  30
ENDBRANCH  25  26
ENDBRANCH   6  25
BRANCH   3  32
ATOM     32  O   LIG    1        3.497   2.043   1.229  0.00  0.00    -0.278 OA
BRANCH  32  33
ATOM     33  P   LIG    1        4.098   2.974   2.398  0.00  0.00    +0.473 P 
ATOM     34  O   LIG    1        3.181   4.230   2.587  0.00  0.00    -0.228 OA
BRANCH  33  35
ATOM     35  O   LIG    1        4.153   2.161   3.736  0.00  0.00    -0.303 OA
ATOM     36  H   LIG    1        3.258   1.875   3.978  0.00  0.00    +0.222 HD
ENDBRANCH  33  35
BRANCH  33  37
ATOM     37  O   LIG    1        5.543   3.436   2.007  0.00  0.00    -0.303 OA
ATOM     38  H   LIG    1        5.509   3.939   1.179  0.00  0.00    +0.222 HD
ENDBRANCH  33  37
ENDBRANCH  32  33
ENDBRANCH   3  32
TORSDOF 18
