REMARK  Name = ZINC13298439
REMARK                            x       y       z     vdW  Elec       q    Type
REMARK                         _______ _______ _______ _____ _____    ______ ____
ROOT
ATOM      1  C   LIG    1       -2.532  -3.965  -2.964  0.00  0.00    -0.028 A 
ATOM      2  C   LIG    1       -1.170  -4.158  -2.821  0.00  0.00    +0.006 A 
ATOM      3  C   LIG    1       -0.585  -5.326  -3.268  0.00  0.00    +0.009 A 
ATOM      4  C   LIG    1       -1.371  -6.311  -3.865  0.00  0.00    -0.017 A 
ATOM      5  C   LIG    1       -2.743  -6.111  -4.006  0.00  0.00    +0.009 A 
ATOM      6  C   LIG    1       -3.317  -4.942  -3.550  0.00  0.00    +0.006 A 
ENDROOT
BRANCH   4   7
ATOM      7  C   LIG    1       -0.749  -7.567  -4.348  0.00  0.00    -0.007 A 
ATOM      8  C   LIG    1        0.382  -7.522  -5.159  0.00  0.00    +0.009 A 
ATOM      9  C   LIG    1        0.958  -8.693  -5.607  0.00  0.00    +0.001 A 
ATOM     10  C   LIG    1        0.418  -9.919  -5.254  0.00  0.00    +0.001 A 
ATOM     11  C   LIG    1       -0.702  -9.983  -4.450  0.00  0.00    +0.012 A 
ATOM     12  C   LIG    1       -1.293  -8.810  -3.984  0.00  0.00    +0.028 A 
BRANCH  12  13
ATOM     13  C   LIG    1       -2.490  -8.874  -3.118  0.00  0.00    +0.180 A 
ATOM     14  N   LIG    1       -3.164  -7.840  -2.611  0.00  0.00    -0.239 N 
ATOM     15  H   LIG    1       -2.956  -6.887  -2.744  0.00  0.00    +0.192 HD
ATOM     16  N   LIG    1       -4.138  -8.317  -1.914  0.00  0.00    -0.046 NA
ATOM     17  N   LIG    1       -4.104  -9.603  -1.962  0.00  0.00    -0.023 NA
ATOM     18  N   LIG    1       -3.112  -9.976  -2.695  0.00  0.00    -0.108 NA
ENDBRANCH  12  13
ENDBRANCH   4   7
BRANCH   1  19
ATOM     19  C   LIG    1       -3.164  -2.688  -2.473  0.00  0.00    +0.158 C 
BRANCH  19  25
ATOM     20  C   LIG    1       -2.826  -2.585   0.015  0.00  0.00    +0.112 A 
ATOM     21  N   LIG    1       -3.532  -2.849   1.081  0.00  0.00    -0.220 NA
ATOM     22  C   LIG    1       -4.742  -3.293   0.713  0.00  0.00    +0.153 A 
ATOM     23 CL   LIG    1       -6.024  -3.770   1.782  0.00  0.00    -0.060 Cl
ATOM     24  C   LIG    1       -4.789  -3.306  -0.634  0.00  0.00    +0.083 A 
ATOM     25  N   LIG    1       -3.575  -2.852  -1.077  0.00  0.00    -0.324 N 
BRANCH  20  26
ATOM     26  C   LIG    1       -1.413  -2.063   0.004  0.00  0.00    +0.074 C 
BRANCH  26  27
ATOM     27  C   LIG    1       -1.433  -0.534   0.013  0.00  0.00    +0.007 C 
BRANCH  27  29
ATOM     28  C   LIG    1       -0.019   1.526   0.010  0.00  0.00    +0.004 C 
ATOM     29  C   LIG    1        0.002  -0.004   0.002  0.00  0.00    -0.003 C 
ENDBRANCH  27  29
ENDBRANCH  26  27
ENDBRANCH  20  26
BRANCH  24  30
ATOM     30  C   LIG    1       -5.955  -3.733  -1.489  0.00  0.00    +0.212 C 
BRANCH  30  31
ATOM     31  O   LIG    1       -5.857  -5.132  -1.763  0.00  0.00    -0.389 OA
ATOM     32  H   LIG    1       -6.576  -5.477  -2.310  0.00  0.00    +0.210 HD
ENDBRANCH  30  31
ENDBRANCH  24  30
ENDBRANCH  19  25
ENDBRANCH   1  19
TORSDOF 9
