REMARK  Name = ZINC13137348
REMARK                            x       y       z     vdW  Elec       q    Type
REMARK                         _______ _______ _______ _____ _____    ______ ____
ROOT
ATOM      1  C   LIG    1       -0.352   1.069   0.534  0.00  0.00    +0.001 A 
ATOM      2  C   LIG    1        0.737   1.897   0.311  0.00  0.00    +0.004 A 
ATOM      3  C   LIG    1        1.986   1.366   0.065  0.00  0.00    +0.046 A 
ATOM      4  C   LIG    1        2.169  -0.012   0.041  0.00  0.00    +0.132 A 
ATOM      5  C   LIG    1        1.067  -0.845   0.278  0.00  0.00    +0.064 A 
ATOM      6  C   LIG    1        1.263  -2.317   0.285  0.00  0.00    +0.196 C 
ATOM      7  C   LIG    1        2.607  -2.766  -0.143  0.00  0.00    +0.038 C 
ATOM      8  C   LIG    1        3.740  -1.824   0.227  0.00  0.00    +0.268 C 
ATOM      9  C   LIG    1        2.811  -3.923  -0.812  0.00  0.00    +0.018 C 
ATOM     10  O   LIG    1        0.386  -3.094   0.618  0.00  0.00    -0.287 OA
ATOM     11  O   LIG    1        3.399  -0.512  -0.220  0.00  0.00    -0.487 OA
ATOM     12  C   LIG    1       -0.192  -0.300   0.518  0.00  0.00    +0.015 A 
ENDROOT
BRANCH   9  13
ATOM     13  C   LIG    1        4.179  -4.399  -1.058  0.00  0.00    -0.022 A 
ATOM     14  C   LIG    1        5.187  -4.154  -0.117  0.00  0.00    +0.011 A 
ATOM     15  C   LIG    1        6.467  -4.603  -0.352  0.00  0.00    +0.048 A 
ATOM     16  C   LIG    1        6.760  -5.297  -1.520  0.00  0.00    +0.147 A 
ATOM     17  C   LIG    1        5.762  -5.543  -2.457  0.00  0.00    +0.163 A 
ATOM     18  C   LIG    1        4.478  -5.104  -2.230  0.00  0.00    +0.044 A 
BRANCH  16  19
ATOM     19  O   LIG    1        8.024  -5.737  -1.748  0.00  0.00    -0.504 OA
ATOM     20  H   LIG    1        8.198  -6.625  -1.409  0.00  0.00    +0.292 HD
ENDBRANCH  16  19
BRANCH  17  21
ATOM     21  N   LIG    1        6.081  -6.282  -3.699  0.00  0.00    +0.010 N 
ATOM     22  O   LIG    1        5.215  -6.496  -4.515  0.00  0.00    -0.130 OA
BRANCH  21  23
ATOM     23  O   LIG    1        7.208  -6.672  -3.898  0.00  0.00    -0.396 OA
ATOM     24  H   LIG    1        7.880  -6.506  -3.266  0.00  0.00    +0.329 HD
ENDBRANCH  21  23
ENDBRANCH  17  21
ENDBRANCH   9  13
TORSDOF 4
