REMARK  Name = ZINC13234187
REMARK                            x       y       z     vdW  Elec       q    Type
REMARK                         _______ _______ _______ _____ _____    ______ ____
ROOT
ATOM      1  C   LIG    1        2.106  -3.549  -0.045  0.00  0.00    +0.220 A 
ATOM      2  N   LIG    1        2.557  -4.013   1.105  0.00  0.00    -0.214 NA
ATOM      3  C   LIG    1        3.489  -4.976   1.129  0.00  0.00    +0.078 A 
ATOM      4  C   LIG    1        3.990  -5.493   2.332  0.00  0.00    +0.028 A 
ATOM      5  C   LIG    1        4.938  -6.473   2.301  0.00  0.00    +0.002 A 
ATOM      6  C   LIG    1        5.416  -6.970   1.092  0.00  0.00    +0.001 A 
ATOM      7  C   LIG    1        4.950  -6.490  -0.096  0.00  0.00    +0.013 A 
ATOM      8  C   LIG    1        3.977  -5.484  -0.100  0.00  0.00    +0.040 A 
ATOM      9  C   LIG    1        3.456  -4.948  -1.303  0.00  0.00    +0.129 A 
ATOM     10  N   LIG    1        2.533  -4.000  -1.221  0.00  0.00    -0.199 NA
ENDROOT
BRANCH   1  16
ATOM     11  C   LIG    1       -0.018   1.465   0.010  0.00  0.00    -0.096 C 
ATOM     12  N   LIG    1        0.002  -0.004   0.002  0.00  0.00    +0.380 N 
ATOM     13  H   LIG    1       -0.945  -0.352   0.012  0.00  0.00    -0.082 HD
ATOM     14  C   LIG    1        0.680  -0.476  -1.212  0.00  0.00    -0.060 C 
ATOM     15  C   LIG    1        0.601  -2.005  -1.279  0.00  0.00    +0.089 C 
ATOM     16  N   LIG    1        1.144  -2.555  -0.027  0.00  0.00    -0.303 N 
ATOM     17  C   LIG    1        0.635  -2.018   1.245  0.00  0.00    +0.089 C 
ATOM     18  C   LIG    1        0.713  -0.489   1.192  0.00  0.00    -0.060 C 
ENDBRANCH   1  16
BRANCH   9  19
ATOM     19  N   LIG    1        3.893  -5.403  -2.528  0.00  0.00    -0.343 N 
ATOM     20  H   LIG    1        3.528  -5.027  -3.345  0.00  0.00    +0.144 HD
ATOM     21  H   LIG    1        4.567  -6.100  -2.574  0.00  0.00    +0.144 HD
ENDBRANCH   9  19
TORSDOF 2
