REMARK  Name = ZINC13366568
REMARK                            x       y       z     vdW  Elec       q    Type
REMARK                         _______ _______ _______ _____ _____    ______ ____
ROOT
ATOM      1  C   LIG    1        0.103  -7.630   1.389  0.00  0.00    +0.264 C 
ATOM      2  N   LIG    1        0.016  -8.819   0.760  0.00  0.00    -0.293 N 
ATOM      3  C   LIG    1        0.021  -8.890  -0.708  0.00  0.00    +0.127 C 
ATOM      4  C   LIG    1        1.149  -9.831  -1.149  0.00  0.00    +0.124 C 
ATOM      5  N   LIG    1        1.048 -11.079  -0.379  0.00  0.00    -0.324 N 
ATOM      6  C   LIG    1        1.043 -11.007   1.089  0.00  0.00    +0.124 C 
ATOM      7  C   LIG    1       -0.080 -10.067   1.530  0.00  0.00    +0.127 C 
ATOM      8  O   LIG    1        0.227  -7.589   2.598  0.00  0.00    -0.268 OA
ENDROOT
BRANCH   1  11
ATOM      9  C   LIG    1        0.254  -4.286  -0.082  0.00  0.00    +0.093 A 
ATOM     10  C   LIG    1        0.556  -5.152   0.985  0.00  0.00    +0.062 A 
ATOM     11  C   LIG    1        0.046  -6.381   0.612  0.00  0.00    +0.121 A 
ATOM     12  N   LIG    1       -0.520  -6.208  -0.619  0.00  0.00    -0.272 N 
ATOM     13  H   LIG    1       -0.960  -6.903  -1.133  0.00  0.00    +0.189 HD
ATOM     14  N   LIG    1       -0.389  -4.986  -0.992  0.00  0.00    -0.173 NA
BRANCH   9  19
ATOM     15  C   LIG    1        1.571   1.313  -0.398  0.00  0.00    +0.044 C 
ATOM     16  C   LIG    1        1.227  -0.152  -0.316  0.00  0.00    -0.050 A 
ATOM     17  C   LIG    1        0.544  -0.759  -1.354  0.00  0.00    +0.004 A 
ATOM     18  C   LIG    1        0.226  -2.100  -1.284  0.00  0.00    +0.010 A 
ATOM     19  C   LIG    1        0.594  -2.843  -0.164  0.00  0.00    +0.002 A 
ATOM     20  C   LIG    1        1.281  -2.227   0.879  0.00  0.00    +0.010 A 
ATOM     21  C   LIG    1        1.599  -0.886   0.796  0.00  0.00    +0.004 A 
ENDBRANCH   9  19
ENDBRANCH   1  11
BRANCH   5  22
ATOM     22  C   LIG    1        0.958 -12.313  -1.032  0.00  0.00    +0.072 A 
ATOM     23  C   LIG    1        2.110 -13.021  -1.343  0.00  0.00    +0.027 A 
ATOM     24  C   LIG    1        2.018 -14.241  -1.988  0.00  0.00    +0.002 A 
ATOM     25  C   LIG    1        0.781 -14.757  -2.324  0.00  0.00    +0.004 A 
ATOM     26  C   LIG    1       -0.371 -14.057  -2.017  0.00  0.00    +0.047 A 
ATOM     27  C   LIG    1       -0.288 -12.837  -1.366  0.00  0.00    +0.141 A 
BRANCH  27  28
ATOM     28  O   LIG    1       -1.421 -12.150  -1.059  0.00  0.00    -0.493 OA
ATOM     29  C   LIG    1       -2.664 -12.748  -1.432  0.00  0.00    +0.277 C 
ENDBRANCH  27  28
ENDBRANCH   5  22
TORSDOF 4
