REMARK  Name = ZINC13298313
REMARK                            x       y       z     vdW  Elec       q    Type
REMARK                         _______ _______ _______ _____ _____    ______ ____
ROOT
ATOM      1  C   LIG    1       -0.016   1.300   0.009  0.00  0.00    +0.149 A 
ATOM      2  C   LIG    1        1.314   1.761  -0.001  0.00  0.00    +0.103 A 
ATOM      3  C   LIG    1        2.147   0.630  -0.015  0.00  0.00    +0.163 A 
ATOM      4  N   LIG    1        3.478   0.799  -0.026  0.00  0.00    -0.218 NA
ATOM      5  C   LIG    1        4.021   1.981  -0.025  0.00  0.00    +0.201 A 
ATOM      6  N   LIG    1        3.297   3.128  -0.011  0.00  0.00    -0.313 N 
ATOM      7  H   LIG    1        3.751   3.985  -0.011  0.00  0.00    +0.170 HD
ATOM      8  N   LIG    1        1.328  -0.454  -0.013  0.00  0.00    -0.260 N 
ATOM      9  H   LIG    1        1.614  -1.381  -0.021  0.00  0.00    +0.191 HD
ATOM     10  C   LIG    1        1.944   3.081   0.000  0.00  0.00    +0.262 A 
ATOM     11  O   LIG    1        1.277   4.100   0.012  0.00  0.00    -0.267 OA
ATOM     12  N   LIG    1        0.002  -0.004   0.002  0.00  0.00    -0.180 NA
ENDROOT
TORSDOF 0
