REMARK  Name = ZINC13467527
REMARK                            x       y       z     vdW  Elec       q    Type
REMARK                         _______ _______ _______ _____ _____    ______ ____
ROOT
ATOM      1  C   LIG    1        3.481   3.543  -0.709  0.00  0.00    +0.393 C 
ATOM      2  N   LIG    1        4.527   4.234  -1.060  0.00  0.00    -0.129 NA
ATOM      3  H   LIG    1        5.303   3.785  -1.430  0.00  0.00    +0.306 HD
ENDROOT
BRANCH   1   4
ATOM      4  N   LIG    1        3.513   2.169  -0.766  0.00  0.00    -0.242 N 
ATOM      5  H   LIG    1        4.332   1.713  -1.016  0.00  0.00    +0.265 HD
BRANCH   4   8
ATOM      6  C   LIG    1        1.231  -0.175   0.914  0.00  0.00    +0.005 A 
ATOM      7  C   LIG    1        2.366   0.554   0.616  0.00  0.00    +0.044 A 
ATOM      8  C   LIG    1        2.365   1.429  -0.462  0.00  0.00    +0.120 A 
ATOM      9  C   LIG    1        1.221   1.569  -1.239  0.00  0.00    +0.098 A 
ATOM     10 CL   LIG    1        1.214   2.661  -2.588  0.00  0.00    -0.078 Cl
ATOM     11  C   LIG    1        0.088   0.836  -0.936  0.00  0.00    +0.063 A 
ATOM     12 CL   LIG    1       -1.342   1.009  -1.905  0.00  0.00    -0.082 Cl
ATOM     13  C   LIG    1        0.094  -0.035   0.140  0.00  0.00    +0.022 A 
ENDBRANCH   4   8
ENDBRANCH   1   4
BRANCH   1  14
ATOM     14  N   LIG    1        2.339   4.190  -0.280  0.00  0.00    -0.189 N 
ATOM     15  H   LIG    1        1.530   3.683  -0.108  0.00  0.00    +0.271 HD
BRANCH  14  16
ATOM     16  C   LIG    1        2.349   5.551  -0.095  0.00  0.00    +0.350 C 
ATOM     17  N   LIG    1        1.218   6.191   0.191  0.00  0.00    -0.291 N 
ATOM     18  H   LIG    1        1.224   7.153   0.321  0.00  0.00    +0.255 HD
ATOM     19  H   LIG    1        0.387   5.697   0.270  0.00  0.00    +0.255 HD
BRANCH  16  20
ATOM     20  N   LIG    1        3.489   6.229  -0.203  0.00  0.00    -0.291 N 
ATOM     21  H   LIG    1        3.487   7.196  -0.125  0.00  0.00    +0.255 HD
ATOM     22  H   LIG    1        4.321   5.756  -0.360  0.00  0.00    +0.255 HD
ENDBRANCH  16  20
ENDBRANCH  14  16
ENDBRANCH   1  14
TORSDOF 5
