REMARK  Name = ZINC13522357
REMARK                            x       y       z     vdW  Elec       q    Type
REMARK                         _______ _______ _______ _____ _____    ______ ____
ROOT
ATOM      1  C   LIG    1       -3.524   2.158  -0.021  0.00  0.00    +0.161 C 
ATOM      2  C   LIG    1       -3.102   2.930  -1.285  0.00  0.00    +0.177 C 
ATOM      3  C   LIG    1       -1.587   2.637  -1.421  0.00  0.00    +0.195 C 
ATOM      4  C   LIG    1       -1.209   2.210   0.020  0.00  0.00    +0.253 C 
ATOM      5  O   LIG    1       -2.362   1.463   0.464  0.00  0.00    -0.347 OA
ENDROOT
BRANCH   4   6
ATOM      6  N   LIG    1       -0.016   1.359   0.009  0.00  0.00    -0.286 N 
ATOM      7  C   LIG    1        0.002  -0.004   0.002  0.00  0.00    +0.203 A 
ATOM      8  N   LIG    1        1.231  -0.432  -0.012  0.00  0.00    -0.231 NA
ATOM      9  C   LIG    1        2.077   0.626  -0.014  0.00  0.00    +0.147 A 
ATOM     10  C   LIG    1        3.474   0.774  -0.027  0.00  0.00    +0.147 A 
ATOM     11  N   LIG    1        3.981   2.003  -0.025  0.00  0.00    -0.219 NA
ATOM     12  C   LIG    1        3.197   3.066  -0.012  0.00  0.00    +0.225 A 
ATOM     13  N   LIG    1        1.884   2.975   0.000  0.00  0.00    -0.216 NA
ATOM     14  C   LIG    1        1.287   1.788  -0.001  0.00  0.00    +0.167 A 
BRANCH  10  15
ATOM     15  N   LIG    1        4.303  -0.334  -0.041  0.00  0.00    -0.341 N 
ATOM     16  H   LIG    1        5.267  -0.218  -0.050  0.00  0.00    +0.144 HD
ATOM     17  H   LIG    1        4.134  -0.888   0.774  0.00  0.00    +0.144 HD
ENDBRANCH  10  15
ENDBRANCH   4   6
BRANCH   2  18
ATOM     18  O   LIG    1       -3.327   4.331  -1.115  0.00  0.00    -0.386 OA
ATOM     19  H   LIG    1       -3.025   4.871  -1.858  0.00  0.00    +0.210 HD
ENDBRANCH   2  18
BRANCH   3  20
ATOM     20  O   LIG    1       -0.873   3.812  -1.808  0.00  0.00    -0.385 OA
ATOM     21  H   LIG    1       -1.076   4.119  -2.703  0.00  0.00    +0.210 HD
ENDBRANCH   3  20
BRANCH   1  22
ATOM     22  C   LIG    1       -4.624   1.153  -0.367  0.00  0.00    +0.093 C 
BRANCH  22  24
ATOM     23  C   LIG    1       -6.144   1.663   1.999  0.00  0.00    +0.073 C 
ATOM     24  S   LIG    1       -5.216   0.356   1.151  0.00  0.00    -0.209 S 
BRANCH  24  25
ATOM     25  C   LIG    1       -6.498  -0.790   0.574  0.00  0.00    +0.057 C 
BRANCH  25  26
ATOM     26  C   LIG    1       -7.090  -1.538   1.770  0.00  0.00    +0.005 C 
BRANCH  26  27
ATOM     27  CA  LIG    1       -8.171  -2.505   1.284  0.00  0.00    +0.036 C 
BRANCH  27  28
ATOM     28  N   LIG    1       -7.549  -3.526   0.423  0.00  0.00    +0.387 N 
ATOM     29  H1  LIG    1       -7.073  -3.063  -0.360  0.00  0.00    -0.089 HD
ATOM     30  H2  LIG    1       -8.261  -4.154   0.055  0.00  0.00    -0.089 HD
ATOM     31  H3  LIG    1       -6.867  -4.063   0.956  0.00  0.00    -0.089 HD
ENDBRANCH  27  28
BRANCH  27  32
ATOM     32  C   LIG    1       -8.838  -3.151   2.470  0.00  0.00    +0.290 C 
ATOM     33  O   LIG    1       -8.521  -4.267   2.808  0.00  0.00    -0.253 OA
BRANCH  32  34
ATOM     34  OXT LIG    1       -9.785  -2.487   3.152  0.00  0.00    -0.482 OA
ATOM     35  HXT LIG    1      -10.031  -1.622   2.890  0.00  0.00    +0.295 HD
ENDBRANCH  32  34
ENDBRANCH  27  32
ENDBRANCH  26  27
ENDBRANCH  25  26
ENDBRANCH  24  25
ENDBRANCH  22  24
ENDBRANCH   1  22
TORSDOF 12
