REMARK  Name = ZINC13554068
REMARK                            x       y       z     vdW  Elec       q    Type
REMARK                         _______ _______ _______ _____ _____    ______ ____
ROOT
ATOM      1  C   LIG    1       -2.543   8.027   0.067  0.00  0.00    +0.003 C 
ENDROOT
BRANCH   1   2
ATOM      2  C   LIG    1       -1.171   7.351   0.050  0.00  0.00    +0.041 C 
BRANCH   2   3
ATOM      3  C   LIG    1       -1.350   5.832   0.045  0.00  0.00    +0.229 C 
BRANCH   3   4
ATOM      4  O   LIG    1       -0.069   5.201   0.029  0.00  0.00    -0.492 OA
BRANCH   4   8
ATOM      5  C   LIG    1       -0.013   1.076   0.008  0.00  0.00    +0.000 A 
ATOM      6  C   LIG    1       -1.220   1.750   0.017  0.00  0.00    +0.004 A 
ATOM      7  C   LIG    1       -1.241   3.131   0.031  0.00  0.00    +0.045 A 
ATOM      8  C   LIG    1       -0.050   3.842   0.023  0.00  0.00    +0.120 A 
ATOM      9  C   LIG    1        1.160   3.163   0.007  0.00  0.00    +0.045 A 
ATOM     10  C   LIG    1        1.176   1.782   0.000  0.00  0.00    +0.004 A 
ENDBRANCH   4   8
ENDBRANCH   3   4
ENDBRANCH   2   3
ENDBRANCH   1   2
BRANCH   1  11
ATOM     11  C   LIG    1       -2.363   9.547   0.072  0.00  0.00    +0.001 C 
BRANCH  11  12
ATOM     12  C   LIG    1       -3.736  10.223   0.089  0.00  0.00    +0.009 C 
BRANCH  12  13
ATOM     13  C   LIG    1       -3.556  11.742   0.095  0.00  0.00    +0.098 C 
BRANCH  13  14
ATOM     14  C   LIG    1       -4.908  12.408   0.111  0.00  0.00    +0.235 C 
ATOM     15  N   LIG    1       -4.996  13.753   0.118  0.00  0.00    -0.197 N 
ATOM     16  H   LIG    1       -4.190  14.292   0.113  0.00  0.00    +0.182 HD
ATOM     17  O   LIG    1       -5.916  11.734   0.118  0.00  0.00    -0.274 OA
BRANCH  15  18
ATOM     18  O   LIG    1       -6.267  14.379   0.134  0.00  0.00    -0.295 OA
ATOM     19  H   LIG    1       -6.229  15.345   0.138  0.00  0.00    +0.241 HD
ENDBRANCH  15  18
ENDBRANCH  13  14
ENDBRANCH  12  13
ENDBRANCH  11  12
ENDBRANCH   1  11
TORSDOF 9
