REMARK  Name = ZINC13282980
REMARK                            x       y       z     vdW  Elec       q    Type
REMARK                         _______ _______ _______ _____ _____    ______ ____
ROOT
ATOM      1  C   LIG    1       -5.632   1.200   0.456  0.00  0.00    +0.046 C 
ATOM      2  C   LIG    1       -4.816   2.467   0.461  0.00  0.00    -0.019 A 
ATOM      3  C   LIG    1       -5.439   3.705   0.274  0.00  0.00    -0.010 A 
ATOM      4  C   LIG    1       -6.831   3.812   0.076  0.00  0.00    +0.028 A 
ATOM      5  C   LIG    1       -7.378   5.047  -0.100  0.00  0.00    +0.112 A 
ATOM      6  N   LIG    1       -6.643   6.149  -0.092  0.00  0.00    -0.254 NA
ATOM      7  C   LIG    1       -5.334   6.133   0.086  0.00  0.00    +0.079 A 
ATOM      8  C   LIG    1       -4.668   4.898   0.279  0.00  0.00    +0.009 A 
ATOM      9  C   LIG    1       -3.287   4.830   0.472  0.00  0.00    +0.021 A 
ATOM     10  C   LIG    1       -2.683   3.599   0.656  0.00  0.00    +0.008 A 
ATOM     11  C   LIG    1       -1.283   3.189   0.881  0.00  0.00    +0.007 A 
ATOM     12  C   LIG    1       -0.086   3.894   0.986  0.00  0.00    +0.010 A 
ATOM     13  C   LIG    1        1.093   3.213   1.203  0.00  0.00    +0.001 A 
ATOM     14  C   LIG    1        1.090   1.832   1.318  0.00  0.00    +0.002 A 
ATOM     15  C   LIG    1       -0.088   1.123   1.216  0.00  0.00    +0.026 A 
ATOM     16  C   LIG    1       -1.287   1.791   0.991  0.00  0.00    +0.047 A 
ATOM     17  N   LIG    1       -2.591   1.343   0.858  0.00  0.00    -0.354 N 
ATOM     18  H   LIG    1       -2.863   0.413   0.898  0.00  0.00    +0.166 HD
ATOM     19  C   LIG    1       -3.448   2.410   0.651  0.00  0.00    +0.051 A 
ENDROOT
BRANCH   7  20
ATOM     20  C   LIG    1       -4.567   7.399   0.085  0.00  0.00    +0.001 A 
ATOM     21  C   LIG    1       -5.046   8.508   0.783  0.00  0.00    +0.010 A 
ATOM     22  C   LIG    1       -4.323   9.684   0.783  0.00  0.00    +0.001 A 
ATOM     23  C   LIG    1       -3.133   9.768   0.083  0.00  0.00    +0.000 A 
ATOM     24  C   LIG    1       -2.656   8.673  -0.615  0.00  0.00    +0.001 A 
ATOM     25  C   LIG    1       -3.366   7.490  -0.618  0.00  0.00    +0.010 A 
ENDBRANCH   7  20
TORSDOF 1
