REMARK  Name = ZINC13545968
REMARK                            x       y       z     vdW  Elec       q    Type
REMARK                         _______ _______ _______ _____ _____    ______ ____
ROOT
ATOM      1  C   UNK A  1       -0.644   1.238  -0.706  0.00  0.00    +0.020 C 
ATOM      2  C   UNK A  1       -0.337  -0.234  -0.423  0.00  0.00    +0.103 C 
ATOM      3  C   UNK A  1       -1.643  -1.058  -0.357  0.00  0.00    +0.160 C 
ATOM      4  C   UNK A  1       -1.320  -2.073   0.761  0.00  0.00    +0.156 C 
ATOM      5  N   UNK A  1       -0.302  -1.426   1.596  0.00  0.00    -0.298 N 
ATOM      6  H   UNK A  1       -0.071  -1.707   2.495  0.00  0.00    +0.150 HD
ATOM      7  C   UNK A  1        0.274  -0.392   0.952  0.00  0.00    +0.219 C 
ATOM      8  O   UNK A  1        1.153   0.310   1.407  0.00  0.00    -0.275 OA
ENDROOT
BRANCH   3   9
ATOM      9  O   UNK A  1       -2.751  -0.231   0.006  0.00  0.00    -0.388 OA
ATOM     10  H   UNK A  1       -2.932   0.482  -0.622  0.00  0.00    +0.210 HD
ENDBRANCH   3   9
BRANCH   4  11
ATOM     11  C   UNK A  1       -2.555  -2.363   1.575  0.00  0.00    +0.218 C 
ATOM     12  O   UNK A  1       -3.301  -3.261   1.247  0.00  0.00    -0.283 OA
BRANCH  11  13
ATOM     13  S   UNK A  1       -2.894  -1.452   2.921  0.00  0.00    -0.083 S 
BRANCH  13  14
ATOM     14  C   UNK A  1       -4.441  -2.159   3.551  0.00  0.00    +0.111 C 
BRANCH  14  15
ATOM     15  C   UNK A  1       -4.872  -1.402   4.809  0.00  0.00    +0.192 C 
BRANCH  15  16
ATOM     16  N   UNK A  1       -3.830  -1.519   5.832  0.00  0.00    -0.302 N 
ATOM     17  H   UNK A  1       -3.220  -2.273   5.818  0.00  0.00    +0.150 HD
ATOM     18  C   UNK A  0       -3.718  -0.579   6.791  0.00  0.00    +0.211 C 
ATOM     19  C   UNK A  0       -2.645  -0.699   7.842  0.00  0.00    +0.109 C 
ATOM     20  O   UNK A  0       -4.480   0.364   6.807  0.00  0.00    -0.276 OA
ENDBRANCH  15  16
BRANCH  15  21
ATOM     21  C   UNK A  1       -6.158  -1.989   5.333  0.00  0.00    +0.326 C 
ATOM     22  O   UNK A  1       -6.126  -2.902   6.140  0.00  0.00    -0.249 OA
BRANCH  21  23
ATOM     23  O   UNK A  1       -7.229  -1.551   4.949  0.00  0.00    -0.479 OA
ATOM     24  H   UNK A  1       -7.253  -0.850   4.328  0.00  0.00    +0.295 HD
ENDBRANCH  21  23
ENDBRANCH  15  21
ENDBRANCH  14  15
ENDBRANCH  13  14
ENDBRANCH  11  13
ENDBRANCH   4  11
BRANCH   4  25
ATOM     25  C   UNK A  1       -0.767  -3.366   0.158  0.00  0.00    +0.151 C 
BRANCH  25  26
ATOM     26  C   UNK A  1       -0.254  -4.273   1.279  0.00  0.00    +0.014 C 
ATOM     27  C   UNK A  1        0.456  -5.484   0.671  0.00  0.00    +0.010 C 
ATOM     28  C   UNK A  1       -1.433  -4.747   2.131  0.00  0.00    +0.010 C 
ENDBRANCH  25  26
BRANCH  25  29
ATOM     29  O   UNK A  1        0.306  -3.056  -0.732  0.00  0.00    -0.389 OA
ATOM     30  H   UNK A  1        1.047  -2.598  -0.311  0.00  0.00    +0.210 HD
ENDBRANCH  25  29
ENDBRANCH   4  25
TORSDOF 11
