REMARK  Name = ZINC13508995
REMARK                            x       y       z     vdW  Elec       q    Type
REMARK                         _______ _______ _______ _____ _____    ______ ____
ROOT
ATOM      1  C   LIG    1        0.596  -3.135  -0.019  0.00  0.00    +0.253 C 
ATOM      2  C   LIG    1        0.209  -3.518  -1.465  0.00  0.00    +0.195 C 
ATOM      3  C   LIG    1        0.137  -5.061  -1.438  0.00  0.00    +0.178 C 
ATOM      4  C   LIG    1        0.488  -5.428   0.022  0.00  0.00    +0.178 C 
ATOM      5  O   LIG    1        1.256  -4.305   0.509  0.00  0.00    -0.346 OA
ENDROOT
BRANCH   1  11
ATOM      6  C   LIG    1       -0.016   1.312   0.009  0.00  0.00    +0.225 A 
ATOM      7  N   LIG    1        1.089   2.036   0.003  0.00  0.00    -0.219 NA
ATOM      8  C   LIG    1        2.288   1.462  -0.012  0.00  0.00    +0.147 A 
ATOM      9  C   LIG    1        2.358   0.059  -0.020  0.00  0.00    +0.147 A 
ATOM     10  C   LIG    1        1.155  -0.666  -0.013  0.00  0.00    +0.167 A 
ATOM     11  N   LIG    1        1.511  -1.991  -0.023  0.00  0.00    -0.286 N 
ATOM     12  C   LIG    1        2.873  -2.048  -0.036  0.00  0.00    +0.203 A 
ATOM     13  N   LIG    1        3.368  -0.844  -0.034  0.00  0.00    -0.231 NA
ATOM     14  N   LIG    1        0.002  -0.004   0.002  0.00  0.00    -0.216 NA
BRANCH   8  15
ATOM     15  N   LIG    1        3.439   2.229  -0.019  0.00  0.00    -0.341 N 
ATOM     16  H   LIG    1        4.309   1.799  -0.030  0.00  0.00    +0.144 HD
ATOM     17  H   LIG    1        3.377   3.197  -0.014  0.00  0.00    +0.144 HD
ENDBRANCH   8  15
ENDBRANCH   1  11
BRANCH   2  18
ATOM     18  O   LIG    1       -1.061  -2.961  -1.809  0.00  0.00    -0.385 OA
ATOM     19  H   LIG    1       -1.353  -3.171  -2.707  0.00  0.00    +0.210 HD
ENDBRANCH   2  18
BRANCH   3  20
ATOM     20  O   LIG    1       -1.181  -5.507  -1.765  0.00  0.00    -0.386 OA
ATOM     21  H   LIG    1       -1.473  -5.251  -2.651  0.00  0.00    +0.210 HD
ENDBRANCH   3  20
BRANCH   4  22
ATOM     22  C   LIG    1        1.327  -6.707   0.063  0.00  0.00    +0.206 C 
BRANCH  22  23
ATOM     23  O   LIG    1        1.542  -7.092   1.422  0.00  0.00    -0.284 OA
BRANCH  23  24
ATOM     24  P   LIG    1        2.386  -8.397   1.840  0.00  0.00    +0.483 P 
ATOM     25  O   LIG    1        1.794  -9.640   1.141  0.00  0.00    -0.227 OA
BRANCH  24  26
ATOM     26  O   LIG    1        3.859  -8.217   1.410  0.00  0.00    -0.302 OA
ATOM     27  H   LIG    1        3.903  -8.098   0.448  0.00  0.00    +0.222 HD
ENDBRANCH  24  26
BRANCH  24  28
ATOM     28  O   LIG    1        2.314  -8.594   3.437  0.00  0.00    -0.196 OA
BRANCH  28  29
ATOM     29  P   LIG    1        2.658  -9.814   4.430  0.00  0.00    +0.423 P 
ATOM     30  O   LIG    1        4.149 -10.192   4.283  0.00  0.00    -0.239 OA
BRANCH  29  31
ATOM     31  O   LIG    1        1.780 -11.033   4.072  0.00  0.00    -0.312 OA
ATOM     32  H   LIG    1        1.957 -11.302   3.156  0.00  0.00    +0.221 HD
ENDBRANCH  29  31
BRANCH  29  33
ATOM     33  N   LIG    1        2.359  -9.360   5.977  0.00  0.00    -0.125 NA
ATOM     34  H   LIG    1        2.026  -8.469   6.165  0.00  0.00    +0.146 HD
BRANCH  33  35
ATOM     35  P   LIG    1        2.623 -10.413   7.206  0.00  0.00    +0.412 P 
ATOM     36  O   LIG    1        1.743 -11.667   7.008  0.00  0.00    -0.240 OA
BRANCH  35  37
ATOM     37  O   LIG    1        2.249  -9.710   8.605  0.00  0.00    -0.312 OA
ATOM     38  H   LIG    1        2.381 -10.277   9.378  0.00  0.00    +0.221 HD
ENDBRANCH  35  37
BRANCH  35  39
ATOM     39  O   LIG    1        4.112 -10.826   7.220  0.00  0.00    -0.312 OA
ATOM     40  H   LIG    1        4.338 -11.249   6.377  0.00  0.00    +0.221 HD
ENDBRANCH  35  39
ENDBRANCH  33  35
ENDBRANCH  29  33
ENDBRANCH  28  29
ENDBRANCH  24  28
ENDBRANCH  23  24
ENDBRANCH  22  23
ENDBRANCH   4  22
TORSDOF 15
