REMARK  Name = ZINC13531879
REMARK                            x       y       z     vdW  Elec       q    Type
REMARK                         _______ _______ _______ _____ _____    ______ ____
ROOT
ATOM      1  N   LIG    1        1.129  -0.673  -0.086  0.00  0.00    -0.269 N 
ATOM      2  H   LIG    1        1.987  -0.221  -0.098  0.00  0.00    +0.156 HD
ATOM      3  C   LIG    1       -0.008   0.043   0.023  0.00  0.00    +0.308 C 
ATOM      4  N   LIG    1        0.040   1.389   0.018  0.00  0.00    -0.268 N 
ATOM      5  H   LIG    1        0.897   1.844   0.017  0.00  0.00    +0.156 HD
ATOM      6  O   LIG    1       -1.077  -0.527   0.126  0.00  0.00    -0.252 OA
ENDROOT
BRANCH   1  13
ATOM      7  C   LIG    1        0.100  -2.774   0.516  0.00  0.00    +0.025 A 
ATOM      8  C   LIG    1        0.042  -4.150   0.417  0.00  0.00    +0.022 A 
ATOM      9  C   LIG    1        0.958  -4.827  -0.369  0.00  0.00    +0.041 A 
ATOM     10 CL   LIG    1        0.887  -6.557  -0.488  0.00  0.00    -0.084 Cl
ATOM     11  C   LIG    1        1.931  -4.127  -1.062  0.00  0.00    +0.022 A 
ATOM     12  C   LIG    1        1.989  -2.750  -0.970  0.00  0.00    +0.025 A 
ATOM     13  C   LIG    1        1.071  -2.068  -0.181  0.00  0.00    +0.035 A 
ENDBRANCH   1  13
BRANCH   4  14
ATOM     14  C   LIG    1       -1.140   2.128   0.009  0.00  0.00    +0.050 A 
ATOM     15  C   LIG    1       -2.304   1.577  -0.507  0.00  0.00    +0.044 A 
ATOM     16  C   LIG    1       -3.475   2.309  -0.510  0.00  0.00    +0.043 A 
ATOM     17 CL   LIG    1       -4.929   1.610  -1.150  0.00  0.00    -0.083 Cl
ATOM     18  C   LIG    1       -3.495   3.603  -0.009  0.00  0.00    +0.021 A 
ATOM     19  C   LIG    1       -2.348   4.169   0.501  0.00  0.00    +0.018 A 
ATOM     20  C   LIG    1       -1.157   3.437   0.516  0.00  0.00    +0.080 A 
BRANCH  20  21
ATOM     21  C   LIG    1        0.074   4.036   1.062  0.00  0.00    +0.339 C 
ATOM     22  O   LIG    1        1.126   3.432   0.992  0.00  0.00    -0.245 OA
BRANCH  21  23
ATOM     23  O   LIG    1        0.032   5.253   1.638  0.00  0.00    -0.477 OA
ATOM     24  H   LIG    1       -0.779   5.719   1.692  0.00  0.00    +0.295 HD
ENDBRANCH  21  23
ENDBRANCH  20  21
ENDBRANCH   4  14
TORSDOF 4
