REMARK  Name = ZINC13454194
REMARK                            x       y       z     vdW  Elec       q    Type
REMARK                         _______ _______ _______ _____ _____    ______ ____
ROOT
ATOM      1  C   LIG    1       -0.017   1.385   0.010  0.00  0.00    +0.003 A 
ATOM      2  C   LIG    1       -1.201   2.064   0.019  0.00  0.00    +0.012 A 
ATOM      3  C   LIG    1       -2.406   1.354   0.021  0.00  0.00    +0.022 A 
ATOM      4  C   LIG    1       -3.812   1.743   0.029  0.00  0.00    +0.142 A 
ATOM      5  N   LIG    1       -4.526   0.653   0.027  0.00  0.00    -0.181 NA
ATOM      6  N   LIG    1       -3.691  -0.468   0.017  0.00  0.00    -0.275 N 
ATOM      7  H   LIG    1       -3.989  -1.392   0.013  0.00  0.00    +0.189 HD
ATOM      8  C   LIG    1       -2.385  -0.054   0.013  0.00  0.00    +0.096 A 
ATOM      9  C   LIG    1       -1.162  -0.720   0.004  0.00  0.00    +0.147 A 
ATOM     10  C   LIG    1        0.002  -0.004   0.002  0.00  0.00    +0.035 A 
ENDROOT
BRANCH   9  11
ATOM     11  N   LIG    1       -1.123  -2.199  -0.005  0.00  0.00    +0.008 N 
ATOM     12  O   LIG    1       -0.060  -2.776  -0.013  0.00  0.00    -0.130 OA
BRANCH  11  13
ATOM     13  O   LIG    1       -2.153  -2.831  -0.004  0.00  0.00    -0.396 OA
ATOM     14  H   LIG    1       -2.977  -2.385   0.003  0.00  0.00    +0.329 HD
ENDBRANCH  11  13
ENDBRANCH   9  11
TORSDOF 2
