REMARK  Name = ZINC13298738
REMARK                            x       y       z     vdW  Elec       q    Type
REMARK                         _______ _______ _______ _____ _____    ______ ____
ROOT
ATOM      1  C   LIG    1        0.739  -2.004  -1.265  0.00  0.00    +0.036 A 
ATOM      2  C   LIG    1        1.791  -2.688  -0.673  0.00  0.00    +0.127 A 
ATOM      3  C   LIG    1        1.816  -4.080  -0.677  0.00  0.00    +0.047 A 
ATOM      4  C   LIG    1        0.807  -4.787  -1.262  0.00  0.00    +0.018 A 
ATOM      5  C   LIG    1       -0.264  -4.114  -1.865  0.00  0.00    +0.059 A 
ATOM      6  C   LIG    1       -0.295  -2.708  -1.858  0.00  0.00    +0.134 A 
ENDROOT
BRANCH   5   7
ATOM      7  C   LIG    1       -1.348  -4.871  -2.496  0.00  0.00    +0.164 C 
ATOM      8  C   LIG    1       -1.314  -6.378  -2.497  0.00  0.00    +0.092 C 
ATOM      9  O   LIG    1       -2.274  -4.285  -3.017  0.00  0.00    -0.292 OA
ENDBRANCH   5   7
BRANCH   6  10
ATOM     10  O   LIG    1       -1.329  -2.045  -2.433  0.00  0.00    -0.506 OA
ATOM     11  H   LIG    1       -1.195  -1.843  -3.369  0.00  0.00    +0.292 HD
ENDBRANCH   6  10
BRANCH   1  12
ATOM     12  C   LIG    1        0.718  -0.497  -1.257  0.00  0.00    +0.042 C 
BRANCH  12  14
ATOM     13  C   LIG    1       -0.019   1.526   0.010  0.00  0.00    +0.004 C 
ATOM     14  C   LIG    1        0.002  -0.004   0.002  0.00  0.00    +0.001 C 
ENDBRANCH  12  14
ENDBRANCH   1  12
BRANCH   2  15
ATOM     15  O   LIG    1        2.801  -1.996  -0.088  0.00  0.00    -0.492 OA
BRANCH  15  16
ATOM     16  C   LIG    1        3.854  -2.761   0.503  0.00  0.00    +0.229 C 
BRANCH  16  17
ATOM     17  C   LIG    1        4.894  -1.815   1.108  0.00  0.00    +0.041 C 
BRANCH  17  18
ATOM     18  C   LIG    1        6.021  -2.634   1.741  0.00  0.00    +0.011 C 
BRANCH  18  19
ATOM     19  C   LIG    1        7.060  -1.688   2.345  0.00  0.00    +0.078 C 
BRANCH  19  20
ATOM     20  C   LIG    1        8.170  -2.494   2.969  0.00  0.00    +0.149 A 
ATOM     21  N   LIG    1        8.223  -2.933   4.218  0.00  0.00    -0.243 N 
ATOM     22  H   LIG    1        7.540  -2.792   4.913  0.00  0.00    +0.192 HD
ATOM     23  N   LIG    1        9.329  -3.580   4.358  0.00  0.00    -0.047 NA
ATOM     24  N   LIG    1        9.971  -3.560   3.241  0.00  0.00    -0.023 NA
ATOM     25  N   LIG    1        9.279  -2.905   2.372  0.00  0.00    -0.114 NA
ENDBRANCH  19  20
ENDBRANCH  18  19
ENDBRANCH  17  18
ENDBRANCH  16  17
ENDBRANCH  15  16
ENDBRANCH   2  15
TORSDOF 10
