REMARK  Name = ZINC13526651
REMARK                            x       y       z     vdW  Elec       q    Type
REMARK                         _______ _______ _______ _____ _____    ______ ____
ROOT
ATOM      1  C   LIG    1        1.774   3.441   0.853  0.00  0.00    -0.012 C 
ATOM      2  C   LIG    1        1.664   1.926   1.031  0.00  0.00    -0.057 C 
ATOM      3  N   LIG    1        2.828   1.278   0.394  0.00  0.00    +0.383 N 
ATOM      4  H   LIG    1        2.811   1.470  -0.615  0.00  0.00    -0.085 HD
ATOM      5  H   LIG    1        3.690   1.658   0.800  0.00  0.00    -0.085 HD
ATOM      6  C   LIG    1        2.789  -0.181   0.611  0.00  0.00    -0.063 C 
ATOM      7  C   LIG    1        1.546  -0.767  -0.066  0.00  0.00    +0.089 C 
ATOM      8  N   LIG    1        0.362  -0.044   0.423  0.00  0.00    -0.300 N 
ATOM      9  C   LIG    1       -0.705  -0.711   0.907  0.00  0.00    +0.263 C 
ATOM     10  O   LIG    1       -1.622  -0.099   1.420  0.00  0.00    -0.268 OA
ATOM     11  C   LIG    1        0.375   1.426   0.371  0.00  0.00    +0.092 C 
ENDROOT
BRANCH   9  12
ATOM     12  C   LIG    1       -0.759  -2.177   0.814  0.00  0.00    +0.103 A 
ATOM     13  C   LIG    1       -1.511  -2.989   1.603  0.00  0.00    +0.040 A 
ATOM     14  C   LIG    1       -1.280  -4.324   1.192  0.00  0.00    +0.000 A 
ATOM     15  C   LIG    1       -1.768  -5.563   1.628  0.00  0.00    +0.010 A 
ATOM     16  C   LIG    1       -1.349  -6.709   1.019  0.00  0.00    +0.001 A 
ATOM     17  C   LIG    1       -0.443  -6.661  -0.033  0.00  0.00    +0.002 A 
ATOM     18  C   LIG    1        0.051  -5.456  -0.480  0.00  0.00    +0.026 A 
ATOM     19  C   LIG    1       -0.361  -4.272   0.126  0.00  0.00    +0.047 A 
ATOM     20  N   LIG    1       -0.059  -2.949  -0.093  0.00  0.00    -0.351 N 
ATOM     21  H   LIG    1        0.547  -2.613  -0.771  0.00  0.00    +0.166 HD
ENDBRANCH   9  12
TORSDOF 1
