REMARK  Name = ZINC13473199
REMARK                            x       y       z     vdW  Elec       q    Type
REMARK                         _______ _______ _______ _____ _____    ______ ____
ROOT
ATOM      1  C   LIG    1        2.285  -3.079  -0.036  0.00  0.00    -0.007 A 
ATOM      2  C   LIG    1        1.221  -2.072  -0.021  0.00  0.00    +0.008 A 
ATOM      3  C   LIG    1        1.208  -0.675  -0.019  0.00  0.00    +0.058 A 
ATOM      4  C   LIG    1        0.002  -0.004   0.002  0.00  0.00    +0.151 A 
ATOM      5  C   LIG    1       -1.196  -0.714   0.010  0.00  0.00    +0.165 A 
ATOM      6  C   LIG    1       -1.195  -2.091   0.002  0.00  0.00    +0.062 A 
ATOM      7  C   LIG    1        0.009  -2.786  -0.013  0.00  0.00    +0.050 A 
ATOM      8  N   LIG    1        0.328  -4.128  -0.023  0.00  0.00    -0.349 N 
ATOM      9  H   LIG    1       -0.315  -4.854  -0.021  0.00  0.00    +0.166 HD
ATOM     10  C   LIG    1        1.688  -4.282  -0.037  0.00  0.00    +0.082 A 
ATOM     11  I   LIG    1        2.689  -6.122  -0.056  0.00  0.00    -0.024 I 
ENDROOT
BRANCH   4  12
ATOM     12  O   LIG    1       -0.016   1.356   0.009  0.00  0.00    -0.493 OA
ATOM     13  C   LIG    1        1.248   2.022   0.001  0.00  0.00    +0.277 C 
ENDBRANCH   4  12
BRANCH   5  14
ATOM     14  N   LIG    1       -2.482   0.019   0.025  0.00  0.00    +0.010 N 
ATOM     15  O   LIG    1       -3.533  -0.597   0.032  0.00  0.00    -0.130 OA
BRANCH  14  16
ATOM     16  O   LIG    1       -2.489   1.237   0.032  0.00  0.00    -0.396 OA
ATOM     17  H   LIG    1       -1.681   1.710   0.026  0.00  0.00    +0.329 HD
ENDBRANCH  14  16
ENDBRANCH   5  14
BRANCH   1  18
ATOM     18  C   LIG    1        3.768  -2.814  -0.049  0.00  0.00    +0.057 C 
BRANCH  18  19
ATOM     19  C   LIG    1        4.284  -2.733   1.390  0.00  0.00    +0.109 C 
BRANCH  19  22
ATOM     20  C   LIG    1        7.884  -2.101   2.527  0.00  0.00    +0.109 C 
ATOM     21  C   LIG    1        6.401  -2.365   2.539  0.00  0.00    +0.210 C 
ATOM     22  N   LIG    1        5.726  -2.476   1.378  0.00  0.00    -0.315 N 
ATOM     23  H   LIG    1        6.196  -2.387   0.534  0.00  0.00    +0.149 HD
ATOM     24  O   LIG    1        5.813  -2.477   3.595  0.00  0.00    -0.276 OA
ENDBRANCH  19  22
ENDBRANCH  18  19
ENDBRANCH   1  18
TORSDOF 6
