REMARK  Name = ZINC13530807
REMARK                            x       y       z     vdW  Elec       q    Type
REMARK                         _______ _______ _______ _____ _____    ______ ____
ROOT
ATOM      1  C   LIG    1       -2.725   4.025   0.019  0.00  0.00    +0.207 C 
ENDROOT
BRANCH   1   2
ATOM      2  C   LIG    1       -3.354   3.954  -1.374  0.00  0.00    +0.031 C 
ATOM      3  C   LIG    1       -2.565   4.844  -2.337  0.00  0.00    -0.012 C 
ATOM      4  C   LIG    1       -3.235   4.819  -3.713  0.00  0.00    -0.082 C 
ATOM      5  N   LIG    1       -4.623   5.308  -3.601  0.00  0.00    +0.379 N 
ATOM      6  H   LIG    1       -4.616   6.260  -3.216  0.00  0.00    -0.086 HD
ATOM      7  H   LIG    1       -5.054   5.318  -4.532  0.00  0.00    -0.086 HD
ATOM      8  C   LIG    1       -5.407   4.430  -2.712  0.00  0.00    -0.082 C 
ATOM      9  C   LIG    1       -4.803   4.445  -1.306  0.00  0.00    -0.012 C 
ENDBRANCH   1   2
BRANCH   1  13
ATOM     10  C   LIG    1        1.319   2.663  -0.174  0.00  0.00    +0.000 A 
ATOM     11  C   LIG    1        0.283   1.748  -0.129  0.00  0.00    +0.000 A 
ATOM     12  C   LIG    1       -1.025   2.189  -0.072  0.00  0.00    +0.007 A 
ATOM     13  C   LIG    1       -1.298   3.544  -0.049  0.00  0.00    -0.007 A 
ATOM     14  C   LIG    1       -0.262   4.458  -0.095  0.00  0.00    +0.007 A 
ATOM     15  C   LIG    1        1.046   4.018  -0.157  0.00  0.00    +0.000 A 
ENDBRANCH   1  13
BRANCH   1  16
ATOM     16  O   LIG    1       -3.464   3.196   0.918  0.00  0.00    -0.481 OA
BRANCH  16  17
ATOM     17  C   LIG    1       -3.396   3.505   2.241  0.00  0.00    +0.156 A 
ATOM     18  C   LIG    1       -2.545   4.510   2.676  0.00  0.00    +0.048 A 
ATOM     19  C   LIG    1       -2.481   4.826   4.019  0.00  0.00    +0.004 A 
ATOM     20  C   LIG    1       -3.256   4.135   4.932  0.00  0.00    +0.003 A 
ATOM     21  C   LIG    1       -4.102   3.129   4.503  0.00  0.00    +0.042 A 
ATOM     22  C   LIG    1       -4.174   2.812   3.159  0.00  0.00    +0.165 A 
ATOM     23  F   LIG    1       -5.000   1.828   2.739  0.00  0.00    -0.202 F 
ENDBRANCH  16  17
ENDBRANCH   1  16
TORSDOF 4
