REMARK  Name = ZINC13530851
REMARK                            x       y       z     vdW  Elec       q    Type
REMARK                         _______ _______ _______ _____ _____    ______ ____
ROOT
ATOM      1  C   LIG    1        0.008   0.000   0.004  0.00  0.00    +0.207 C 
ENDROOT
BRANCH   1   2
ATOM      2  C   LIG    1       -0.248   1.504  -0.116  0.00  0.00    +0.031 C 
ATOM      3  C   LIG    1       -1.123   1.778  -1.342  0.00  0.00    -0.012 C 
ATOM      4  C   LIG    1       -1.326   3.287  -1.492  0.00  0.00    -0.082 C 
ATOM      5  N   LIG    1       -0.018   3.951  -1.651  0.00  0.00    +0.379 N 
ATOM      6  H   LIG    1        0.460   3.564  -2.473  0.00  0.00    -0.086 HD
ATOM      7  H   LIG    1       -0.165   4.959  -1.784  0.00  0.00    -0.086 HD
ATOM      8  C   LIG    1        0.818   3.736  -0.455  0.00  0.00    -0.082 C 
ATOM      9  C   LIG    1        1.085   2.240  -0.275  0.00  0.00    -0.012 C 
ENDBRANCH   1   2
BRANCH   1  13
ATOM     10  C   LIG    1       -3.713  -2.049   0.448  0.00  0.00    +0.000 A 
ATOM     11  C   LIG    1       -2.979  -1.700   1.565  0.00  0.00    +0.000 A 
ATOM     12  C   LIG    1       -1.774  -1.037   1.422  0.00  0.00    +0.007 A 
ATOM     13  C   LIG    1       -1.305  -0.723   0.160  0.00  0.00    -0.007 A 
ATOM     14  C   LIG    1       -2.042  -1.066  -0.957  0.00  0.00    +0.007 A 
ATOM     15  C   LIG    1       -3.244  -1.734  -0.814  0.00  0.00    +0.000 A 
ENDBRANCH   1  13
BRANCH   1  16
ATOM     16  O   LIG    1        0.671  -0.465  -1.174  0.00  0.00    -0.484 OA
BRANCH  16  17
ATOM     17  C   LIG    1        1.415  -1.596  -1.057  0.00  0.00    +0.124 A 
ATOM     18  C   LIG    1        2.173  -2.043  -2.130  0.00  0.00    +0.046 A 
ATOM     19  C   LIG    1        2.929  -3.193  -2.010  0.00  0.00    +0.006 A 
ATOM     20  C   LIG    1        2.931  -3.900  -0.822  0.00  0.00    +0.038 A 
ATOM     21  C   LIG    1        2.175  -3.458   0.251  0.00  0.00    +0.127 A 
ATOM     22  F   LIG    1        2.179  -4.150   1.411  0.00  0.00    -0.205 F 
ATOM     23  C   LIG    1        1.420  -2.303   0.136  0.00  0.00    +0.084 A 
ENDBRANCH  16  17
ENDBRANCH   1  16
TORSDOF 4
