REMARK  Name = ZINC13108134
REMARK                            x       y       z     vdW  Elec       q    Type
REMARK                         _______ _______ _______ _____ _____    ______ ____
ROOT
ATOM      1  C   LIG    1        1.738   3.200   0.005  0.00  0.00    +0.042 C 
ATOM      2  C   LIG    1        0.771   4.061  -0.810  0.00  0.00    +0.029 C 
ATOM      3  C   LIG    1        1.277   5.507  -0.835  0.00  0.00    +0.107 C 
ATOM      4  N   LIG    1        1.473   5.963   0.547  0.00  0.00    -0.313 N 
ATOM      5  C   LIG    1        2.313   5.159   1.445  0.00  0.00    +0.107 C 
ATOM      6  C   LIG    1        1.795   3.717   1.444  0.00  0.00    +0.029 C 
ENDROOT
BRANCH   1   8
ATOM      7  C   LIG    1       -0.023   1.365   0.014  0.00  0.00    +0.107 A 
ATOM      8  C   LIG    1        1.261   1.771   0.003  0.00  0.00    +0.062 A 
ATOM      9  N   LIG    1        2.041   0.680  -0.010  0.00  0.00    -0.241 NA
ATOM     10  C   LIG    1        1.289  -0.387  -0.007  0.00  0.00    +0.196 A 
ATOM     11  N   LIG    1       -0.005  -0.004   0.008  0.00  0.00    -0.351 N 
ATOM     12  H   LIG    1       -0.779  -0.589   0.013  0.00  0.00    +0.166 HD
ENDBRANCH   1   8
BRANCH   4  13
ATOM     13  C   LIG    1        0.893   7.099   0.984  0.00  0.00    +0.133 C 
ATOM     14  S   LIG    1        0.026   8.092  -0.107  0.00  0.00    -0.019 S 
BRANCH  13  15
ATOM     15  N   LIG    1        0.996   7.453   2.281  0.00  0.00    -0.324 N 
ATOM     16  H   LIG    1        1.548   6.930   2.884  0.00  0.00    +0.148 HD
BRANCH  15  17
ATOM     17  C   LIG    1        0.275   8.626   2.780  0.00  0.00    +0.072 C 
ATOM     18  C   LIG    1       -1.153   8.225   3.155  0.00  0.00    +0.022 C 
ATOM     19  C   LIG    1       -1.907   9.450   3.676  0.00  0.00    +0.002 C 
ATOM     20  C   LIG    1       -1.192  10.002   4.910  0.00  0.00    +0.000 C 
ATOM     21  C   LIG    1        0.236  10.403   4.535  0.00  0.00    +0.002 C 
ATOM     22  C   LIG    1        0.990   9.178   4.014  0.00  0.00    +0.022 C 
ENDBRANCH  15  17
ENDBRANCH  13  15
ENDBRANCH   4  13
TORSDOF 4
