REMARK  Name = ZINC13444037
REMARK                            x       y       z     vdW  Elec       q    Type
REMARK                         _______ _______ _______ _____ _____    ______ ____
ROOT
ATOM      1  C   LIG    1        4.785   5.408  -0.013  0.00  0.00    -0.030 A 
ATOM      2  C   LIG    1        3.787   5.712  -0.921  0.00  0.00    +0.006 A 
ATOM      3  C   LIG    1        2.606   4.997  -0.919  0.00  0.00    +0.009 A 
ATOM      4  C   LIG    1        2.421   3.966   0.001  0.00  0.00    -0.017 A 
ATOM      5  C   LIG    1        3.428   3.668   0.917  0.00  0.00    +0.009 A 
ATOM      6  C   LIG    1        4.606   4.386   0.902  0.00  0.00    +0.006 A 
ENDROOT
BRANCH   4   7
ATOM      7  C   LIG    1        1.156   3.194   0.008  0.00  0.00    -0.007 A 
ATOM      8  C   LIG    1       -0.069   3.857   0.024  0.00  0.00    +0.009 A 
ATOM      9  C   LIG    1       -1.245   3.134   0.031  0.00  0.00    +0.001 A 
ATOM     10  C   LIG    1       -1.217   1.750   0.017  0.00  0.00    +0.001 A 
ATOM     11  C   LIG    1       -0.013   1.076   0.008  0.00  0.00    +0.012 A 
ATOM     12  C   LIG    1        1.185   1.789   0.000  0.00  0.00    +0.028 A 
BRANCH  12  13
ATOM     13  C   LIG    1        2.478   1.072  -0.016  0.00  0.00    +0.180 A 
ATOM     14  N   LIG    1        2.674  -0.253  -0.021  0.00  0.00    -0.239 N 
ATOM     15  H   LIG    1        1.977  -0.948  -0.012  0.00  0.00    +0.192 HD
ATOM     16  N   LIG    1        4.047  -0.462  -0.039  0.00  0.00    -0.046 NA
ATOM     17  N   LIG    1        4.584   0.711  -0.038  0.00  0.00    -0.023 NA
ATOM     18  N   LIG    1        3.676   1.619  -0.025  0.00  0.00    -0.108 NA
ENDBRANCH  12  13
ENDBRANCH   4   7
BRANCH   1  19
ATOM     19  C   LIG    1        6.071   6.193  -0.021  0.00  0.00    +0.150 C 
BRANCH  19  24
ATOM     20  C   LIG    1        5.920   9.081   5.475  0.00  0.00    +0.066 C 
ATOM     21  C   LIG    1        6.294   8.043   4.449  0.00  0.00    +0.047 A 
ATOM     22  C   LIG    1        5.915   8.191   3.130  0.00  0.00    +0.014 A 
ATOM     23  C   LIG    1        6.298   7.218   2.210  0.00  0.00    +0.135 A 
ATOM     24  N   LIG    1        5.945   7.346   0.875  0.00  0.00    -0.251 N 
ATOM     25  C   LIG    1        5.493   8.516   0.392  0.00  0.00    +0.221 C 
ATOM     26  C   LIG    1        5.463   9.748   1.256  0.00  0.00    +0.101 C 
ATOM     27  O   LIG    1        5.101   8.580  -0.754  0.00  0.00    -0.275 OA
ATOM     28  N   LIG    1        6.981   6.163   2.638  0.00  0.00    -0.217 NA
ATOM     29  C   LIG    1        7.319   6.055   3.907  0.00  0.00    +0.128 A 
ATOM     30  C   LIG    1        8.103   4.848   4.355  0.00  0.00    +0.088 C 
ATOM     31  C   LIG    1        5.092   9.370   2.691  0.00  0.00    +0.049 C 
ATOM     32  N   LIG    1        6.992   6.970   4.797  0.00  0.00    -0.237 NA
ENDBRANCH  19  24
ENDBRANCH   1  19
TORSDOF 4
