REMARK  Name = ZINC13491010
REMARK                            x       y       z     vdW  Elec       q    Type
REMARK                         _______ _______ _______ _____ _____    ______ ____
ROOT
ATOM      1  C   LIG    1       -0.889   3.485  -2.665  0.00  0.00    -0.096 C 
ATOM      2  N   LIG    1       -0.708   3.039  -1.260  0.00  0.00    +0.379 N 
ATOM      3  H   LIG    1        0.187   3.397  -0.907  0.00  0.00    -0.082 HD
ATOM      4  C   LIG    1       -1.782   3.556  -0.439  0.00  0.00    -0.060 C 
ATOM      5  C   LIG    1       -1.287   3.937   0.968  0.00  0.00    +0.088 C 
ATOM      6  N   LIG    1       -0.339   2.946   1.530  0.00  0.00    -0.316 N 
ATOM      7  C   LIG    1       -0.711   1.571   1.295  0.00  0.00    +0.104 C 
ATOM      8  C   LIG    1       -0.013   1.086   0.008  0.00  0.00    +0.000 C 
ATOM      9  C   LIG    1       -0.697   1.559  -1.193  0.00  0.00    -0.078 C 
ENDROOT
BRANCH   6  10
ATOM     10  C   LIG    1       -0.119   3.179   2.884  0.00  0.00    +0.144 A 
ATOM     11  C   LIG    1        0.342   4.423   3.315  0.00  0.00    +0.048 A 
ATOM     12  C   LIG    1        0.540   4.606   4.674  0.00  0.00    +0.045 A 
ATOM     13  C   LIG    1        0.278   3.537   5.522  0.00  0.00    +0.152 A 
ATOM     14 CL   LIG    1        0.515   3.708   7.233  0.00  0.00    -0.060 Cl
ATOM     15  N   LIG    1       -0.151   2.393   5.026  0.00  0.00    -0.136 NA
ATOM     16  N   LIG    1       -0.341   2.219   3.769  0.00  0.00    -0.133 NA
ENDBRANCH   6  10
TORSDOF 1
