REMARK  Name = ZINC13522703
REMARK                            x       y       z     vdW  Elec       q    Type
REMARK                         _______ _______ _______ _____ _____    ______ ____
ROOT
ATOM      1  C   LIG    1       -0.977   3.540   0.030  0.00  0.00    +0.109 A 
ATOM      2  N   LIG    1       -1.088   2.229   0.019  0.00  0.00    -0.239 NA
ATOM      3  C   LIG    1       -0.017   1.411   0.010  0.00  0.00    +0.079 A 
ATOM      4  C   LIG    1        0.002  -0.004   0.002  0.00  0.00    +0.030 A 
ATOM      5  C   LIG    1        1.179  -0.685  -0.013  0.00  0.00    +0.017 A 
ATOM      6  C   LIG    1        2.402  -0.028  -0.021  0.00  0.00    +0.019 A 
ATOM      7 BR   LIG    1        4.016  -1.013  -0.042  0.00  0.00    -0.050 Br
ATOM      8  C   LIG    1        2.428   1.355  -0.014  0.00  0.00    +0.032 A 
ATOM      9  C   LIG    1        1.244   2.052   0.001  0.00  0.00    +0.041 A 
ATOM     10  S   LIG    1        0.795   3.771   0.014  0.00  0.00    -0.067 S 
ENDROOT
BRANCH   1  16
ATOM     11  C   LIG    1       -1.715   5.918   0.054  0.00  0.00    +0.012 A 
ATOM     12  C   LIG    1       -2.713   6.867   0.064  0.00  0.00    +0.023 A 
ATOM     13  C   LIG    1       -4.048   6.476   0.074  0.00  0.00    +0.025 A 
ATOM     14  C   LIG    1       -4.379   5.125   0.070  0.00  0.00    +0.023 A 
ATOM     15  C   LIG    1       -3.386   4.170   0.055  0.00  0.00    +0.012 A 
ATOM     16  C   LIG    1       -2.045   4.561   0.045  0.00  0.00    +0.007 A 
BRANCH  13  17
ATOM     17  N   LIG    1       -5.055   7.439   0.089  0.00  0.00    -0.358 N 
ATOM     18  H   LIG    1       -4.825   8.381   0.092  0.00  0.00    +0.142 HD
ATOM     19  H   LIG    1       -5.986   7.166   0.096  0.00  0.00    +0.142 HD
ENDBRANCH  13  17
ENDBRANCH   1  16
TORSDOF 2
