REMARK  Name = ZINC13161743
REMARK                            x       y       z     vdW  Elec       q    Type
REMARK                         _______ _______ _______ _____ _____    ______ ____
ROOT
ATOM      1  C   LIG    1       -0.452  -0.243  -1.488  0.00  0.00    +0.161 C 
ATOM      2  C   LIG    1       -1.787  -0.677  -1.513  0.00  0.00    +0.230 C 
ATOM      3  O   LIG    1       -2.364  -1.159  -2.471  0.00  0.00    -0.286 OA
ATOM      4  C   LIG    1       -2.375  -0.446  -0.165  0.00  0.00    +0.284 C 
ATOM      5  O   LIG    1       -3.516  -0.713   0.151  0.00  0.00    -0.267 OA
ATOM      6  N   LIG    1       -1.457   0.100   0.650  0.00  0.00    -0.283 N 
ATOM      7  C   LIG    1       -0.203   0.271  -0.089  0.00  0.00    +0.125 C 
ENDROOT
BRANCH   7   8
ATOM      8  C   LIG    1        0.174   1.729  -0.134  0.00  0.00    -0.026 A 
ATOM      9  C   LIG    1       -0.804   2.691  -0.305  0.00  0.00    +0.006 A 
ATOM     10  C   LIG    1       -0.458   4.029  -0.342  0.00  0.00    +0.004 A 
ATOM     11  C   LIG    1        0.867   4.404  -0.218  0.00  0.00    -0.045 A 
ATOM     12  C   LIG    1        1.845   3.442  -0.053  0.00  0.00    +0.004 A 
ATOM     13  C   LIG    1        1.499   2.104  -0.011  0.00  0.00    +0.006 A 
BRANCH  11  14
ATOM     14  C   LIG    1        1.244   5.863  -0.265  0.00  0.00    +0.013 C 
ATOM     15  C   LIG    1        0.541   6.608   0.872  0.00  0.00    +0.012 C 
ATOM     16  C   LIG    1        0.815   6.458  -1.607  0.00  0.00    +0.012 C 
ENDBRANCH  11  14
ENDBRANCH   7   8
BRANCH   1  17
ATOM     17  C   LIG    1        0.451  -0.278  -2.531  0.00  0.00    +0.176 C 
ATOM     18  O   LIG    1        1.663   0.301  -2.394  0.00  0.00    -0.291 OA
BRANCH  17  23
ATOM     19  C   LIG    1       -0.948  -2.889  -7.460  0.00  0.00    +0.044 C 
ATOM     20  C   LIG    1       -0.582  -2.205  -6.168  0.00  0.00    -0.050 A 
ATOM     21  C   LIG    1       -0.087  -0.912  -6.190  0.00  0.00    +0.004 A 
ATOM     22  C   LIG    1        0.251  -0.280  -5.013  0.00  0.00    +0.011 A 
ATOM     23  C   LIG    1        0.092  -0.947  -3.794  0.00  0.00    +0.018 A 
ATOM     24  C   LIG    1       -0.404  -2.255  -3.780  0.00  0.00    +0.011 A 
ATOM     25  C   LIG    1       -0.741  -2.872  -4.966  0.00  0.00    +0.004 A 
ENDBRANCH  17  23
ENDBRANCH   1  17
BRANCH   6  26
ATOM     26  C   LIG    1       -1.675   0.465   2.052  0.00  0.00    +0.135 C 
BRANCH  26  27
ATOM     27  C   LIG    1       -2.164   1.888   2.131  0.00  0.00    -0.016 C 
ATOM     28  C   LIG    1       -3.283   2.163   2.754  0.00  0.00    +0.005 C 
ENDBRANCH  26  27
ENDBRANCH   6  26
TORSDOF 6
