REMARK  Name = ZINC13301583
REMARK                            x       y       z     vdW  Elec       q    Type
REMARK                         _______ _______ _______ _____ _____    ______ ____
ROOT
ATOM      1  N   LIG    1       -0.244  -6.457   3.859  0.00  0.00    -0.257 N 
ATOM      2  C   LIG    1       -1.410  -7.215   3.844  0.00  0.00    +0.047 A 
ATOM      3  C   LIG    1       -2.730  -6.882   4.128  0.00  0.00    +0.024 A 
ATOM      4  C   LIG    1       -3.720  -7.840   4.037  0.00  0.00    +0.002 A 
ATOM      5  C   LIG    1       -3.415  -9.138   3.664  0.00  0.00    +0.001 A 
ATOM      6  C   LIG    1       -2.110  -9.486   3.378  0.00  0.00    +0.012 A 
ATOM      7  C   LIG    1       -1.105  -8.529   3.467  0.00  0.00    +0.028 A 
ATOM      8  C   LIG    1        0.357  -8.569   3.235  0.00  0.00    +0.153 C 
ATOM      9  N   LIG    1        1.079  -9.599   2.865  0.00  0.00    -0.174 NA
ATOM     10  C   LIG    1        0.824  -7.193   3.505  0.00  0.00    +0.272 C 
ATOM     11  O   LIG    1        1.972  -6.798   3.425  0.00  0.00    -0.268 OA
ENDROOT
BRANCH   9  12
ATOM     12  N   LIG    1        0.453 -10.797   2.497  0.00  0.00    -0.198 N 
ATOM     13  H   LIG    1       -0.514 -10.840   2.435  0.00  0.00    +0.178 HD
ATOM     14  C   LIG    1        1.195 -11.890   2.227  0.00  0.00    +0.318 C 
ATOM     15  O   LIG    1        2.405 -11.836   2.304  0.00  0.00    -0.263 OA
BRANCH  14  16
ATOM     16  C   LIG    1        0.528 -13.166   1.834  0.00  0.00    +0.301 C 
ATOM     17  N   LIG    1        1.269 -14.259   1.565  0.00  0.00    -0.303 N 
ATOM     18  H   LIG    1        2.236 -14.216   1.627  0.00  0.00    +0.149 HD
ATOM     19  O   LIG    1       -0.682 -13.220   1.757  0.00  0.00    -0.265 OA
BRANCH  17  20
ATOM     20  C   LIG    1        0.615 -15.511   1.179  0.00  0.00    +0.140 C 
BRANCH  20  21
ATOM     21  C   LIG    1        1.659 -16.570   0.935  0.00  0.00    -0.030 A 
ATOM     22  C   LIG    1        2.202 -16.728  -0.327  0.00  0.00    +0.005 A 
ATOM     23  C   LIG    1        3.160 -17.699  -0.550  0.00  0.00    +0.000 A 
ATOM     24  C   LIG    1        3.576 -18.511   0.488  0.00  0.00    +0.000 A 
ATOM     25  C   LIG    1        3.035 -18.353   1.750  0.00  0.00    +0.000 A 
ATOM     26  C   LIG    1        2.079 -17.379   1.974  0.00  0.00    +0.005 A 
ENDBRANCH  20  21
ENDBRANCH  17  20
ENDBRANCH  14  16
ENDBRANCH   9  12
BRANCH   1  27
ATOM     27  C   LIG    1       -0.187  -5.036   4.208  0.00  0.00    +0.210 C 
BRANCH  27  30
ATOM     28  N   LIG    1       -0.366  -2.860   3.047  0.00  0.00    -0.284 N 
ATOM     29  H   LIG    1       -0.155  -2.426   3.889  0.00  0.00    +0.155 HD
ATOM     30  C   LIG    1       -0.380  -4.205   2.966  0.00  0.00    +0.235 C 
ATOM     31  O   LIG    1       -0.549  -4.747   1.895  0.00  0.00    -0.274 OA
BRANCH  28  37
ATOM     32  C   LIG    1        0.399   1.204   0.388  0.00  0.00    +0.044 C 
ATOM     33  C   LIG    1       -0.300  -0.114   0.602  0.00  0.00    -0.049 A 
ATOM     34  C   LIG    1       -1.228  -0.562  -0.320  0.00  0.00    +0.003 A 
ATOM     35  C   LIG    1       -1.870  -1.771  -0.127  0.00  0.00    +0.002 A 
ATOM     36  C   LIG    1       -1.587  -2.535   0.988  0.00  0.00    +0.023 A 
ATOM     37  C   LIG    1       -0.655  -2.088   1.916  0.00  0.00    +0.034 A 
ATOM     38  C   LIG    1       -0.008  -0.875   1.716  0.00  0.00    +0.026 A 
ENDBRANCH  28  37
ENDBRANCH  27  30
ENDBRANCH   1  27
TORSDOF 7
