REMARK  Name = ZINC13282257
REMARK                            x       y       z     vdW  Elec       q    Type
REMARK                         _______ _______ _______ _____ _____    ______ ____
ROOT
ATOM      1  C   LIG    1       -0.043   1.256   2.593  0.00  0.00    +0.066 C 
ATOM      2  N   LIG    1       -0.298   0.040   3.150  0.00  0.00    -0.286 NA
ATOM      3  H   LIG    1       -1.078  -0.501   2.833  0.00  0.00    +0.125 HD
ATOM      4  C   LIG    1        0.565  -0.351   4.131  0.00  0.00    +0.193 C 
ATOM      5  N   LIG    1        1.592   0.366   4.561  0.00  0.00    -0.273 NA
ATOM      6  H   LIG    1        1.446   0.514   5.560  0.00  0.00    +0.126 HD
ATOM      7  C   LIG    1        1.856   1.557   4.036  0.00  0.00    +0.130 C 
ATOM      8  C   LIG    1        1.025   2.047   3.012  0.00  0.00    +0.067 C 
ENDROOT
BRANCH   8   9
ATOM      9  C   LIG    1        1.278   3.371   2.395  0.00  0.00    -0.040 A 
ATOM     10  C   LIG    1        1.710   3.456   1.072  0.00  0.00    +0.004 A 
ATOM     11  C   LIG    1        1.940   4.691   0.501  0.00  0.00    +0.000 A 
ATOM     12  C   LIG    1        1.753   5.844   1.242  0.00  0.00    +0.000 A 
ATOM     13  C   LIG    1        1.329   5.766   2.557  0.00  0.00    +0.000 A 
ATOM     14  C   LIG    1        1.091   4.537   3.137  0.00  0.00    +0.004 A 
ENDBRANCH   8   9
BRANCH   4  15
ATOM     15  N   LIG    1        0.323  -1.587   4.703  0.00  0.00    -0.303 NA
ATOM     16  H   LIG    1       -0.425  -2.124   4.398  0.00  0.00    +0.121 HD
ATOM     17  H   LIG    1        0.901  -1.917   5.409  0.00  0.00    +0.121 HD
ENDBRANCH   4  15
BRANCH   7  18
ATOM     18  N   LIG    1        2.929   2.303   4.489  0.00  0.00    -0.315 NA
ATOM     19  H   LIG    1        3.497   1.957   5.195  0.00  0.00    +0.120 HD
ATOM     20  H   LIG    1        3.114   3.172   4.100  0.00  0.00    +0.120 HD
ENDBRANCH   7  18
BRANCH   1  22
ATOM     21  C   LIG    1       -2.103   2.549   2.113  0.00  0.00    +0.005 C 
ATOM     22  C   LIG    1       -0.964   1.733   1.500  0.00  0.00    +0.016 C 
ENDBRANCH   1  22
TORSDOF 4
