REMARK  Name = ZINC13382263
REMARK                            x       y       z     vdW  Elec       q    Type
REMARK                         _______ _______ _______ _____ _____    ______ ____
ROOT
ATOM      1  C   LIG    1       -0.773   7.256   0.045  0.00  0.00    +0.136 A 
ATOM      2  C   LIG    1       -2.102   7.574   0.059  0.00  0.00    +0.050 A 
ATOM      3  C   LIG    1       -2.813   6.371   0.059  0.00  0.00    +0.050 A 
ATOM      4  C   LIG    1       -1.875   5.354   0.046  0.00  0.00    +0.130 A 
ATOM      5  O   LIG    1       -0.648   5.917   0.043  0.00  0.00    -0.455 OA
ENDROOT
BRANCH   4   6
ATOM      6  C   LIG    1       -2.153   3.970   0.042  0.00  0.00    +0.066 C 
ATOM      7  C   LIG    1       -1.128   3.068   0.028  0.00  0.00    +0.080 C 
ATOM      8  C   LIG    1       -1.173   1.597   0.016  0.00  0.00    +0.256 C 
ATOM      9  N   LIG    1       -0.011   0.966   0.007  0.00  0.00    -0.270 N 
ATOM     10  H   LIG    1        0.002  -0.004   0.002  0.00  0.00    +0.156 HD
ATOM     11  C   LIG    1        1.156   1.641  -0.000  0.00  0.00    +0.118 C 
ATOM     12  S   LIG    1        2.749   1.013  -0.018  0.00  0.00    -0.027 S 
ATOM     13  O   LIG    1       -2.229   0.990   0.018  0.00  0.00    -0.269 OA
ATOM     14  S   LIG    1        0.637   3.350   0.013  0.00  0.00    -0.061 S 
ENDBRANCH   4   6
BRANCH   1  17
ATOM     15  C   LIG    1        1.127  10.494   0.041  0.00  0.00    +0.002 A 
ATOM     16  C   LIG    1        0.081   9.595   0.041  0.00  0.00    +0.011 A 
ATOM     17  C   LIG    1        0.342   8.223   0.039  0.00  0.00    +0.019 A 
ATOM     18  C   LIG    1        1.664   7.770   0.025  0.00  0.00    +0.031 A 
ATOM     19  C   LIG    1        2.701   8.680   0.019  0.00  0.00    +0.042 A 
ATOM     20 CL   LIG    1        4.345   8.121   0.002  0.00  0.00    -0.084 Cl
ATOM     21  C   LIG    1        2.434  10.040   0.028  0.00  0.00    +0.020 A 
ENDBRANCH   1  17
TORSDOF 2
