REMARK  Name = ZINC13493579
REMARK                            x       y       z     vdW  Elec       q    Type
REMARK                         _______ _______ _______ _____ _____    ______ ____
ROOT
ATOM      1  C   LIG    1        1.652   4.229   0.074  0.00  0.00    +0.261 C 
ATOM      2  N   LIG    1        1.185   5.492   0.002  0.00  0.00    -0.306 N 
ATOM      3  H   LIG    1        0.229   5.656   0.002  0.00  0.00    +0.149 HD
ATOM      4  O   LIG    1        2.848   4.027   0.168  0.00  0.00    -0.269 OA
ENDROOT
BRANCH   1  10
ATOM      5  C   LIG    1        2.418   1.229  -0.029  0.00  0.00    +0.149 C 
ATOM      6  N   LIG    1        1.055   1.765  -0.007  0.00  0.00    -0.346 N 
ATOM      7  C   LIG    1       -0.084   1.030  -0.022  0.00  0.00    +0.086 A 
ATOM      8  C   LIG    1       -1.147   1.869   0.005  0.00  0.00    +0.020 A 
ATOM      9  C   LIG    1       -0.659   3.179   0.047  0.00  0.00    +0.032 A 
ATOM     10  C   LIG    1        0.717   3.099   0.039  0.00  0.00    +0.104 A 
ENDBRANCH   1  10
BRANCH   2  11
ATOM     11  C   LIG    1        2.122   6.615  -0.077  0.00  0.00    +0.140 C 
BRANCH  11  12
ATOM     12  C   LIG    1        1.351   7.908  -0.148  0.00  0.00    -0.030 A 
ATOM     13  C   LIG    1        0.989   8.431  -1.376  0.00  0.00    +0.008 A 
ATOM     14  C   LIG    1        0.278   9.614  -1.442  0.00  0.00    +0.038 A 
ATOM     15  C   LIG    1       -0.064  10.281  -0.278  0.00  0.00    +0.123 A 
ATOM     16  F   LIG    1       -0.755  11.440  -0.341  0.00  0.00    -0.205 F 
ATOM     17  C   LIG    1        0.303   9.759   0.951  0.00  0.00    +0.038 A 
ATOM     18  C   LIG    1        1.010   8.574   1.015  0.00  0.00    +0.008 A 
ENDBRANCH  11  12
ENDBRANCH   2  11
TORSDOF 3
