REMARK  Name = ZINC13234698
REMARK                            x       y       z     vdW  Elec       q    Type
REMARK                         _______ _______ _______ _____ _____    ______ ____
ROOT
ATOM      1  N   LIG    1        2.391   3.712  -0.160  0.00  0.00    -0.251 N 
ATOM      2  H   LIG    1        2.405   4.673  -0.032  0.00  0.00    +0.158 HD
ATOM      3  C   LIG    1        3.546   3.017  -0.180  0.00  0.00    +0.309 C 
ATOM      4  N   LIG    1        4.721   3.659  -0.022  0.00  0.00    -0.269 N 
ATOM      5  H   LIG    1        4.741   4.628   0.029  0.00  0.00    +0.156 HD
ATOM      6  O   LIG    1        3.528   1.812  -0.341  0.00  0.00    -0.252 OA
ENDROOT
BRANCH   1  12
ATOM      7  C   LIG    1       -0.018   3.771  -0.302  0.00  0.00    +0.161 A 
ATOM      8  C   LIG    1       -1.218   3.095  -0.466  0.00  0.00    +0.051 A 
ATOM      9  C   LIG    1       -1.183   1.720  -0.651  0.00  0.00    +0.023 A 
ATOM     10  C   LIG    1        0.034   1.069  -0.656  0.00  0.00    +0.113 A 
ATOM     11  N   LIG    1        1.161   1.736  -0.498  0.00  0.00    -0.237 NA
ATOM     12  C   LIG    1        1.174   3.047  -0.324  0.00  0.00    +0.168 A 
BRANCH   7  13
ATOM     13  O   LIG    1       -0.003   5.119  -0.123  0.00  0.00    -0.484 OA
BRANCH  13  14
ATOM     14  C   LIG    1       -1.267   5.786  -0.113  0.00  0.00    +0.264 C 
BRANCH  14  18
ATOM     15  C   LIG    1       -0.663   9.973   0.477  0.00  0.00    +0.000 A 
ATOM     16  C   LIG    1       -0.688   9.452  -0.803  0.00  0.00    +0.000 A 
ATOM     17  C   LIG    1       -0.883   8.097  -0.994  0.00  0.00    +0.007 A 
ATOM     18  C   LIG    1       -1.054   7.263   0.095  0.00  0.00    -0.010 A 
ATOM     19  C   LIG    1       -1.035   7.785   1.375  0.00  0.00    +0.007 A 
ATOM     20  C   LIG    1       -0.834   9.139   1.566  0.00  0.00    +0.000 A 
ENDBRANCH  14  18
ENDBRANCH  13  14
ENDBRANCH   7  13
ENDBRANCH   1  12
BRANCH   4  21
ATOM     21  C   LIG    1        5.910   2.928   0.069  0.00  0.00    +0.035 A 
ATOM     22  C   LIG    1        5.915   1.678   0.673  0.00  0.00    +0.023 A 
ATOM     23  C   LIG    1        7.089   0.956   0.756  0.00  0.00    +0.002 A 
ATOM     24  C   LIG    1        8.263   1.483   0.248  0.00  0.00    +0.012 A 
ATOM     25  C   LIG    1        8.263   2.730  -0.349  0.00  0.00    +0.057 A 
ATOM     26  C   LIG    1        7.090   3.454  -0.440  0.00  0.00    +0.035 A 
BRANCH  25  27
ATOM     27  C   LIG    1        9.545   3.300  -0.900  0.00  0.00    +0.417 C 
ATOM     28  F   LIG    1        9.255   4.137  -1.983  0.00  0.00    -0.166 F 
ATOM     29  F   LIG    1       10.374   2.257  -1.327  0.00  0.00    -0.166 F 
ATOM     30  F   LIG    1       10.195   4.035   0.096  0.00  0.00    -0.166 F 
ENDBRANCH  25  27
ENDBRANCH   4  21
TORSDOF 6
