REMARK  Name = ZINC13438132
REMARK                            x       y       z     vdW  Elec       q    Type
REMARK                         _______ _______ _______ _____ _____    ______ ____
ROOT
ATOM      1  C   LIG    1        7.251  -2.685   2.636  0.00  0.00    +0.066 A 
ATOM      2  C   LIG    1        7.907  -3.046   1.456  0.00  0.00    +0.064 A 
ATOM      3  C   LIG    1        9.112  -3.720   1.515  0.00  0.00    +0.163 A 
ATOM      4  C   LIG    1        9.672  -4.040   2.749  0.00  0.00    +0.201 A 
ATOM      5  C   LIG    1        9.021  -3.682   3.926  0.00  0.00    +0.163 A 
ATOM      6  C   LIG    1        7.819  -3.001   3.873  0.00  0.00    +0.064 A 
ENDROOT
BRANCH   1   7
ATOM      7  C   LIG    1        5.965  -1.966   2.576  0.00  0.00    +0.339 C 
ATOM      8  O   LIG    1        5.398  -1.647   3.603  0.00  0.00    -0.245 OA
BRANCH   7   9
ATOM      9  O   LIG    1        5.418  -1.661   1.382  0.00  0.00    -0.461 OA
BRANCH   9  10
ATOM     10  C   LIG    1        4.171  -0.963   1.399  0.00  0.00    +0.237 C 
BRANCH  10  11
ATOM     11  C   LIG    1        3.711  -0.707  -0.038  0.00  0.00    +0.076 C 
BRANCH  11  15
ATOM     12  C   LIG    1       -0.017   1.378   0.010  0.00  0.00    +0.000 A 
ATOM     13  C   LIG    1        1.171   2.086   0.002  0.00  0.00    +0.000 A 
ATOM     14  C   LIG    1        2.377   1.411  -0.013  0.00  0.00    +0.004 A 
ATOM     15  C   LIG    1        2.396   0.029  -0.020  0.00  0.00    -0.044 A 
ATOM     16  C   LIG    1        1.208  -0.679  -0.012  0.00  0.00    +0.004 A 
ATOM     17  C   LIG    1        0.002  -0.004   0.002  0.00  0.00    +0.000 A 
ENDBRANCH  11  15
ENDBRANCH  10  11
ENDBRANCH   9  10
ENDBRANCH   7   9
ENDBRANCH   1   7
BRANCH   3  18
ATOM     18  O   LIG    1        9.751  -4.072   0.367  0.00  0.00    -0.503 OA
ATOM     19  H   LIG    1       10.367  -3.403   0.039  0.00  0.00    +0.292 HD
ENDBRANCH   3  18
BRANCH   4  20
ATOM     20  O   LIG    1       10.857  -4.703   2.804  0.00  0.00    -0.501 OA
ATOM     21  H   LIG    1       11.631  -4.124   2.824  0.00  0.00    +0.292 HD
ENDBRANCH   4  20
BRANCH   5  22
ATOM     22  O   LIG    1        9.571  -3.996   5.130  0.00  0.00    -0.503 OA
ATOM     23  H   LIG    1       10.161  -3.316   5.482  0.00  0.00    +0.292 HD
ENDBRANCH   5  22
TORSDOF 8
