REMARK  Name = ZINC13488403
REMARK                            x       y       z     vdW  Elec       q    Type
REMARK                         _______ _______ _______ _____ _____    ______ ____
ROOT
ATOM      1  C   LIG    1        7.750  -2.228   1.983  0.00  0.00    +0.099 C 
ATOM      2  C   LIG    1        8.954  -1.387   1.502  0.00  0.00    +0.036 C 
ATOM      3  C   LIG    1       10.103  -1.961   2.364  0.00  0.00    +0.098 C 
ATOM      4  C   LIG    1        9.407  -2.523   3.584  0.00  0.00    +0.216 C 
ATOM      5  O   LIG    1        9.956  -2.810   4.627  0.00  0.00    -0.276 OA
ATOM      6  N   LIG    1        8.089  -2.659   3.344  0.00  0.00    -0.295 N 
ENDROOT
BRANCH   1   8
ATOM      7  C   LIG    1        5.422  -1.804   1.383  0.00  0.00    +0.002 C 
ATOM      8  C   LIG    1        6.500  -1.387   1.998  0.00  0.00    -0.006 C 
BRANCH   7   9
ATOM      9  C   LIG    1        4.171  -0.963   1.399  0.00  0.00    +0.141 C 
BRANCH   9  10
ATOM     10  O   LIG    1        4.444   0.284   2.041  0.00  0.00    -0.387 OA
ATOM     11  H   LIG    1        5.134   0.806   1.609  0.00  0.00    +0.210 HD
ENDBRANCH   9  10
BRANCH   9  12
ATOM     12  C   LIG    1        3.711  -0.707  -0.038  0.00  0.00    +0.070 C 
BRANCH  12  16
ATOM     13  C   LIG    1       -0.017   1.378   0.010  0.00  0.00    +0.000 A 
ATOM     14  C   LIG    1        1.171   2.086   0.002  0.00  0.00    +0.000 A 
ATOM     15  C   LIG    1        2.377   1.411  -0.013  0.00  0.00    +0.004 A 
ATOM     16  C   LIG    1        2.396   0.029  -0.020  0.00  0.00    -0.045 A 
ATOM     17  C   LIG    1        1.208  -0.679  -0.012  0.00  0.00    +0.004 A 
ATOM     18  C   LIG    1        0.002  -0.004   0.002  0.00  0.00    +0.000 A 
ENDBRANCH  12  16
ENDBRANCH   9  12
ENDBRANCH   7   9
ENDBRANCH   1   8
BRANCH   6  19
ATOM     19  C   LIG    1        7.119  -3.168   4.316  0.00  0.00    +0.108 C 
BRANCH  19  20
ATOM     20  C   LIG    1        7.005  -4.688   4.174  0.00  0.00    +0.019 C 
BRANCH  20  21
ATOM     21  C   LIG    1        5.992  -5.220   5.189  0.00  0.00    +0.002 C 
BRANCH  21  22
ATOM     22  C   LIG    1        5.878  -6.739   5.046  0.00  0.00    +0.000 C 
BRANCH  22  23
ATOM     23  C   LIG    1        4.864  -7.272   6.061  0.00  0.00    +0.008 C 
BRANCH  23  24
ATOM     24  C   LIG    1        4.750  -8.791   5.919  0.00  0.00    +0.080 C 
BRANCH  24  25
ATOM     25  C   LIG    1        3.752  -9.316   6.918  0.00  0.00    +0.174 A 
ATOM     26  N   LIG    1        4.005  -9.707   8.143  0.00  0.00    -0.138 NA
ATOM     27  N   LIG    1        2.895 -10.085   8.677  0.00  0.00    -0.176 N 
ATOM     28  H   LIG    1        2.791 -10.423   9.580  0.00  0.00    +0.214 HD
ATOM     29  N   LIG    1        1.945  -9.944   7.818  0.00  0.00    -0.049 NA
ATOM     30  N   LIG    1        2.441  -9.466   6.727  0.00  0.00    -0.113 NA
ENDBRANCH  24  25
ENDBRANCH  23  24
ENDBRANCH  22  23
ENDBRANCH  21  22
ENDBRANCH  20  21
ENDBRANCH  19  20
ENDBRANCH   6  19
TORSDOF 12
