REMARK  Name = ZINC13456708
REMARK                            x       y       z     vdW  Elec       q    Type
REMARK                         _______ _______ _______ _____ _____    ______ ____
ROOT
ATOM      1  C   LIG    1        0.185   1.133   2.832  0.00  0.00    +0.133 A 
ATOM      2  C   LIG    1       -0.212   1.227   4.165  0.00  0.00    +0.107 A 
ATOM      3  N   LIG    1        0.509   0.564   5.046  0.00  0.00    -0.190 NA
ATOM      4  S   LIG    1        1.639  -0.147   4.212  0.00  0.00    +0.117 S 
ATOM      5  N   LIG    1        1.244   0.373   2.637  0.00  0.00    -0.184 NA
ENDROOT
BRANCH   2   6
ATOM      6  C   LIG    1       -1.382   2.032   4.571  0.00  0.00    -0.039 C 
ATOM      7  C   LIG    1       -2.566   1.696   4.106  0.00  0.00    -0.025 C 
ATOM      8  C   LIG    1       -3.819   2.450   4.455  0.00  0.00    +0.009 C 
ATOM      9  C   LIG    1       -3.566   3.336   5.677  0.00  0.00    -0.075 C 
ATOM     10  N   LIG    1       -2.329   4.104   5.431  0.00  0.00    +0.381 N 
ATOM     11  H   LIG    1       -2.377   4.528   4.497  0.00  0.00    -0.082 HD
ATOM     12  C   LIG    1       -2.187   5.178   6.441  0.00  0.00    -0.096 C 
ATOM     13  C   LIG    1       -1.164   3.200   5.489  0.00  0.00    -0.041 C 
ENDBRANCH   2   6
BRANCH   1  14
ATOM     14  S   LIG    1       -0.660   1.953   1.521  0.00  0.00    -0.103 S 
BRANCH  14  15
ATOM     15  C   LIG    1        0.272   1.485   0.037  0.00  0.00    +0.076 C 
BRANCH  15  16
ATOM     16  C   LIG    1       -0.364   2.138  -1.192  0.00  0.00    +0.011 C 
BRANCH  16  17
ATOM     17  C   LIG    1        0.423   1.744  -2.443  0.00  0.00    +0.001 C 
BRANCH  17  19
ATOM     18  C   LIG    1        0.574   2.002  -4.924  0.00  0.00    +0.004 C 
ATOM     19  C   LIG    1       -0.213   2.397  -3.672  0.00  0.00    -0.003 C 
ENDBRANCH  17  19
ENDBRANCH  16  17
ENDBRANCH  15  16
ENDBRANCH  14  15
ENDBRANCH   1  14
TORSDOF 6
