REMARK  Name = ZINC12998473
REMARK                            x       y       z     vdW  Elec       q    Type
REMARK                         _______ _______ _______ _____ _____    ______ ____
ROOT
ATOM      1  N   LIG    1        1.003   9.282  -1.629  0.00  0.00    -0.312 N 
ATOM      2  H   LIG    1        1.001   9.909  -0.889  0.00  0.00    +0.149 HD
ATOM      3  C   LIG    1        1.023   7.956  -1.389  0.00  0.00    +0.218 C 
ATOM      4  O   LIG    1        1.025   7.173  -2.315  0.00  0.00    -0.275 OA
ENDROOT
BRANCH   1   9
ATOM      5  N   LIG    1        1.798  11.786  -4.921  0.00  0.00    +0.382 N 
ATOM      6  H   LIG    1        2.327  12.363  -4.257  0.00  0.00    -0.081 HD
ATOM      7  C   LIG    1        2.393  10.433  -4.961  0.00  0.00    -0.077 C 
ATOM      8  C   LIG    1        2.415   9.859  -3.543  0.00  0.00    +0.003 C 
ATOM      9  C   LIG    1        0.983   9.777  -3.008  0.00  0.00    +0.069 C 
ATOM     10  C   LIG    1        0.353  11.172  -3.042  0.00  0.00    +0.003 C 
ATOM     11  C   LIG    1        0.391  11.709  -4.474  0.00  0.00    -0.077 C 
BRANCH   5  12
ATOM     12  C   LIG    1        1.869  12.408  -6.260  0.00  0.00    -0.043 C 
BRANCH  12  16
ATOM     13  C   LIG    1        5.964  13.162  -7.211  0.00  0.00    +0.000 A 
ATOM     14  C   LIG    1        5.380  11.963  -7.574  0.00  0.00    +0.000 A 
ATOM     15  C   LIG    1        4.054  11.719  -7.266  0.00  0.00    +0.002 A 
ATOM     16  C   LIG    1        3.313  12.674  -6.595  0.00  0.00    -0.064 A 
ATOM     17  C   LIG    1        3.897  13.875  -6.237  0.00  0.00    +0.002 A 
ATOM     18  C   LIG    1        5.223  14.117  -6.541  0.00  0.00    +0.000 A 
ENDBRANCH  12  16
ENDBRANCH   5  12
ENDBRANCH   1   9
BRANCH   3  19
ATOM     19  C   LIG    1        1.044   7.447   0.029  0.00  0.00    +0.130 C 
BRANCH  19  20
ATOM     20  C   LIG    1        1.064   5.940   0.022  0.00  0.00    -0.038 A 
ATOM     21  C   LIG    1        2.286   5.270   0.007  0.00  0.00    +0.005 A 
ATOM     22  C   LIG    1        2.340   3.910  -0.000  0.00  0.00    +0.009 A 
ATOM     23  C   LIG    1        1.147   3.167   0.008  0.00  0.00    -0.018 A 
ATOM     24  C   LIG    1        1.163   1.762   0.000  0.00  0.00    +0.008 A 
ATOM     25  C   LIG    1       -0.013   1.076   0.008  0.00  0.00    +0.001 A 
ATOM     26  C   LIG    1       -1.235   1.746   0.017  0.00  0.00    +0.001 A 
ATOM     27  C   LIG    1       -1.288   3.106   0.031  0.00  0.00    +0.008 A 
ATOM     28  C   LIG    1       -0.096   3.849   0.023  0.00  0.00    -0.018 A 
ATOM     29  C   LIG    1       -0.111   5.254   0.029  0.00  0.00    +0.012 A 
ENDBRANCH  19  20
ENDBRANCH   3  19
TORSDOF 5
