REMARK  Name = ZINC13479194
REMARK                            x       y       z     vdW  Elec       q    Type
REMARK                         _______ _______ _______ _____ _____    ______ ____
ROOT
ATOM      1  C   LIG    1        1.194  -0.594   0.975  0.00  0.00    +0.162 A 
ATOM      2  C   LIG    1        1.827   0.082   2.016  0.00  0.00    +0.050 A 
ATOM      3  C   LIG    1        2.397  -0.561   3.103  0.00  0.00    +0.007 A 
ATOM      4  C   LIG    1        2.341  -1.940   3.206  0.00  0.00    -0.041 A 
ATOM      5  C   LIG    1        1.651  -2.586   2.207  0.00  0.00    +0.014 A 
ATOM      6  C   LIG    1        1.410  -4.072   2.095  0.00  0.00    +0.069 C 
ATOM      7  C   LIG    1        0.159  -4.450   2.885  0.00  0.00    -0.000 C 
ATOM      8  C   LIG    1        0.354  -4.005   4.340  0.00  0.00    -0.077 C 
ATOM      9  N   LIG    1        1.552  -4.637   4.901  0.00  0.00    +0.384 N 
ATOM     10  H   LIG    1        1.450  -5.639   4.857  0.00  0.00    -0.081 HD
ATOM     11  C   LIG    1        2.750  -4.239   4.152  0.00  0.00    -0.031 C 
ATOM     12  C   LIG    1        2.633  -4.735   2.709  0.00  0.00    +0.068 C 
ATOM     13  C   LIG    1        3.887  -4.360   1.922  0.00  0.00    +0.042 C 
ATOM     14  C   LIG    1        3.752  -4.900   0.497  0.00  0.00    +0.081 C 
ATOM     15  C   LIG    1        2.479  -4.378  -0.152  0.00  0.00    +0.175 C 
ATOM     16  O   LIG    1        2.510  -4.050  -1.313  0.00  0.00    -0.293 OA
ATOM     17  C   LIG    1        1.191  -4.223   0.601  0.00  0.00    +0.252 C 
ATOM     18  O   LIG    1        0.628  -2.926   0.236  0.00  0.00    -0.476 OA
ATOM     19  C   LIG    1        2.989  -2.745   4.285  0.00  0.00    +0.023 C 
ATOM     20  C   LIG    1        1.112  -1.987   1.078  0.00  0.00    +0.167 A 
ENDROOT
BRANCH   1  22
ATOM     21  C   LIG    1        0.811   1.494  -0.098  0.00  0.00    +0.277 C 
ATOM     22  O   LIG    1        0.673   0.071  -0.091  0.00  0.00    -0.491 OA
ENDBRANCH   1  22
BRANCH  12  23
ATOM     23  O   LIG    1        2.462  -6.154   2.702  0.00  0.00    -0.389 OA
ATOM     24  H   LIG    1        3.206  -6.642   3.080  0.00  0.00    +0.210 HD
ENDBRANCH  12  23
BRANCH   9  25
ATOM     25  C   LIG    1        1.702  -4.228   6.304  0.00  0.00    -0.075 C 
BRANCH  25  26
ATOM     26  C   LIG    1        0.552  -4.809   7.130  0.00  0.00    -0.028 C 
ATOM     27  C   LIG    1       -0.415  -3.823   7.787  0.00  0.00    +0.002 C 
ATOM     28  C   LIG    1        0.590  -4.595   8.644  0.00  0.00    +0.002 C 
ENDBRANCH  25  26
ENDBRANCH   9  25
TORSDOF 4
