REMARK  Name = ZINC13526669
REMARK                            x       y       z     vdW  Elec       q    Type
REMARK                         _______ _______ _______ _____ _____    ______ ____
ROOT
ATOM      1  C   LIG    1       -0.494   3.579   0.133  0.00  0.00    +0.103 A 
ATOM      2  C   LIG    1        0.777   3.387  -0.308  0.00  0.00    +0.041 A 
ATOM      3  C   LIG    1        1.131   2.044  -0.032  0.00  0.00    +0.002 A 
ATOM      4  C   LIG    1        2.291   1.291  -0.256  0.00  0.00    +0.032 A 
ATOM      5  C   LIG    1        2.333  -0.032   0.136  0.00  0.00    +0.025 A 
ATOM      6  C   LIG    1        1.228  -0.619   0.753  0.00  0.00    +0.025 A 
ATOM      7  C   LIG    1        0.083   0.110   0.979  0.00  0.00    +0.028 A 
ATOM      8  C   LIG    1        0.019   1.445   0.591  0.00  0.00    +0.047 A 
ATOM      9  N   LIG    1       -0.968   2.402   0.677  0.00  0.00    -0.351 N 
ATOM     10  H   LIG    1       -1.988   2.356   1.085  0.00  0.00    +0.166 HD
ENDROOT
BRANCH   1  16
ATOM     11  C   LIG    1       -6.166   4.680  -2.243  0.00  0.00    +0.105 C 
ATOM     12  N   LIG    1       -5.122   4.734  -1.211  0.00  0.00    -0.302 NA
ATOM     13  C   LIG    1       -4.280   3.532  -1.250  0.00  0.00    +0.103 C 
ATOM     14  C   LIG    1       -3.325   3.542  -0.051  0.00  0.00    +0.123 C 
ATOM     15  N   LIG    1       -2.591   4.816  -0.049  0.00  0.00    -0.294 N 
ATOM     16  C   LIG    1       -1.246   4.839   0.040  0.00  0.00    +0.263 C 
ATOM     17  O   LIG    1       -0.655   5.903   0.043  0.00  0.00    -0.268 OA
ATOM     18  C   LIG    1       -3.363   6.064  -0.141  0.00  0.00    +0.123 C 
ATOM     19  C   LIG    1       -4.316   5.955  -1.342  0.00  0.00    +0.103 C 
ENDBRANCH   1  16
BRANCH   5  20
ATOM     20  N   LIG    1        3.490  -0.788  -0.087  0.00  0.00    -0.358 N 
ATOM     21  H   LIG    1        4.363  -0.327  -0.573  0.00  0.00    +0.142 HD
ATOM     22  H   LIG    1        3.526  -1.842   0.225  0.00  0.00    +0.142 HD
ENDBRANCH   5  20
TORSDOF 2
