REMARK  Name = ZINC13487644
REMARK                            x       y       z     vdW  Elec       q    Type
REMARK                         _______ _______ _______ _____ _____    ______ ____
ROOT
ATOM      1  N   LIG    1        1.015  10.727   3.750  0.00  0.00    -0.203 N 
ENDROOT
BRANCH   1   5
ATOM      2  C   LIG    1        3.885   8.376   5.650  0.00  0.00    +0.121 A 
ATOM      3  C   LIG    1        2.538   8.079   5.796  0.00  0.00    +0.047 A 
ATOM      4  C   LIG    1        1.586   8.857   5.167  0.00  0.00    +0.028 A 
ATOM      5  C   LIG    1        1.978   9.938   4.388  0.00  0.00    +0.051 A 
ATOM      6  C   LIG    1        3.327  10.231   4.238  0.00  0.00    +0.028 A 
ATOM      7  C   LIG    1        4.277   9.455   4.872  0.00  0.00    +0.047 A 
BRANCH   2   8
ATOM      8  O   LIG    1        4.821   7.608   6.269  0.00  0.00    -0.489 OA
BRANCH   8  12
ATOM      9  N   LIG    1        4.399   4.543   9.048  0.00  0.00    -0.228 N 
ATOM     10  C   LIG    1        4.979   4.160   7.753  0.00  0.00    +0.229 C 
ATOM     11  C   LIG    1        5.491   5.421   7.050  0.00  0.00    +0.088 C 
ATOM     12  C   LIG    1        4.356   6.443   6.953  0.00  0.00    +0.181 C 
ATOM     13  C   LIG    1        3.893   6.829   8.360  0.00  0.00    +0.088 C 
ATOM     14  C   LIG    1        3.363   5.584   9.078  0.00  0.00    +0.229 C 
BRANCH   9  16
ATOM     15  C   LIG    1        5.788   2.789  10.147  0.00  0.00    +0.140 C 
ATOM     16  C   LIG    1        4.818   3.941  10.205  0.00  0.00    +0.235 C 
ATOM     17  N   LIG    1        4.337   4.415  11.333  0.00  0.00    -0.293 N 
ATOM     18  H   LIG    1        3.678   5.202  11.320  0.00  0.00    +0.301 HD
ATOM     19  H   LIG    1        4.618   4.001  12.222  0.00  0.00    +0.301 HD
ENDBRANCH   9  16
ENDBRANCH   8  12
ENDBRANCH   2   8
ENDBRANCH   1   5
BRANCH   1  20
ATOM     20  S   LIG    1       -0.152  11.492   4.642  0.00  0.00    +0.043 S 
ATOM     21  C   LIG    1       -1.483  10.271   4.812  0.00  0.00    +0.218 C 
ATOM     22  O   LIG    1       -0.581  12.573   3.827  0.00  0.00    -0.155 OA
ATOM     23  O   LIG    1        0.456  11.733   5.904  0.00  0.00    -0.155 OA
ENDBRANCH   1  20
BRANCH   1  24
ATOM     24  C   LIG    1        1.039  10.878   2.293  0.00  0.00    +0.166 C 
BRANCH  24  25
ATOM     25  C   LIG    1        0.365   9.690   1.654  0.00  0.00    -0.028 A 
ATOM     26  C   LIG    1       -0.984   9.741   1.355  0.00  0.00    +0.005 A 
ATOM     27  C   LIG    1       -1.609   8.655   0.769  0.00  0.00    +0.001 A 
ATOM     28  C   LIG    1       -0.888   7.514   0.481  0.00  0.00    +0.008 A 
ATOM     29  C   LIG    1        0.471   7.457   0.780  0.00  0.00    -0.018 A 
ATOM     30  C   LIG    1        1.095   8.553   1.375  0.00  0.00    +0.013 A 
BRANCH  29  31
ATOM     31  C   LIG    1        1.252   6.233   0.472  0.00  0.00    -0.017 A 
ATOM     32  C   LIG    1        2.612   6.179   0.771  0.00  0.00    +0.008 A 
ATOM     33  C   LIG    1        3.341   5.041   0.485  0.00  0.00    +0.001 A 
ATOM     34  C   LIG    1        2.727   3.950  -0.099  0.00  0.00    +0.016 A 
ATOM     35  C   LIG    1        1.366   3.993  -0.403  0.00  0.00    +0.061 A 
ATOM     36  C   LIG    1        0.627   5.139  -0.117  0.00  0.00    +0.024 A 
BRANCH  35  37
ATOM     37  C   LIG    1        0.708   2.824  -1.030  0.00  0.00    +0.266 C 
ATOM     38  N   LIG    1       -0.585   2.929  -1.294  0.00  0.00    -0.288 N 
ATOM     39  H   LIG    1       -1.087   3.795  -1.064  0.00  0.00    +0.301 HD
ATOM     40  H   LIG    1       -1.083   2.150  -1.726  0.00  0.00    +0.301 HD
BRANCH  37  41
ATOM     41  N   LIG    1        1.441   1.691  -1.313  0.00  0.00    -0.250 N 
ATOM     42  H   LIG    1        1.010   0.925  -1.724  0.00  0.00    +0.288 HD
ATOM     43  H   LIG    1        2.387   1.660  -1.102  0.00  0.00    +0.288 HD
ENDBRANCH  37  41
ENDBRANCH  35  37
ENDBRANCH  29  31
ENDBRANCH  24  25
ENDBRANCH   1  24
TORSDOF 10
