REMARK  Name = ZINC13475024
REMARK                            x       y       z     vdW  Elec       q    Type
REMARK                         _______ _______ _______ _____ _____    ______ ____
ROOT
ATOM      1  C   LIG    1        1.571  -3.731  -2.701  0.00  0.00    +0.104 C 
ATOM      2  C   LIG    1        2.206  -4.247  -3.822  0.00  0.00    +0.130 C 
ENDROOT
BRANCH   2   3
ATOM      3  C   LIG    1        2.417  -5.690  -3.944  0.00  0.00    +0.042 A 
ATOM      4  C   LIG    1        1.960  -6.669  -3.087  0.00  0.00    +0.095 A 
ATOM      5  N   LIG    1        2.357  -7.883  -3.534  0.00  0.00    -0.360 N 
ATOM      6  C   LIG    1        3.089  -7.756  -4.698  0.00  0.00    +0.047 A 
ATOM      7  C   LIG    1        3.708  -8.679  -5.533  0.00  0.00    +0.027 A 
ATOM      8  C   LIG    1        4.370  -8.249  -6.663  0.00  0.00    +0.022 A 
ATOM      9  C   LIG    1        4.439  -6.898  -6.971  0.00  0.00    +0.042 A 
ATOM     10 CL   LIG    1        5.288  -6.377  -8.393  0.00  0.00    -0.084 Cl
ATOM     11  C   LIG    1        3.836  -5.967  -6.152  0.00  0.00    +0.030 A 
ATOM     12  H   LIG    1        2.156  -8.725  -3.097  0.00  0.00    +0.165 HD
ATOM     13  C   LIG    1        3.156  -6.389  -5.013  0.00  0.00    +0.012 A 
ENDBRANCH   2   3
BRANCH   1  14
ATOM     14  C   LIG    1        1.472  -2.350  -2.529  0.00  0.00    +0.266 C 
ATOM     15  O   LIG    1        1.943  -1.597  -3.364  0.00  0.00    -0.280 OA
BRANCH  14  16
ATOM     16  C   LIG    1        0.791  -1.796  -1.327  0.00  0.00    +0.379 C 
ATOM     17  O   LIG    1        0.322  -2.546  -0.496  0.00  0.00    -0.241 OA
BRANCH  16  18
ATOM     18  O   LIG    1        0.695  -0.464  -1.161  0.00  0.00    -0.459 OA
BRANCH  18  20
ATOM     19  C   LIG    1        0.019   1.527   0.030  0.00  0.00    +0.048 C 
ATOM     20  C   LIG    1        0.029  -0.003   0.016  0.00  0.00    +0.229 C 
ENDBRANCH  18  20
ENDBRANCH  16  18
ENDBRANCH  14  16
ENDBRANCH   1  14
BRANCH   2  21
ATOM     21  O   LIG    1        2.629  -3.417  -4.800  0.00  0.00    -0.506 OA
ATOM     22  H   LIG    1        2.494  -2.493  -4.722  0.00  0.00    +0.292 HD
ENDBRANCH   2  21
TORSDOF 6
