REMARK  Name = ZINC13519034
REMARK                            x       y       z     vdW  Elec       q    Type
REMARK                         _______ _______ _______ _____ _____    ______ ____
ROOT
ATOM      1  C   LIG    1       -1.329   1.940   0.019  0.00  0.00    +0.098 C 
ENDROOT
BRANCH   1   2
ATOM      2  C   LIG    1       -0.014   1.204   0.009  0.00  0.00    +0.308 C 
ATOM      3  O   LIG    1        0.002  -0.004   0.002  0.00  0.00    -0.251 OA
BRANCH   2   4
ATOM      4  O   LIG    1        1.139   1.891   0.001  0.00  0.00    -0.480 OA
ATOM      5  H   LIG    1        1.126   2.828   0.006  0.00  0.00    +0.295 HD
ENDBRANCH   2   4
ENDBRANCH   1   2
BRANCH   1   6
ATOM      6  C   LIG    1       -1.417   2.811   1.273  0.00  0.00    +0.015 C 
BRANCH   6   7
ATOM      7  C   LIG    1       -0.344   3.901   1.213  0.00  0.00    +0.011 C 
BRANCH   7   8
ATOM      8  C   LIG    1       -0.431   4.772   2.467  0.00  0.00    +0.065 C 
BRANCH   8   9
ATOM      9  S   LIG    1        0.841   6.064   2.396  0.00  0.00    -0.178 S 
ATOM     10  H   LIG    1        0.667   6.756   3.536  0.00  0.00    +0.102 HD
ENDBRANCH   8   9
ENDBRANCH   7   8
ENDBRANCH   6   7
ENDBRANCH   1   6
BRANCH   1  11
ATOM     11  C   LIG    1       -2.479   0.930   0.019  0.00  0.00    +0.026 C 
BRANCH  11  12
ATOM     12  C   LIG    1       -2.466   0.142  -1.293  0.00  0.00    +0.121 C 
BRANCH  12  13
ATOM     13  C   LIG    1       -3.598  -0.852  -1.293  0.00  0.00    +0.305 C 
ATOM     14  O   LIG    1       -4.339  -0.924  -0.341  0.00  0.00    -0.251 OA
BRANCH  13  15
ATOM     15  O   LIG    1       -3.783  -1.659  -2.350  0.00  0.00    -0.481 OA
ATOM     16  H   LIG    1       -3.208  -1.603  -3.088  0.00  0.00    +0.295 HD
ENDBRANCH  13  15
ENDBRANCH  12  13
ENDBRANCH  11  12
ENDBRANCH   1  11
TORSDOF 10
