REMARK  Name = ZINC13161742
REMARK                            x       y       z     vdW  Elec       q    Type
REMARK                         _______ _______ _______ _____ _____    ______ ____
ROOT
ATOM      1  C   LIG    1        1.433   1.874  -0.060  0.00  0.00    +0.071 C 
ATOM      2  C   LIG    1        2.159   0.736   0.042  0.00  0.00    +0.188 C 
ATOM      3  C   LIG    1        1.241  -0.418   0.137  0.00  0.00    +0.282 C 
ATOM      4  N   LIG    1       -0.036   0.005   0.093  0.00  0.00    -0.284 N 
ATOM      5  O   LIG    1        1.587  -1.578   0.239  0.00  0.00    -0.267 OA
ATOM      6  C   LIG    1       -0.022   1.467  -0.033  0.00  0.00    +0.144 C 
ENDROOT
BRANCH   6   7
ATOM      7  C   LIG    1       -0.700   1.883  -1.313  0.00  0.00    -0.022 A 
ATOM      8  C   LIG    1       -0.365   1.268  -2.505  0.00  0.00    +0.006 A 
ATOM      9  C   LIG    1       -0.990   1.646  -3.678  0.00  0.00    +0.004 A 
ATOM     10  C   LIG    1       -1.944   2.646  -3.661  0.00  0.00    -0.045 A 
ATOM     11  C   LIG    1       -2.276   3.265  -2.471  0.00  0.00    +0.004 A 
ATOM     12  C   LIG    1       -1.654   2.883  -1.297  0.00  0.00    +0.006 A 
BRANCH  10  13
ATOM     13  C   LIG    1       -2.623   3.062  -4.941  0.00  0.00    +0.013 C 
ATOM     14  C   LIG    1       -3.357   1.861  -5.543  0.00  0.00    +0.012 C 
ATOM     15  C   LIG    1       -1.574   3.567  -5.933  0.00  0.00    +0.012 C 
ENDBRANCH  10  13
ENDBRANCH   6   7
BRANCH   1  16
ATOM     16  C   LIG    1        1.956   3.238  -0.176  0.00  0.00    +0.195 C 
ATOM     17  O   LIG    1        2.580   3.568  -1.167  0.00  0.00    -0.287 OA
BRANCH  16  22
ATOM     18  C   LIG    1        1.065   7.032   4.058  0.00  0.00    +0.044 C 
ATOM     19  C   LIG    1        1.299   6.039   2.950  0.00  0.00    -0.050 A 
ATOM     20  C   LIG    1        1.906   6.447   1.775  0.00  0.00    +0.004 A 
ATOM     21  C   LIG    1        2.123   5.543   0.756  0.00  0.00    +0.012 A 
ATOM     22  C   LIG    1        1.728   4.213   0.912  0.00  0.00    +0.022 A 
ATOM     23  C   LIG    1        1.109   3.809   2.097  0.00  0.00    +0.012 A 
ATOM     24  C   LIG    1        0.904   4.722   3.110  0.00  0.00    +0.004 A 
ENDBRANCH  16  22
ENDBRANCH   1  16
BRANCH   2  25
ATOM     25  O   LIG    1        3.510   0.667   0.055  0.00  0.00    -0.502 OA
ATOM     26  H   LIG    1        4.020   1.450  -0.009  0.00  0.00    +0.292 HD
ENDBRANCH   2  25
BRANCH   4  27
ATOM     27  C   LIG    1       -1.228  -0.844   0.159  0.00  0.00    +0.111 C 
BRANCH  27  28
ATOM     28  C   LIG    1       -1.634  -1.263  -1.255  0.00  0.00    +0.047 C 
BRANCH  28  29
ATOM     29  C   LIG    1       -2.880  -2.150  -1.186  0.00  0.00    +0.161 C 
BRANCH  29  30
ATOM     30  O   LIG    1       -3.259  -2.542  -2.507  0.00  0.00    -0.383 OA
ATOM     31  C   LIG    1       -4.418  -3.376  -2.555  0.00  0.00    +0.193 C 
ENDBRANCH  29  30
ENDBRANCH  28  29
ENDBRANCH  27  28
ENDBRANCH   4  27
TORSDOF 9
