REMARK  Name = ZINC13512169
REMARK                            x       y       z     vdW  Elec       q    Type
REMARK                         _______ _______ _______ _____ _____    ______ ____
ROOT
ATOM      1  CA  LIG    1       -3.424  -1.211  -1.167  0.00  0.00    +0.097 C 
ATOM      2  C   LIG    1       -3.971  -1.214  -2.405  0.00  0.00    +0.036 C 
ENDROOT
BRANCH   2   3
ATOM      3  C   LIG    1       -3.119  -1.008  -3.586  0.00  0.00    -0.023 A 
ATOM      4  C   LIG    1       -3.453  -1.606  -4.806  0.00  0.00    +0.009 A 
ATOM      5  C   LIG    1       -2.650  -1.409  -5.908  0.00  0.00    +0.016 A 
ATOM      6  C   LIG    1       -1.515  -0.620  -5.811  0.00  0.00    +0.018 A 
ATOM      7 BR   LIG    1       -0.420  -0.356  -7.330  0.00  0.00    -0.050 Br
ATOM      8  C   LIG    1       -1.179  -0.025  -4.607  0.00  0.00    +0.016 A 
ATOM      9  C   LIG    1       -1.975  -0.208  -3.497  0.00  0.00    +0.009 A 
ENDBRANCH   2   3
BRANCH   1  12
ATOM     10  N   LIG    1       -1.218  -2.239  -1.365  0.00  0.00    -0.297 N 
ATOM     11  H   LIG    1       -1.651  -3.057  -1.656  0.00  0.00    +0.150 HD
ATOM     12  C   LIG    1       -1.963  -1.173  -1.010  0.00  0.00    +0.259 C 
ATOM     13  O   LIG    1       -1.425  -0.179  -0.559  0.00  0.00    -0.269 OA
BRANCH  10  15
ATOM     14  CB  LIG    1        0.718  -2.488   0.108  0.00  0.00    +0.040 C 
ATOM     15  CA  LIG    1        0.243  -2.163  -1.310  0.00  0.00    +0.179 C 
BRANCH  15  16
ATOM     16  C   LIG    1        0.835  -3.155  -2.277  0.00  0.00    +0.325 C 
ATOM     17  O   LIG    1        0.120  -3.983  -2.814  0.00  0.00    -0.249 OA
BRANCH  16  18
ATOM     18  OXT LIG    1        2.029  -3.129  -2.523  0.00  0.00    -0.479 OA
ATOM     19  HXT LIG    1        2.579  -2.493  -2.110  0.00  0.00    +0.295 HD
ENDBRANCH  16  18
ENDBRANCH  15  16
ENDBRANCH  10  15
ENDBRANCH   1  12
BRANCH   1  20
ATOM     20  N   LIG    1       -4.248  -1.245  -0.038  0.00  0.00    -0.275 N 
ATOM     21  H   LIG    1       -5.211  -1.187  -0.139  0.00  0.00    +0.155 HD
ATOM     22  C   LIG    1       -3.704  -1.359   1.190  0.00  0.00    +0.284 C 
ATOM     23  O   LIG    1       -2.494  -1.346   1.323  0.00  0.00    -0.266 OA
BRANCH  22  24
ATOM     24  C   LIG    1       -4.570  -1.499   2.364  0.00  0.00    +0.191 A 
ATOM     25  C   LIG    1       -4.152  -1.618   3.659  0.00  0.00    +0.056 A 
ATOM     26  C   LIG    1       -5.307  -1.726   4.447  0.00  0.00    +0.058 A 
ATOM     27  C   LIG    1       -6.368  -1.671   3.609  0.00  0.00    +0.171 A 
ATOM     28 BR   LIG    1       -8.185  -1.770   4.124  0.00  0.00    -0.008 Br
ATOM     29  O   LIG    1       -5.919  -1.528   2.355  0.00  0.00    -0.444 OA
ENDBRANCH  22  24
ENDBRANCH   1  20
TORSDOF 7
