REMARK  Name = ZINC13521891
REMARK                            x       y       z     vdW  Elec       q    Type
REMARK                         _______ _______ _______ _____ _____    ______ ____
ROOT
ATOM      1  C   LIG    1       -0.017   1.383   0.010  0.00  0.00    +0.018 C 
ATOM      2  C   LIG    1       -1.231   2.047   0.019  0.00  0.00    +0.034 C 
ATOM      3  C   LIG    1       -2.400   1.290   0.021  0.00  0.00    +0.140 C 
ATOM      4  C   LIG    1       -2.303  -0.106   0.012  0.00  0.00    +0.170 C 
ATOM      5  N   LIG    1       -1.114  -0.698   0.004  0.00  0.00    -0.304 NA
ATOM      6  H   LIG    1       -1.069  -1.666  -0.001  0.00  0.00    +0.123 HD
ATOM      7  C   LIG    1        0.002  -0.004   0.002  0.00  0.00    +0.082 C 
ENDROOT
BRANCH   4   8
ATOM      8  C   LIG    1       -3.532  -0.927   0.014  0.00  0.00    +0.238 C 
ATOM      9  N   LIG    1       -3.444  -2.272   0.006  0.00  0.00    -0.263 N 
ATOM     10  H   LIG    1       -2.574  -2.700  -0.000  0.00  0.00    +0.157 HD
ATOM     11  O   LIG    1       -4.622  -0.389   0.022  0.00  0.00    -0.274 OA
BRANCH   9  12
ATOM     12  C   LIG    1       -4.598  -3.043   0.007  0.00  0.00    +0.164 A 
ATOM     13  N   LIG    1       -5.851  -2.641   0.010  0.00  0.00    -0.233 NA
ATOM     14  C   LIG    1       -6.846  -3.508   0.010  0.00  0.00    +0.120 A 
ATOM     15  C   LIG    1       -6.518  -4.823   0.008  0.00  0.00    +0.068 A 
ATOM     16  S   LIG    1       -4.735  -4.721  -0.001  0.00  0.00    -0.061 S 
ENDBRANCH   9  12
ENDBRANCH   4   8
BRANCH   3  17
ATOM     17  O   LIG    1       -3.614   1.897   0.030  0.00  0.00    -0.390 OA
ATOM     18  H   LIG    1       -3.855   2.122   0.942  0.00  0.00    +0.210 HD
ENDBRANCH   3  17
TORSDOF 3
