REMARK  Name = ZINC13472189
REMARK                            x       y       z     vdW  Elec       q    Type
REMARK                         _______ _______ _______ _____ _____    ______ ____
ROOT
ATOM      1  C   LIG    1        1.705   3.217   0.003  0.00  0.00    +0.072 C 
ATOM      2  C   LIG    1        0.768   4.017   0.869  0.00  0.00    +0.033 C 
ATOM      3  C   LIG    1        1.296   5.378   1.235  0.00  0.00    +0.105 C 
ATOM      4  N   LIG    1        1.193   6.359   0.188  0.00  0.00    -0.310 N 
ATOM      5  H   LIG    1        0.963   7.255   0.479  0.00  0.00    +0.149 HD
ATOM      6  C   LIG    1        1.366   6.212  -1.105  0.00  0.00    +0.261 C 
ATOM      7  C   LIG    1        1.622   4.999  -1.861  0.00  0.00    +0.108 A 
ATOM      8  N   LIG    1        1.770   4.966  -3.240  0.00  0.00    -0.344 N 
ATOM      9  H   LIG    1        1.734   5.736  -3.829  0.00  0.00    +0.167 HD
ATOM     10  C   LIG    1        1.965   3.688  -3.630  0.00  0.00    +0.098 A 
ATOM     11 BR   LIG    1        2.203   3.105  -5.413  0.00  0.00    -0.030 Br
ATOM     12  C   LIG    1        1.967   2.894  -2.533  0.00  0.00    +0.054 A 
ATOM     13 BR   LIG    1        2.210   1.019  -2.518  0.00  0.00    -0.047 Br
ATOM     14  O   LIG    1        1.304   7.236  -1.761  0.00  0.00    -0.269 OA
ATOM     15  C   LIG    1        1.758   3.708  -1.410  0.00  0.00    +0.006 A 
ENDROOT
BRANCH   1  17
ATOM     16  C   LIG    1       -0.016   1.340   0.009  0.00  0.00    +0.107 A 
ATOM     17  C   LIG    1        1.254   1.779  -0.000  0.00  0.00    +0.042 A 
ATOM     18  N   LIG    1        2.064   0.666  -0.014  0.00  0.00    -0.331 N 
ATOM     19  C   LIG    1        1.246  -0.421  -0.012  0.00  0.00    +0.168 A 
ATOM     20  H   LIG    1        3.034   0.659  -0.023  0.00  0.00    +0.168 HD
ATOM     21  N   LIG    1        0.002  -0.004   0.002  0.00  0.00    -0.334 N 
ATOM     22  H   LIG    1       -0.781  -0.576   0.006  0.00  0.00    +0.168 HD
BRANCH  19  23
ATOM     23  N   LIG    1        1.657  -1.743  -0.024  0.00  0.00    -0.330 N 
ATOM     24  H   LIG    1        0.999  -2.456  -0.021  0.00  0.00    +0.145 HD
ATOM     25  H   LIG    1        2.603  -1.957  -0.034  0.00  0.00    +0.145 HD
ENDBRANCH  19  23
ENDBRANCH   1  17
TORSDOF 2
