REMARK  Name = ZINC13523954
REMARK                            x       y       z     vdW  Elec       q    Type
REMARK                         _______ _______ _______ _____ _____    ______ ____
ROOT
ATOM      1  C   LIG    1        2.405   0.034  -0.021  0.00  0.00    +0.001 A 
ATOM      2  C   LIG    1        1.209  -0.670  -0.013  0.00  0.00    +0.001 A 
ATOM      3  C   LIG    1        0.002  -0.004   0.002  0.00  0.00    +0.014 A 
ATOM      4  C   LIG    1       -0.017   1.390   0.010  0.00  0.00    +0.047 A 
ATOM      5  C   LIG    1        1.200   2.104   0.002  0.00  0.00    -0.002 A 
ATOM      6  C   LIG    1        1.145   3.576   0.010  0.00  0.00    +0.025 A 
ATOM      7  C   LIG    1        2.314   4.338   0.003  0.00  0.00    +0.013 A 
ATOM      8  C   LIG    1        2.195   5.717   0.012  0.00  0.00    +0.020 A 
ATOM      9  C   LIG    1        0.933   6.288   0.026  0.00  0.00    +0.113 A 
ATOM     10  N   LIG    1       -0.155   5.547   0.032  0.00  0.00    -0.237 NA
ATOM     11  C   LIG    1       -0.102   4.221   0.025  0.00  0.00    +0.141 A 
ATOM     12  N   LIG    1       -1.272   3.487   0.032  0.00  0.00    -0.306 N 
ATOM     13  H   LIG    1       -2.120   3.959   0.042  0.00  0.00    +0.170 HD
ATOM     14  C   LIG    1       -1.280   2.143   0.020  0.00  0.00    +0.258 A 
ATOM     15  O   LIG    1       -2.339   1.544   0.022  0.00  0.00    -0.267 OA
ATOM     16  C   LIG    1        2.407   1.414  -0.013  0.00  0.00    +0.009 A 
ENDROOT
TORSDOF 0
