REMARK  Name = ZINC13108877
REMARK                            x       y       z     vdW  Elec       q    Type
REMARK                         _______ _______ _______ _____ _____    ______ ____
ROOT
ATOM      1  C   LIG    1       -0.766  -1.958   3.029  0.00  0.00    +0.040 A 
ATOM      2  C   LIG    1       -1.580  -1.009   3.637  0.00  0.00    +0.127 A 
ATOM      3  C   LIG    1       -1.933  -1.127   4.972  0.00  0.00    +0.093 A 
ATOM      4  C   LIG    1       -1.478  -2.203   5.722  0.00  0.00    +0.146 A 
ATOM      5  C   LIG    1       -0.663  -3.168   5.105  0.00  0.00    +0.106 A 
ATOM      6  C   LIG    1       -0.207  -4.319   5.905  0.00  0.00    +0.204 A 
ATOM      7  C   LIG    1       -0.878  -4.506   7.208  0.00  0.00    +0.072 A 
ATOM      8  C   LIG    1       -0.725  -5.691   7.930  0.00  0.00    +0.016 A 
ATOM      9  C   LIG    1       -1.371  -5.840   9.140  0.00  0.00    +0.163 A 
ATOM     10  C   LIG    1       -2.172  -4.808   9.635  0.00  0.00    +0.166 A 
ATOM     11  C   LIG    1       -2.324  -3.631   8.924  0.00  0.00    +0.044 A 
ATOM     12  C   LIG    1       -1.677  -3.463   7.705  0.00  0.00    +0.147 A 
ATOM     13  O   LIG    1        0.671  -5.069   5.517  0.00  0.00    -0.286 OA
ATOM     14  O   LIG    1       -1.817  -2.308   7.023  0.00  0.00    -0.454 OA
ATOM     15  C   LIG    1       -0.307  -3.042   3.756  0.00  0.00    +0.138 A 
ENDROOT
BRANCH   2  16
ATOM     16  O   LIG    1       -2.034   0.047   2.914  0.00  0.00    -0.506 OA
ATOM     17  H   LIG    1       -2.880  -0.112   2.474  0.00  0.00    +0.292 HD
ENDBRANCH   2  16
BRANCH   9  18
ATOM     18  O   LIG    1       -1.228  -6.991   9.850  0.00  0.00    -0.503 OA
ATOM     19  H   LIG    1       -0.486  -6.981  10.471  0.00  0.00    +0.292 HD
ENDBRANCH   9  18
BRANCH  10  20
ATOM     20  O   LIG    1       -2.807  -4.961  10.825  0.00  0.00    -0.503 OA
ATOM     21  H   LIG    1       -2.292  -4.663  11.587  0.00  0.00    +0.292 HD
ENDBRANCH  10  20
BRANCH  15  22
ATOM     22  O   LIG    1        0.486  -3.972   3.168  0.00  0.00    -0.506 OA
ATOM     23  H   LIG    1        1.432  -3.781   3.233  0.00  0.00    +0.292 HD
ENDBRANCH  15  22
BRANCH   1  24
ATOM     24  C   LIG    1       -0.389  -1.810   1.578  0.00  0.00    +0.069 C 
BRANCH  24  28
ATOM     25  C   LIG    1       -1.696  -0.389  -0.474  0.00  0.00    +0.038 C 
ATOM     26  C   LIG    1       -2.025  -1.840  -0.235  0.00  0.00    -0.079 C 
ATOM     27  C   LIG    1       -3.053  -2.531  -1.094  0.00  0.00    +0.038 C 
ATOM     28  C   LIG    1       -1.417  -2.501   0.719  0.00  0.00    -0.023 C 
ENDBRANCH  24  28
ENDBRANCH   1  24
BRANCH   8  29
ATOM     29  C   LIG    1        0.140  -6.801   7.390  0.00  0.00    +0.067 C 
BRANCH  29  30
ATOM     30  C   LIG    1        1.554  -6.618   7.879  0.00  0.00    -0.023 C 
ATOM     31  C   LIG    1        2.156  -7.590   8.519  0.00  0.00    -0.079 C 
ATOM     32  C   LIG    1        3.569  -7.407   9.008  0.00  0.00    +0.038 C 
ATOM     33  C   LIG    1        1.434  -8.890   8.767  0.00  0.00    +0.038 C 
ENDBRANCH  29  30
ENDBRANCH   8  29
BRANCH  11  34
ATOM     34  C   LIG    1       -3.192  -2.528   9.472  0.00  0.00    +0.069 C 
BRANCH  34  35
ATOM     35  C   LIG    1       -2.358  -1.609  10.326  0.00  0.00    -0.023 C 
ATOM     36  C   LIG    1       -2.349  -0.321  10.088  0.00  0.00    -0.079 C 
ATOM     37  C   LIG    1       -1.628   0.614  11.024  0.00  0.00    +0.038 C 
ATOM     38  C   LIG    1       -3.060   0.226   8.877  0.00  0.00    +0.038 C 
ENDBRANCH  34  35
ENDBRANCH  11  34
TORSDOF 10
