REMARK  Name = ZINC13531895
REMARK                            x       y       z     vdW  Elec       q    Type
REMARK                         _______ _______ _______ _____ _____    ______ ____
ROOT
ATOM      1  N   LIG    1        1.139   3.510  -0.015  0.00  0.00    -0.269 N 
ATOM      2  H   LIG    1        0.302   3.988  -0.123  0.00  0.00    +0.156 HD
ATOM      3  C   LIG    1        2.295   4.192   0.104  0.00  0.00    +0.308 C 
ATOM      4  N   LIG    1        2.279   5.537   0.178  0.00  0.00    -0.268 N 
ATOM      5  H   LIG    1        1.434   6.011   0.225  0.00  0.00    +0.156 HD
ATOM      6  O   LIG    1        3.353   3.593   0.143  0.00  0.00    -0.252 OA
ENDROOT
BRANCH   4   7
ATOM      7  C   LIG    1        3.476   6.248   0.188  0.00  0.00    +0.050 A 
ATOM      8  C   LIG    1        4.605   5.722  -0.425  0.00  0.00    +0.044 A 
ATOM      9  C   LIG    1        5.790   6.431  -0.418  0.00  0.00    +0.043 A 
ATOM     10 CL   LIG    1        7.196   5.770  -1.192  0.00  0.00    -0.083 Cl
ATOM     11  C   LIG    1        5.865   7.667   0.208  0.00  0.00    +0.021 A 
ATOM     12  C   LIG    1        4.757   8.202   0.826  0.00  0.00    +0.018 A 
ATOM     13  C   LIG    1        3.549   7.498   0.822  0.00  0.00    +0.080 A 
BRANCH  13  14
ATOM     14  C   LIG    1        2.359   8.065   1.481  0.00  0.00    +0.339 C 
ATOM     15  O   LIG    1        1.342   7.406   1.570  0.00  0.00    -0.245 OA
BRANCH  14  16
ATOM     16  O   LIG    1        2.399   9.315   1.984  0.00  0.00    -0.477 OA
ATOM     17  H   LIG    1        3.183   9.823   1.915  0.00  0.00    +0.295 HD
ENDBRANCH  14  16
ENDBRANCH  13  14
ENDBRANCH   4   7
BRANCH   1  21
ATOM     18  C   LIG    1        1.157  -0.659   0.084  0.00  0.00    +0.120 A 
ATOM     19  C   LIG    1        2.077   0.056   0.837  0.00  0.00    +0.047 A 
ATOM     20  C   LIG    1        2.071   1.437   0.805  0.00  0.00    +0.027 A 
ATOM     21  C   LIG    1        1.145   2.109   0.018  0.00  0.00    +0.035 A 
ATOM     22  C   LIG    1        0.226   1.392  -0.736  0.00  0.00    +0.027 A 
ATOM     23  C   LIG    1        0.232   0.011  -0.702  0.00  0.00    +0.047 A 
BRANCH  18  25
ATOM     24  C   LIG    1        0.189  -2.691  -0.683  0.00  0.00    +0.277 C 
ATOM     25  O   LIG    1        1.163  -2.019   0.117  0.00  0.00    -0.495 OA
ENDBRANCH  18  25
ENDBRANCH   1  21
TORSDOF 5
