REMARK  Name = ZINC13524440
REMARK                            x       y       z     vdW  Elec       q    Type
REMARK                         _______ _______ _______ _____ _____    ______ ____
ROOT
ATOM      1  C   LIG    1        0.030  -0.638   2.393  0.00  0.00    +0.122 C 
ATOM      2  C   LIG    1       -1.321  -0.330   2.459  0.00  0.00    +0.044 C 
ATOM      3  C   LIG    1       -1.990  -0.485   3.678  0.00  0.00    +0.042 C 
ATOM      4  C   LIG    1       -1.258  -0.949   4.783  0.00  0.00    +0.025 C 
ATOM      5  C   LIG    1        0.080  -1.231   4.630  0.00  0.00    +0.083 C 
ATOM      6  N   LIG    1        0.678  -1.078   3.462  0.00  0.00    -0.301 NA
ATOM      7  H   LIG    1        1.622  -1.289   3.385  0.00  0.00    +0.123 HD
ENDROOT
BRANCH   3   8
ATOM      8  C   LIG    1       -3.425  -0.170   3.799  0.00  0.00    +0.047 A 
ATOM      9  N   LIG    1       -4.074   0.949   3.308  0.00  0.00    -0.336 N 
ATOM     10  C   LIG    1       -5.388   0.831   3.643  0.00  0.00    +0.167 A 
ATOM     11  N   LIG    1       -5.565  -0.285   4.311  0.00  0.00    -0.222 NA
ATOM     12  H   LIG    1       -3.668   1.680   2.815  0.00  0.00    +0.168 HD
ATOM     13  C   LIG    1       -4.391  -0.931   4.431  0.00  0.00    +0.093 A 
BRANCH  13  14
ATOM     14  C   LIG    1       -4.172  -2.226   5.117  0.00  0.00    +0.002 A 
ATOM     15  C   LIG    1       -3.227  -3.127   4.626  0.00  0.00    +0.013 A 
ATOM     16  C   LIG    1       -3.027  -4.331   5.268  0.00  0.00    +0.039 A 
ATOM     17  C   LIG    1       -3.763  -4.647   6.399  0.00  0.00    +0.123 A 
ATOM     18  F   LIG    1       -3.563  -5.827   7.025  0.00  0.00    -0.205 F 
ATOM     19  C   LIG    1       -4.703  -3.755   6.891  0.00  0.00    +0.039 A 
ATOM     20  C   LIG    1       -4.906  -2.546   6.259  0.00  0.00    +0.013 A 
ENDBRANCH  13  14
BRANCH  10  21
ATOM     21  S   LIG    1       -6.650   1.996   3.248  0.00  0.00    -0.091 S 
ATOM     22  C   LIG    1       -8.151   1.277   3.969  0.00  0.00    +0.093 C 
ENDBRANCH  10  21
ENDBRANCH   3   8
BRANCH   1  23
ATOM     23  N   LIG    1        0.711  -0.489   1.189  0.00  0.00    -0.295 NA
ATOM     24  H   LIG    1        1.654  -0.707   1.135  0.00  0.00    +0.124 HD
BRANCH  23  26
ATOM     25  C   LIG    1       -0.019   1.526   0.010  0.00  0.00    +0.029 C 
ATOM     26  C   LIG    1        0.002  -0.004   0.002  0.00  0.00    +0.082 C 
BRANCH  26  27
ATOM     27  C   LIG    1        0.707  -0.490  -1.238  0.00  0.00    -0.031 A 
ATOM     28  C   LIG    1        2.089  -0.511  -1.284  0.00  0.00    +0.005 A 
ATOM     29  C   LIG    1        2.736  -0.957  -2.421  0.00  0.00    +0.000 A 
ATOM     30  C   LIG    1        2.002  -1.382  -3.512  0.00  0.00    +0.000 A 
ATOM     31  C   LIG    1        0.620  -1.362  -3.466  0.00  0.00    +0.000 A 
ATOM     32  C   LIG    1       -0.027  -0.920  -2.327  0.00  0.00    +0.005 A 
ENDBRANCH  26  27
ENDBRANCH  23  26
ENDBRANCH   1  23
TORSDOF 6
