REMARK  Name = ZINC13517144
REMARK                            x       y       z     vdW  Elec       q    Type
REMARK                         _______ _______ _______ _____ _____    ______ ____
ROOT
ATOM      1  C   LIG    1       -0.013   1.086   0.008  0.00  0.00    +0.157 C 
ATOM      2  N   LIG    1       -0.721   1.571  -1.179  0.00  0.00    -0.266 N 
ATOM      3  C   LIG    1       -0.854   2.913  -1.377  0.00  0.00    +0.226 A 
ATOM      4  C   LIG    1       -1.530   3.372  -2.509  0.00  0.00    +0.167 A 
ATOM      5  C   LIG    1       -2.058   2.429  -3.419  0.00  0.00    +0.167 A 
ATOM      6  N   LIG    1       -1.887   1.079  -3.159  0.00  0.00    -0.291 N 
ATOM      7  H   LIG    1       -2.244   0.418  -3.773  0.00  0.00    +0.172 HD
ATOM      8  N   LIG    1       -2.638   3.121  -4.384  0.00  0.00    -0.216 NA
ATOM      9  C   LIG    1       -2.501   4.419  -4.126  0.00  0.00    +0.224 A 
ATOM     10  N   LIG    1       -1.839   4.593  -3.005  0.00  0.00    -0.227 NA
ATOM     11  C   LIG    1       -1.224   0.685  -2.055  0.00  0.00    +0.331 A 
ATOM     12  O   LIG    1       -1.079  -0.504  -1.844  0.00  0.00    -0.246 OA
ENDROOT
BRANCH   3  13
ATOM     13  O   LIG    1       -0.339   3.785  -0.491  0.00  0.00    -0.492 OA
ATOM     14  H   LIG    1        0.113   3.471   0.267  0.00  0.00    +0.294 HD
ENDBRANCH   3  13
TORSDOF 1
