REMARK  Name = ZINC13542842
REMARK                            x       y       z     vdW  Elec       q    Type
REMARK                         _______ _______ _______ _____ _____    ______ ____
ROOT
ATOM      1  C   LIG    1        3.692   3.035  -0.017  0.00  0.00    +0.037 C 
ENDROOT
BRANCH   1   2
ATOM      2  C   LIG    1        4.140   4.498  -0.013  0.00  0.00    +0.003 C 
BRANCH   2   3
ATOM      3  C   LIG    1        5.669   4.562  -0.028  0.00  0.00    +0.000 C 
BRANCH   3   4
ATOM      4  C   LIG    1        6.117   6.025  -0.024  0.00  0.00    -0.002 C 
BRANCH   4   5
ATOM      5  C   LIG    1        7.646   6.090  -0.038  0.00  0.00    -0.020 C 
BRANCH   5   6
ATOM      6  C   LIG    1        8.095   7.553  -0.035  0.00  0.00    -0.086 C 
BRANCH   6   7
ATOM      7  N   LIG    1        9.567   7.603  -0.027  0.00  0.00    +0.378 N 
ATOM      8  H   LIG    1        9.916   7.154   0.829  0.00  0.00    -0.090 HD
ATOM      9  H   LIG    1        9.884   8.571  -0.046  0.00  0.00    -0.090 HD
ATOM     10  H   LIG    1        9.938   7.108  -0.836  0.00  0.00    -0.090 HD
ENDBRANCH   6   7
ENDBRANCH   5   6
ENDBRANCH   4   5
ENDBRANCH   3   4
ENDBRANCH   2   3
ENDBRANCH   1   2
BRANCH   1  11
ATOM     11  C   LIG    1        2.163   2.971  -0.003  0.00  0.00    +0.195 C 
BRANCH  11  12
ATOM     12  N   LIG    1        1.733   1.570  -0.006  0.00  0.00    -0.279 N 
ATOM     13  H   LIG    1        2.394   0.860  -0.016  0.00  0.00    +0.258 HD
BRANCH  12  14
ATOM     14  C   LIG    1        0.394   1.262   0.005  0.00  0.00    +0.341 C 
ATOM     15  N   LIG    1        0.070  -0.023   0.001  0.00  0.00    -0.292 N 
ATOM     16  H   LIG    1        0.807  -0.738  -0.010  0.00  0.00    +0.255 HD
ATOM     17  H   LIG    1       -0.911  -0.302   0.009  0.00  0.00    +0.255 HD
BRANCH  14  18
ATOM     18  N   LIG    1       -0.543   2.268   0.014  0.00  0.00    -0.292 N 
ATOM     19  H   LIG    1       -0.259   3.196   0.016  0.00  0.00    +0.255 HD
ATOM     20  H   LIG    1       -1.488   2.051   0.018  0.00  0.00    +0.255 HD
ENDBRANCH  14  18
ENDBRANCH  12  14
ENDBRANCH  11  12
ENDBRANCH   1  11
TORSDOF 10
