REMARK  Name = ZINC13534671
REMARK                            x       y       z     vdW  Elec       q    Type
REMARK                         _______ _______ _______ _____ _____    ______ ____
ROOT
ATOM      1  C   LIG    1        1.613  -1.246   4.373  0.00  0.00    +0.105 A 
ATOM      2  C   LIG    1        2.480  -2.210   3.890  0.00  0.00    +0.029 A 
ATOM      3  C   LIG    1        3.771  -2.285   4.373  0.00  0.00    +0.010 A 
ATOM      4  C   LIG    1        4.200  -1.386   5.349  0.00  0.00    -0.018 A 
ATOM      5  C   LIG    1        3.322  -0.417   5.831  0.00  0.00    +0.010 A 
ATOM      6  C   LIG    1        2.035  -0.349   5.337  0.00  0.00    +0.029 A 
ENDROOT
BRANCH   4   7
ATOM      7  C   LIG    1        5.586  -1.462   5.872  0.00  0.00    -0.018 A 
ATOM      8  C   LIG    1        6.465  -2.428   5.385  0.00  0.00    +0.012 A 
ATOM      9  C   LIG    1        7.753  -2.495   5.874  0.00  0.00    +0.046 A 
ATOM     10  C   LIG    1        8.174  -1.602   6.849  0.00  0.00    +0.120 A 
ATOM     11  C   LIG    1        7.301  -0.639   7.336  0.00  0.00    +0.046 A 
ATOM     12  C   LIG    1        6.014  -0.563   6.848  0.00  0.00    +0.012 A 
BRANCH  10  13
ATOM     13  O   LIG    1        9.444  -1.672   7.329  0.00  0.00    -0.495 OA
ATOM     14  C   LIG    1        9.811  -0.722   8.332  0.00  0.00    +0.277 C 
ENDBRANCH  10  13
ENDBRANCH   4   7
BRANCH   1  15
ATOM     15  S   LIG    1       -0.033  -1.157   3.751  0.00  0.00    +0.059 S 
ATOM     16  O   LIG    1       -0.350  -2.450   3.254  0.00  0.00    -0.153 OA
ATOM     17  O   LIG    1       -0.811  -0.513   4.751  0.00  0.00    -0.153 OA
BRANCH  15  18
ATOM     18  N   LIG    1       -0.008  -0.140   2.444  0.00  0.00    -0.176 NA
ATOM     19  H   LIG    1       -0.491   0.701   2.474  0.00  0.00    +0.149 HD
BRANCH  18  20
ATOM     20  C   LIG    1        0.742  -0.511   1.242  0.00  0.00    +0.187 C 
BRANCH  20  22
ATOM     21  C   LIG    1       -0.019   1.526   0.010  0.00  0.00    +0.009 C 
ATOM     22  C   LIG    1        0.002  -0.004   0.002  0.00  0.00    +0.012 C 
ATOM     23  C   LIG    1        0.718  -0.497  -1.257  0.00  0.00    +0.009 C 
ENDBRANCH  20  22
BRANCH  20  24
ATOM     24  C   LIG    1        2.115   0.108   1.295  0.00  0.00    +0.324 C 
ATOM     25  O   LIG    1        2.376   0.938   2.150  0.00  0.00    -0.249 OA
BRANCH  24  26
ATOM     26  O   LIG    1        2.964  -0.220   0.484  0.00  0.00    -0.479 OA
ATOM     27  H   LIG    1        2.763  -0.858  -0.172  0.00  0.00    +0.295 HD
ENDBRANCH  24  26
ENDBRANCH  20  24
ENDBRANCH  18  20
ENDBRANCH  15  18
ENDBRANCH   1  15
TORSDOF 8
