REMARK  Name = ZINC13487842
REMARK                            x       y       z     vdW  Elec       q    Type
REMARK                         _______ _______ _______ _____ _____    ______ ____
ROOT
ATOM      1  C   LIG    1       -3.848   0.173   1.357  0.00  0.00    +0.268 C 
ATOM      2  N   LIG    1       -4.788  -0.382   0.607  0.00  0.00    -0.288 N 
ATOM      3  H   LIG    1       -4.722  -0.334  -0.417  0.00  0.00    +0.301 HD
ATOM      4  H   LIG    1       -5.577  -0.856   1.046  0.00  0.00    +0.301 HD
ENDROOT
BRANCH   1   8
ATOM      5  C   LIG    1       -3.932   0.088   5.604  0.00  0.00    +0.000 A 
ATOM      6  C   LIG    1       -4.949  -0.513   4.883  0.00  0.00    +0.001 A 
ATOM      7  C   LIG    1       -4.927  -0.488   3.504  0.00  0.00    +0.016 A 
ATOM      8  C   LIG    1       -3.877   0.143   2.837  0.00  0.00    +0.061 A 
ATOM      9  C   LIG    1       -2.852   0.741   3.569  0.00  0.00    +0.016 A 
ATOM     10  C   LIG    1       -2.889   0.716   4.949  0.00  0.00    +0.001 A 
ENDBRANCH   1   8
BRANCH   1  11
ATOM     11  N   LIG    1       -2.810   0.797   0.700  0.00  0.00    -0.233 N 
ATOM     12  H   LIG    1       -2.098   1.217   1.208  0.00  0.00    +0.292 HD
BRANCH  11  13
ATOM     13  C   LIG    1       -2.780   0.826  -0.764  0.00  0.00    +0.259 C 
BRANCH  13  14
ATOM     14  C   LIG    1       -1.550   1.563  -1.227  0.00  0.00    -0.007 A 
ATOM     15  C   LIG    1       -0.373   0.873  -1.448  0.00  0.00    +0.007 A 
ATOM     16  C   LIG    1        0.754   1.547  -1.879  0.00  0.00    +0.002 A 
ATOM     17  C   LIG    1        0.706   2.914  -2.083  0.00  0.00    +0.020 A 
ATOM     18  C   LIG    1       -0.470   3.606  -1.857  0.00  0.00    +0.041 A 
ATOM     19 CL   LIG    1       -0.530   5.322  -2.112  0.00  0.00    -0.084 Cl
ATOM     20  C   LIG    1       -1.598   2.930  -1.426  0.00  0.00    +0.027 A 
ENDBRANCH  13  14
ENDBRANCH  11  13
ENDBRANCH   1  11
TORSDOF 4
