REMARK VINA RESULT:      -4.1      5.133      6.013
REMARK  Name = ZINC00000061
REMARK                            x       y       z     vdW  Elec       q    Type
REMARK                         _______ _______ _______ _____ _____    ______ ____
ROOT
ATOM      1  C   LIG    1       23.724  38.229  57.195  0.00  0.00    +0.012 C 
ENDROOT
BRANCH   1   8
ATOM      2  C   LIG    1       21.237  38.374  57.436  0.00  0.00    +0.005 A 
ATOM      3  C   LIG    1       19.979  37.800  57.417  0.00  0.00    +0.020 A 
ATOM      4  C   LIG    1       19.839  36.452  57.136  0.00  0.00    +0.041 A 
ATOM      5 CL   LIG    1       18.260  35.730  57.113  0.00  0.00    -0.084 Cl
ATOM      6  C   LIG    1       20.957  35.681  56.875  0.00  0.00    +0.020 A 
ATOM      7  C   LIG    1       22.213  36.256  56.894  0.00  0.00    +0.005 A 
ATOM      8  C   LIG    1       22.353  37.602  57.175  0.00  0.00    -0.045 A 
ENDBRANCH   1   8
BRANCH   1   9
ATOM      9  C   LIG    1       23.599  39.736  56.962  0.00  0.00    -0.078 C 
BRANCH   9  10
ATOM     10  N   LIG    1       23.918  40.042  55.561  0.00  0.00    +0.379 N 
ATOM     11  H   LIG    1       23.245  40.701  55.200  0.00  0.00    -0.090 HD
ATOM     12  H   LIG    1       23.884  39.194  55.015  0.00  0.00    -0.090 HD
ATOM     13  H   LIG    1       24.842  40.441  55.506  0.00  0.00    -0.090 HD
ENDBRANCH   9  10
ENDBRANCH   1   9
BRANCH   1  14
ATOM     14  C   LIG    1       24.583  37.611  56.091  0.00  0.00    +0.126 C 
BRANCH  14  15
ATOM     15  C   LIG    1       25.909  37.184  56.665  0.00  0.00    +0.305 C 
ATOM     16  O   LIG    1       26.320  36.052  56.474  0.00  0.00    -0.251 OA
BRANCH  15  17
ATOM     17  O   LIG    1       26.571  37.970  57.322  0.00  0.00    -0.481 OA
ATOM     18  H   LIG    1       26.366  38.884  57.304  0.00  0.00    +0.295 HD
ENDBRANCH  15  17
ENDBRANCH  14  15
ENDBRANCH   1  14
TORSDOF 6
