REMARK VINA RESULT:      -4.1      4.491      5.777
REMARK  Name = ZINC00000061
REMARK                            x       y       z     vdW  Elec       q    Type
REMARK                         _______ _______ _______ _____ _____    ______ ____
ROOT
ATOM      1  C   LIG    1       23.275  30.355  56.140  0.00  0.00    +0.012 C 
ENDROOT
BRANCH   1   8
ATOM      2  C   LIG    1       24.867  31.503  54.588  0.00  0.00    +0.005 A 
ATOM      3  C   LIG    1       26.022  32.226  54.349  0.00  0.00    +0.020 A 
ATOM      4  C   LIG    1       26.842  32.588  55.403  0.00  0.00    +0.041 A 
ATOM      5 CL   LIG    1       28.291  33.495  55.103  0.00  0.00    -0.084 Cl
ATOM      6  C   LIG    1       26.507  32.226  56.695  0.00  0.00    +0.020 A 
ATOM      7  C   LIG    1       25.353  31.504  56.933  0.00  0.00    +0.005 A 
ATOM      8  C   LIG    1       24.534  31.142  55.880  0.00  0.00    -0.045 A 
ENDBRANCH   1   8
BRANCH   1   9
ATOM      9  C   LIG    1       23.276  29.855  57.586  0.00  0.00    -0.078 C 
BRANCH   9  10
ATOM     10  N   LIG    1       21.893  29.650  58.034  0.00  0.00    +0.379 N 
ATOM     11  H   LIG    1       21.291  29.547  57.231  0.00  0.00    -0.090 HD
ATOM     12  H   LIG    1       21.593  30.445  58.578  0.00  0.00    -0.090 HD
ATOM     13  H   LIG    1       21.842  28.817  58.600  0.00  0.00    -0.090 HD
ENDBRANCH   9  10
ENDBRANCH   1   9
BRANCH   1  14
ATOM     14  C   LIG    1       23.216  29.159  55.188  0.00  0.00    +0.126 C 
BRANCH  14  15
ATOM     15  C   LIG    1       21.829  29.045  54.610  0.00  0.00    +0.305 C 
ATOM     16  O   LIG    1       20.980  28.387  55.187  0.00  0.00    -0.251 OA
BRANCH  15  17
ATOM     17  O   LIG    1       21.556  29.611  53.565  0.00  0.00    -0.481 OA
ATOM     18  H   LIG    1       22.148  29.568  52.840  0.00  0.00    +0.295 HD
ENDBRANCH  15  17
ENDBRANCH  14  15
ENDBRANCH   1  14
TORSDOF 6
