REMARK VINA RESULT:      -4.4      2.349      3.063
REMARK  Name = ZINC00000061
REMARK                            x       y       z     vdW  Elec       q    Type
REMARK                         _______ _______ _______ _____ _____    ______ ____
ROOT
ATOM      1  C   LIG    1       26.435  32.964  55.242  0.00  0.00    +0.012 C 
ENDROOT
BRANCH   1   8
ATOM      2  C   LIG    1       25.605  30.648  55.701  0.00  0.00    +0.005 A 
ATOM      3  C   LIG    1       24.650  29.774  56.188  0.00  0.00    +0.020 A 
ATOM      4  C   LIG    1       23.484  30.266  56.746  0.00  0.00    +0.041 A 
ATOM      5 CL   LIG    1       22.284  29.170  57.358  0.00  0.00    -0.084 Cl
ATOM      6  C   LIG    1       23.273  31.631  56.817  0.00  0.00    +0.020 A 
ATOM      7  C   LIG    1       24.229  32.503  56.330  0.00  0.00    +0.005 A 
ATOM      8  C   LIG    1       25.394  32.012  55.772  0.00  0.00    -0.045 A 
ENDBRANCH   1   8
BRANCH   1   9
ATOM      9  C   LIG    1       27.635  32.169  54.722  0.00  0.00    -0.078 C 
BRANCH   9  10
ATOM     10  N   LIG    1       28.807  32.449  55.561  0.00  0.00    +0.379 N 
ATOM     11  H   LIG    1       28.687  32.013  56.463  0.00  0.00    -0.090 HD
ATOM     12  H   LIG    1       28.906  33.446  55.681  0.00  0.00    -0.090 HD
ATOM     13  H   LIG    1       29.635  32.080  55.118  0.00  0.00    -0.090 HD
ENDBRANCH   9  10
ENDBRANCH   1   9
BRANCH   1  14
ATOM     14  C   LIG    1       26.890  33.899  56.364  0.00  0.00    +0.126 C 
BRANCH  14  15
ATOM     15  C   LIG    1       26.566  35.323  55.993  0.00  0.00    +0.305 C 
ATOM     16  O   LIG    1       26.113  36.083  56.831  0.00  0.00    -0.251 OA
BRANCH  15  17
ATOM     17  O   LIG    1       26.757  35.715  54.854  0.00  0.00    -0.481 OA
ATOM     18  H   LIG    1       27.251  36.497  54.704  0.00  0.00    +0.295 HD
ENDBRANCH  15  17
ENDBRANCH  14  15
ENDBRANCH   1  14
TORSDOF 6
