REMARK VINA RESULT:      -4.7      0.000      0.000
REMARK  Name = ZINC00000061
REMARK                            x       y       z     vdW  Elec       q    Type
REMARK                         _______ _______ _______ _____ _____    ______ ____
ROOT
ATOM      1  C   LIG    1       26.191  32.828  55.960  0.00  0.00    +0.012 C 
ENDROOT
BRANCH   1   8
ATOM      2  C   LIG    1       23.753  32.569  56.465  0.00  0.00    +0.005 A 
ATOM      3  C   LIG    1       22.511  32.020  56.206  0.00  0.00    +0.020 A 
ATOM      4  C   LIG    1       22.353  31.132  55.156  0.00  0.00    +0.041 A 
ATOM      5 CL   LIG    1       20.793  30.443  54.830  0.00  0.00    -0.084 Cl
ATOM      6  C   LIG    1       23.437  30.794  54.368  0.00  0.00    +0.020 A 
ATOM      7  C   LIG    1       24.679  31.343  54.628  0.00  0.00    +0.005 A 
ATOM      8  C   LIG    1       24.837  32.230  55.677  0.00  0.00    -0.045 A 
ENDBRANCH   1   8
BRANCH   1   9
ATOM      9  C   LIG    1       26.040  34.326  56.231  0.00  0.00    -0.078 C 
BRANCH   9  10
ATOM     10  N   LIG    1       26.755  35.085  55.197  0.00  0.00    +0.379 N 
ATOM     11  H   LIG    1       26.521  34.717  54.287  0.00  0.00    -0.090 HD
ATOM     12  H   LIG    1       27.750  35.004  55.347  0.00  0.00    -0.090 HD
ATOM     13  H   LIG    1       26.486  36.056  55.246  0.00  0.00    -0.090 HD
ENDBRANCH   9  10
ENDBRANCH   1   9
BRANCH   1  14
ATOM     14  C   LIG    1       27.104  32.618  54.750  0.00  0.00    +0.126 C 
BRANCH  14  15
ATOM     15  C   LIG    1       28.492  32.273  55.223  0.00  0.00    +0.305 C 
ATOM     16  O   LIG    1       28.890  31.123  55.157  0.00  0.00    -0.251 OA
BRANCH  15  17
ATOM     17  O   LIG    1       29.218  33.144  55.673  0.00  0.00    -0.481 OA
ATOM     18  H   LIG    1       29.273  33.975  55.243  0.00  0.00    +0.295 HD
ENDBRANCH  15  17
ENDBRANCH  14  15
ENDBRANCH   1  14
TORSDOF 6
