REMARK VINA RESULT:      -4.3      4.515      5.884
REMARK  Name = ZINC00000061
REMARK                            x       y       z     vdW  Elec       q    Type
REMARK                         _______ _______ _______ _____ _____    ______ ____
ROOT
ATOM      1  C   LIG    1       23.424  30.039  55.553  0.00  0.00    +0.012 C 
ENDROOT
BRANCH   1   8
ATOM      2  C   LIG    1       25.091  31.430  54.308  0.00  0.00    +0.005 A 
ATOM      3  C   LIG    1       26.189  32.270  54.275  0.00  0.00    +0.020 A 
ATOM      4  C   LIG    1       26.814  32.636  55.453  0.00  0.00    +0.041 A 
ATOM      5 CL   LIG    1       28.192  33.692  55.413  0.00  0.00    -0.084 Cl
ATOM      6  C   LIG    1       26.343  32.161  56.663  0.00  0.00    +0.020 A 
ATOM      7  C   LIG    1       25.246  31.321  56.695  0.00  0.00    +0.005 A 
ATOM      8  C   LIG    1       24.621  30.955  55.518  0.00  0.00    -0.045 A 
ENDBRANCH   1   8
BRANCH   1   9
ATOM      9  C   LIG    1       23.883  28.612  55.860  0.00  0.00    -0.078 C 
BRANCH   9  10
ATOM     10  N   LIG    1       23.565  27.740  54.722  0.00  0.00    +0.379 N 
ATOM     11  H   LIG    1       23.388  26.804  55.055  0.00  0.00    -0.090 HD
ATOM     12  H   LIG    1       24.343  27.727  54.080  0.00  0.00    -0.090 HD
ATOM     13  H   LIG    1       22.745  28.088  54.250  0.00  0.00    -0.090 HD
ENDBRANCH   9  10
ENDBRANCH   1   9
BRANCH   1  14
ATOM     14  C   LIG    1       22.720  30.067  54.195  0.00  0.00    +0.126 C 
BRANCH  14  15
ATOM     15  C   LIG    1       21.320  30.595  54.366  0.00  0.00    +0.305 C 
ATOM     16  O   LIG    1       21.077  31.766  54.129  0.00  0.00    -0.251 OA
BRANCH  15  17
ATOM     17  O   LIG    1       20.429  29.852  54.742  0.00  0.00    -0.481 OA
ATOM     18  H   LIG    1       20.322  29.010  54.344  0.00  0.00    +0.295 HD
ENDBRANCH  15  17
ENDBRANCH  14  15
ENDBRANCH   1  14
TORSDOF 6
