MODEL 1
REMARK VINA RESULT:      -5.3      0.000      0.000
REMARK  Name = ZINC00000523
REMARK                            x       y       z     vdW  Elec       q    Type
REMARK                         _______ _______ _______ _____ _____    ______ ____
ROOT
ATOM      1  C   LIG    1       21.065  31.130  55.463  0.00  0.00    +0.007 C 
ATOM      2  C   LIG    1       22.513  30.767  55.127  0.00  0.00    -0.017 C 
ATOM      3  C   LIG    1       23.446  31.884  55.593  0.00  0.00    -0.060 C 
ATOM      4  C   LIG    1       23.172  32.216  57.050  0.00  0.00    +0.020 C 
ATOM      5  C   LIG    1       23.007  30.979  57.891  0.00  0.00    -0.045 A 
ATOM      6  C   LIG    1       23.003  31.136  59.273  0.00  0.00    +0.007 A 
ATOM      7  C   LIG    1       22.840  30.047  60.102  0.00  0.00    +0.045 A 
ATOM      8  C   LIG    1       22.678  28.782  59.557  0.00  0.00    +0.117 A 
ATOM      9  C   LIG    1       22.689  28.625  58.181  0.00  0.00    +0.049 A 
ATOM     10  C   LIG    1       22.861  29.721  57.351  0.00  0.00    -0.035 A 
ATOM     11  N   LIG    1       24.845  31.551  55.365  0.00  0.00    +0.384 N 
ATOM     12  H   LIG    1       24.999  31.445  54.373  0.00  0.00    -0.081 HD
ATOM     13  C   LIG    1       25.238  30.313  56.007  0.00  0.00    -0.077 C 
ATOM     14  C   LIG    1       24.367  29.160  55.493  0.00  0.00    -0.007 C 
ATOM     15  C   LIG    1       22.907  29.479  55.860  0.00  0.00    -0.007 C 
ATOM     16  C   LIG    1       21.974  28.331  55.469  0.00  0.00    +0.016 C 
ENDROOT
BRANCH   8  17
ATOM     17  O   LIG    1       22.510  27.704  60.368  0.00  0.00    -0.507 OA
ATOM     18  H   LIG    1       21.902  27.039  60.017  0.00  0.00    +0.292 HD
ENDBRANCH   8  17
BRANCH  11  19
ATOM     19  C   LIG    1       25.685  32.646  55.865  0.00  0.00    -0.051 C 
BRANCH  19  20
ATOM     20  C   LIG    1       26.728  32.990  54.832  0.00  0.00    -0.053 C 
ATOM     21  C   LIG    1       27.288  34.173  54.835  0.00  0.00    +0.002 C 
ENDBRANCH  19  20
ENDBRANCH  11  19
TORSDOF 3
ENDMDL
MODEL 2
REMARK VINA RESULT:      -5.1      2.697      5.526
REMARK  Name = ZINC00000523
REMARK                            x       y       z     vdW  Elec       q    Type
REMARK                         _______ _______ _______ _____ _____    ______ ____
ROOT
ATOM      1  C   LIG    1       20.241  33.035  55.140  0.00  0.00    +0.007 C 
ATOM      2  C   LIG    1       20.265  31.869  56.131  0.00  0.00    -0.017 C 
ATOM      3  C   LIG    1       20.304  30.546  55.368  0.00  0.00    -0.060 C 
ATOM      4  C   LIG    1       21.429  30.566  54.349  0.00  0.00    +0.020 C 
ATOM      5  C   LIG    1       22.699  31.138  54.920  0.00  0.00    -0.045 A 
ATOM      6  C   LIG    1       23.866  30.984  54.179  0.00  0.00    +0.007 A 
ATOM      7  C   LIG    1       25.060  31.498  54.635  0.00  0.00    +0.045 A 
ATOM      8  C   LIG    1       25.104  32.176  55.844  0.00  0.00    +0.117 A 
ATOM      9  C   LIG    1       23.944  32.324  56.586  0.00  0.00    +0.049 A 
ATOM     10  C   LIG    1       22.746  31.798  56.127  0.00  0.00    -0.035 A 
ATOM     11  N   LIG    1       20.405  29.406  56.268  0.00  0.00    +0.384 N 
ATOM     12  H   LIG    1       19.582  29.375  56.852  0.00  0.00    -0.081 HD
ATOM     13  C   LIG    1       21.561  29.480  57.139  0.00  0.00    -0.077 C 
ATOM     14  C   LIG    1       21.501  30.764  57.975  0.00  0.00    -0.007 C 
ATOM     15  C   LIG    1       21.523  31.955  57.002  0.00  0.00    -0.007 C 
ATOM     16  C   LIG    1       21.566  33.286  57.757  0.00  0.00    +0.016 C 
ENDROOT
BRANCH   8  17
ATOM     17  O   LIG    1       26.276  32.691  56.298  0.00  0.00    -0.507 OA
ATOM     18  H   LIG    1       26.821  32.058  56.786  0.00  0.00    +0.292 HD
ENDBRANCH   8  17
BRANCH  11  19
ATOM     19  C   LIG    1       20.472  28.173  55.473  0.00  0.00    -0.051 C 
BRANCH  19  20
ATOM     20  C   LIG    1       19.221  27.363  55.696  0.00  0.00    -0.053 C 
ATOM     21  C   LIG    1       18.289  27.329  54.777  0.00  0.00    +0.002 C 
ENDBRANCH  19  20
ENDBRANCH  11  19
TORSDOF 3
ENDMDL
MODEL 3
REMARK VINA RESULT:      -5.1      1.906      3.223
REMARK  Name = ZINC00000523
REMARK                            x       y       z     vdW  Elec       q    Type
REMARK                         _______ _______ _______ _____ _____    ______ ____
ROOT
ATOM      1  C   LIG    1       23.598  28.092  54.801  0.00  0.00    +0.007 C 
ATOM      2  C   LIG    1       24.161  28.928  55.953  0.00  0.00    -0.017 C 
ATOM      3  C   LIG    1       24.684  30.259  55.414  0.00  0.00    -0.060 C 
ATOM      4  C   LIG    1       23.617  30.935  54.571  0.00  0.00    +0.020 C 
ATOM      5  C   LIG    1       22.260  30.871  55.218  0.00  0.00    -0.045 A 
ATOM      6  C   LIG    1       21.250  31.661  54.679  0.00  0.00    +0.007 A 
ATOM      7  C   LIG    1       19.981  31.639  55.213  0.00  0.00    +0.045 A 
ATOM      8  C   LIG    1       19.701  30.822  56.297  0.00  0.00    +0.117 A 
ATOM      9  C   LIG    1       20.707  30.039  56.839  0.00  0.00    +0.049 A 
ATOM     10  C   LIG    1       21.985  30.071  56.304  0.00  0.00    -0.035 A 
ATOM     11  N   LIG    1       25.161  31.124  56.484  0.00  0.00    +0.384 N 
ATOM     12  H   LIG    1       25.939  30.677  56.945  0.00  0.00    -0.081 HD
ATOM     13  C   LIG    1       24.147  31.389  57.485  0.00  0.00    -0.077 C 
ATOM     14  C   LIG    1       23.664  30.069  58.098  0.00  0.00    -0.007 C 
ATOM     15  C   LIG    1       23.051  29.226  56.966  0.00  0.00    -0.007 C 
ATOM     16  C   LIG    1       22.451  27.926  57.507  0.00  0.00    +0.016 C 
ENDROOT
BRANCH   8  17
ATOM     17  O   LIG    1       18.450  30.789  56.825  0.00  0.00    -0.507 OA
ATOM     18  H   LIG    1       17.807  31.332  56.347  0.00  0.00    +0.292 HD
ENDBRANCH   8  17
BRANCH  11  19
ATOM     19  C   LIG    1       25.616  32.394  55.905  0.00  0.00    -0.051 C 
BRANCH  19  20
ATOM     20  C   LIG    1       26.956  32.194  55.245  0.00  0.00    -0.053 C 
ATOM     21  C   LIG    1       27.197  32.729  54.075  0.00  0.00    +0.002 C 
ENDBRANCH  19  20
ENDBRANCH  11  19
TORSDOF 3
ENDMDL
MODEL 4
REMARK VINA RESULT:      -5.1      1.956      3.659
REMARK  Name = ZINC00000523
REMARK                            x       y       z     vdW  Elec       q    Type
REMARK                         _______ _______ _______ _____ _____    ______ ____
ROOT
ATOM      1  C   LIG    1       23.256  29.642  59.261  0.00  0.00    +0.007 C 
ATOM      2  C   LIG    1       23.374  30.950  58.476  0.00  0.00    -0.017 C 
ATOM      3  C   LIG    1       24.293  30.747  57.273  0.00  0.00    -0.060 C 
ATOM      4  C   LIG    1       23.842  29.539  56.471  0.00  0.00    +0.020 C 
ATOM      5  C   LIG    1       22.348  29.508  56.286  0.00  0.00    -0.045 A 
ATOM      6  C   LIG    1       21.831  28.601  55.368  0.00  0.00    +0.007 A 
ATOM      7  C   LIG    1       20.472  28.510  55.161  0.00  0.00    +0.045 A 
ATOM      8  C   LIG    1       19.608  29.327  55.874  0.00  0.00    +0.117 A 
ATOM      9  C   LIG    1       20.123  30.235  56.784  0.00  0.00    +0.049 A 
ATOM     10  C   LIG    1       21.491  30.330  56.983  0.00  0.00    -0.035 A 
ATOM     11  N   LIG    1       24.378  31.945  56.449  0.00  0.00    +0.384 N 
ATOM     12  H   LIG    1       24.783  32.691  56.995  0.00  0.00    -0.081 HD
ATOM     13  C   LIG    1       23.083  32.395  55.980  0.00  0.00    -0.077 C 
ATOM     14  C   LIG    1       22.167  32.684  57.176  0.00  0.00    -0.007 C 
ATOM     15  C   LIG    1       21.994  31.370  57.958  0.00  0.00    -0.007 C 
ATOM     16  C   LIG    1       21.012  31.542  59.119  0.00  0.00    +0.016 C 
ENDROOT
BRANCH   8  17
ATOM     17  O   LIG    1       18.266  29.238  55.680  0.00  0.00    -0.507 OA
ATOM     18  H   LIG    1       17.749  29.852  56.220  0.00  0.00    +0.292 HD
ENDBRANCH   8  17
BRANCH  11  19
ATOM     19  C   LIG    1       25.245  31.672  55.296  0.00  0.00    -0.051 C 
BRANCH  19  20
ATOM     20  C   LIG    1       26.340  32.706  55.236  0.00  0.00    -0.053 C 
ATOM     21  C   LIG    1       27.179  32.715  54.231  0.00  0.00    +0.002 C 
ENDBRANCH  19  20
ENDBRANCH  11  19
TORSDOF 3
ENDMDL
MODEL 5
REMARK VINA RESULT:      -5.0      1.774      2.680
REMARK  Name = ZINC00000523
REMARK                            x       y       z     vdW  Elec       q    Type
REMARK                         _______ _______ _______ _____ _____    ______ ____
ROOT
ATOM      1  C   LIG    1       21.463  32.286  57.977  0.00  0.00    +0.007 C 
ATOM      2  C   LIG    1       22.090  32.291  56.581  0.00  0.00    -0.017 C 
ATOM      3  C   LIG    1       23.576  31.953  56.683  0.00  0.00    -0.060 C 
ATOM      4  C   LIG    1       23.765  30.676  57.483  0.00  0.00    +0.020 C 
ATOM      5  C   LIG    1       22.779  29.609  57.087  0.00  0.00    -0.045 A 
ATOM      6  C   LIG    1       23.001  28.320  57.560  0.00  0.00    +0.007 A 
ATOM      7  C   LIG    1       22.129  27.299  57.248  0.00  0.00    +0.045 A 
ATOM      8  C   LIG    1       21.019  27.556  56.458  0.00  0.00    +0.117 A 
ATOM      9  C   LIG    1       20.801  28.838  55.982  0.00  0.00    +0.049 A 
ATOM     10  C   LIG    1       21.685  29.860  56.291  0.00  0.00    -0.035 A 
ATOM     11  N   LIG    1       24.203  31.870  55.371  0.00  0.00    +0.384 N 
ATOM     12  H   LIG    1       24.146  32.772  54.923  0.00  0.00    -0.081 HD
ATOM     13  C   LIG    1       23.560  30.905  54.502  0.00  0.00    -0.077 C 
ATOM     14  C   LIG    1       22.082  31.272  54.320  0.00  0.00    -0.007 C 
ATOM     15  C   LIG    1       21.416  31.228  55.706  0.00  0.00    -0.007 C 
ATOM     16  C   LIG    1       19.912  31.487  55.606  0.00  0.00    +0.016 C 
ENDROOT
BRANCH   8  17
ATOM     17  O   LIG    1       20.151  26.556  56.152  0.00  0.00    -0.507 OA
ATOM     18  H   LIG    1       19.825  26.582  55.242  0.00  0.00    +0.292 HD
ENDBRANCH   8  17
BRANCH  11  19
ATOM     19  C   LIG    1       25.616  31.509  55.538  0.00  0.00    -0.051 C 
BRANCH  19  20
ATOM     20  C   LIG    1       26.480  32.704  55.228  0.00  0.00    -0.053 C 
ATOM     21  C   LIG    1       27.213  32.719  54.142  0.00  0.00    +0.002 C 
ENDBRANCH  19  20
ENDBRANCH  11  19
TORSDOF 3
ENDMDL
