MODEL 1
REMARK VINA RESULT:      -5.8      0.000      0.000
REMARK  Name = ZINC00001083
REMARK                            x       y       z     vdW  Elec       q    Type
REMARK                         _______ _______ _______ _____ _____    ______ ____
ROOT
ATOM      1  C   LIG    1       27.110  34.694  55.185  0.00  0.00    +0.092 C 
ATOM      2  C   LIG    1       26.364  35.029  56.261  0.00  0.00    +0.015 C 
ENDROOT
BRANCH   2   3
ATOM      3  C   LIG    1       25.749  36.361  56.343  0.00  0.00    -0.021 A 
ATOM      4  C   LIG    1       24.601  36.558  57.121  0.00  0.00    +0.012 A 
ATOM      5  C   LIG    1       24.027  37.808  57.196  0.00  0.00    +0.050 A 
ATOM      6  C   LIG    1       24.584  38.874  56.502  0.00  0.00    +0.158 A 
ATOM      7  C   LIG    1       25.727  38.686  55.726  0.00  0.00    +0.159 A 
ATOM      8  C   LIG    1       26.312  37.438  55.650  0.00  0.00    +0.057 A 
BRANCH   6   9
ATOM      9  O   LIG    1       24.013  40.104  56.579  0.00  0.00    -0.503 OA
ATOM     10  H   LIG    1       24.650  40.832  56.625  0.00  0.00    +0.292 HD
ENDBRANCH   6   9
BRANCH   7  11
ATOM     11  O   LIG    1       26.269  39.735  55.048  0.00  0.00    -0.503 OA
ATOM     12  H   LIG    1       26.038  39.758  54.110  0.00  0.00    +0.292 HD
ENDBRANCH   7  11
ENDBRANCH   2   3
BRANCH   1  13
ATOM     13  C   LIG    1       27.704  33.410  55.107  0.00  0.00    +0.332 C 
ATOM     14  O   LIG    1       28.702  33.160  55.757  0.00  0.00    -0.246 OA
BRANCH  13  15
ATOM     15  O   LIG    1       27.164  32.463  54.311  0.00  0.00    -0.461 OA
BRANCH  15  16
ATOM     16  C   LIG    1       25.821  32.065  54.595  0.00  0.00    +0.237 C 
BRANCH  16  17
ATOM     17  C   LIG    1       25.801  31.213  55.866  0.00  0.00    +0.076 C 
BRANCH  17  21
ATOM     18  C   LIG    1       22.277  32.098  58.113  0.00  0.00    +0.000 A 
ATOM     19  C   LIG    1       23.087  31.041  58.486  0.00  0.00    +0.000 A 
ATOM     20  C   LIG    1       24.227  30.755  57.758  0.00  0.00    +0.004 A 
ATOM     21  C   LIG    1       24.557  31.525  56.659  0.00  0.00    -0.044 A 
ATOM     22  C   LIG    1       23.747  32.582  56.286  0.00  0.00    +0.004 A 
ATOM     23  C   LIG    1       22.608  32.869  57.014  0.00  0.00    +0.000 A 
ENDBRANCH  17  21
ENDBRANCH  16  17
ENDBRANCH  15  16
ENDBRANCH  13  15
ENDBRANCH   1  13
TORSDOF 8
ENDMDL
MODEL 2
REMARK VINA RESULT:      -5.7      2.475      6.755
REMARK  Name = ZINC00001083
REMARK                            x       y       z     vdW  Elec       q    Type
REMARK                         _______ _______ _______ _____ _____    ______ ____
ROOT
ATOM      1  C   LIG    1       26.331  32.863  55.209  0.00  0.00    +0.092 C 
ATOM      2  C   LIG    1       26.041  31.769  55.947  0.00  0.00    +0.015 C 
ENDROOT
BRANCH   2   3
ATOM      3  C   LIG    1       24.866  30.950  55.619  0.00  0.00    -0.021 A 
ATOM      4  C   LIG    1       24.857  29.582  55.921  0.00  0.00    +0.012 A 
ATOM      5  C   LIG    1       23.754  28.817  55.612  0.00  0.00    +0.050 A 
ATOM      6  C   LIG    1       22.650  29.399  55.001  0.00  0.00    +0.158 A 
ATOM      7  C   LIG    1       22.652  30.760  54.697  0.00  0.00    +0.159 A 
ATOM      8  C   LIG    1       23.751  31.535  55.009  0.00  0.00    +0.057 A 
BRANCH   6   9
ATOM      9  O   LIG    1       21.566  28.640  54.698  0.00  0.00    -0.503 OA
ATOM     10  H   LIG    1       21.568  28.292  53.795  0.00  0.00    +0.292 HD
ENDBRANCH   6   9
BRANCH   7  11
ATOM     11  O   LIG    1       21.568  31.324  54.100  0.00  0.00    -0.503 OA
ATOM     12  H   LIG    1       21.784  32.057  53.507  0.00  0.00    +0.292 HD
ENDBRANCH   7  11
ENDBRANCH   2   3
BRANCH   1  13
ATOM     13  C   LIG    1       27.464  33.653  55.526  0.00  0.00    +0.332 C 
ATOM     14  O   LIG    1       28.501  33.118  55.870  0.00  0.00    -0.246 OA
BRANCH  13  15
ATOM     15  O   LIG    1       27.392  34.998  55.449  0.00  0.00    -0.461 OA
BRANCH  15  16
ATOM     16  C   LIG    1       26.282  35.627  56.093  0.00  0.00    +0.237 C 
BRANCH  16  17
ATOM     17  C   LIG    1       26.141  37.062  55.579  0.00  0.00    +0.076 C 
BRANCH  17  21
ATOM     18  C   LIG    1       22.705  38.876  57.353  0.00  0.00    +0.000 A 
ATOM     19  C   LIG    1       23.657  39.662  56.730  0.00  0.00    +0.000 A 
ATOM     20  C   LIG    1       24.769  39.075  56.156  0.00  0.00    +0.004 A 
ATOM     21  C   LIG    1       24.930  37.703  56.205  0.00  0.00    -0.044 A 
ATOM     22  C   LIG    1       23.977  36.917  56.829  0.00  0.00    +0.004 A 
ATOM     23  C   LIG    1       22.865  37.504  57.401  0.00  0.00    +0.000 A 
ENDBRANCH  17  21
ENDBRANCH  16  17
ENDBRANCH  15  16
ENDBRANCH  13  15
ENDBRANCH   1  13
TORSDOF 8
ENDMDL
MODEL 3
REMARK VINA RESULT:      -5.7      1.725      2.004
REMARK  Name = ZINC00001083
REMARK                            x       y       z     vdW  Elec       q    Type
REMARK                         _______ _______ _______ _____ _____    ______ ____
ROOT
ATOM      1  C   LIG    1       26.932  35.279  55.254  0.00  0.00    +0.092 C 
ATOM      2  C   LIG    1       26.132  35.525  56.316  0.00  0.00    +0.015 C 
ENDROOT
BRANCH   2   3
ATOM      3  C   LIG    1       25.605  36.878  56.541  0.00  0.00    -0.021 A 
ATOM      4  C   LIG    1       24.675  37.107  57.563  0.00  0.00    +0.012 A 
ATOM      5  C   LIG    1       24.183  38.376  57.773  0.00  0.00    +0.050 A 
ATOM      6  C   LIG    1       24.607  39.430  56.973  0.00  0.00    +0.158 A 
ATOM      7  C   LIG    1       25.533  39.209  55.954  0.00  0.00    +0.159 A 
ATOM      8  C   LIG    1       26.036  37.942  55.741  0.00  0.00    +0.057 A 
BRANCH   6   9
ATOM      9  O   LIG    1       24.118  40.679  57.184  0.00  0.00    -0.503 OA
ATOM     10  H   LIG    1       24.163  40.969  58.106  0.00  0.00    +0.292 HD
ENDBRANCH   6   9
BRANCH   7  11
ATOM     11  O   LIG    1       25.945  40.245  55.175  0.00  0.00    -0.503 OA
ATOM     12  H   LIG    1       26.896  40.415  55.217  0.00  0.00    +0.292 HD
ENDBRANCH   7  11
ENDBRANCH   2   3
BRANCH   1  13
ATOM     13  C   LIG    1       27.441  33.975  55.037  0.00  0.00    +0.332 C 
ATOM     14  O   LIG    1       28.628  33.752  55.186  0.00  0.00    -0.246 OA
BRANCH  13  15
ATOM     15  O   LIG    1       26.611  32.979  54.664  0.00  0.00    -0.461 OA
BRANCH  15  16
ATOM     16  C   LIG    1       26.542  31.836  55.519  0.00  0.00    +0.237 C 
BRANCH  16  17
ATOM     17  C   LIG    1       25.155  31.764  56.163  0.00  0.00    +0.076 C 
BRANCH  17  21
ATOM     18  C   LIG    1       22.933  28.567  54.405  0.00  0.00    +0.000 A 
ATOM     19  C   LIG    1       23.863  28.301  55.393  0.00  0.00    +0.000 A 
ATOM     20  C   LIG    1       24.583  29.336  55.961  0.00  0.00    +0.004 A 
ATOM     21  C   LIG    1       24.372  30.636  55.542  0.00  0.00    -0.044 A 
ATOM     22  C   LIG    1       23.441  30.902  54.555  0.00  0.00    +0.004 A 
ATOM     23  C   LIG    1       22.721  29.868  53.987  0.00  0.00    +0.000 A 
ENDBRANCH  17  21
ENDBRANCH  16  17
ENDBRANCH  15  16
ENDBRANCH  13  15
ENDBRANCH   1  13
TORSDOF 8
ENDMDL
MODEL 4
REMARK VINA RESULT:      -5.5      2.863      4.816
REMARK  Name = ZINC00001083
REMARK                            x       y       z     vdW  Elec       q    Type
REMARK                         _______ _______ _______ _____ _____    ______ ____
ROOT
ATOM      1  C   LIG    1       22.274  33.589  56.697  0.00  0.00    +0.092 C 
ATOM      2  C   LIG    1       21.297  34.491  56.457  0.00  0.00    +0.015 C 
ENDROOT
BRANCH   2   3
ATOM      3  C   LIG    1       21.345  35.814  57.095  0.00  0.00    -0.021 A 
ATOM      4  C   LIG    1       22.484  36.208  57.808  0.00  0.00    +0.012 A 
ATOM      5  C   LIG    1       22.527  37.449  58.405  0.00  0.00    +0.050 A 
ATOM      6  C   LIG    1       21.442  38.311  58.300  0.00  0.00    +0.158 A 
ATOM      7  C   LIG    1       20.305  37.926  57.592  0.00  0.00    +0.159 A 
ATOM      8  C   LIG    1       20.256  36.686  56.986  0.00  0.00    +0.057 A 
BRANCH   6   9
ATOM      9  O   LIG    1       21.490  39.533  58.891  0.00  0.00    -0.503 OA
ATOM     10  H   LIG    1       20.652  40.016  58.864  0.00  0.00    +0.292 HD
ENDBRANCH   6   9
BRANCH   7  11
ATOM     11  O   LIG    1       19.246  38.774  57.493  0.00  0.00    -0.503 OA
ATOM     12  H   LIG    1       18.756  38.889  58.318  0.00  0.00    +0.292 HD
ENDBRANCH   7  11
ENDBRANCH   2   3
BRANCH   1  13
ATOM     13  C   LIG    1       22.227  32.313  56.082  0.00  0.00    +0.332 C 
ATOM     14  O   LIG    1       21.424  31.483  56.465  0.00  0.00    -0.246 OA
BRANCH  13  15
ATOM     15  O   LIG    1       23.074  32.017  55.074  0.00  0.00    -0.461 OA
BRANCH  15  16
ATOM     16  C   LIG    1       23.991  30.943  55.290  0.00  0.00    +0.237 C 
BRANCH  16  17
ATOM     17  C   LIG    1       25.041  31.369  56.320  0.00  0.00    +0.076 C 
BRANCH  17  21
ATOM     18  C   LIG    1       27.545  34.388  54.628  0.00  0.00    +0.000 A 
ATOM     19  C   LIG    1       27.445  33.151  54.017  0.00  0.00    +0.000 A 
ATOM     20  C   LIG    1       26.635  32.174  54.565  0.00  0.00    +0.004 A 
ATOM     21  C   LIG    1       25.925  32.433  55.723  0.00  0.00    -0.044 A 
ATOM     22  C   LIG    1       26.025  33.670  56.333  0.00  0.00    +0.004 A 
ATOM     23  C   LIG    1       26.834  34.647  55.785  0.00  0.00    +0.000 A 
ENDBRANCH  17  21
ENDBRANCH  16  17
ENDBRANCH  15  16
ENDBRANCH  13  15
ENDBRANCH   1  13
TORSDOF 8
ENDMDL
MODEL 5
REMARK VINA RESULT:      -5.5      2.645      4.405
REMARK  Name = ZINC00001083
REMARK                            x       y       z     vdW  Elec       q    Type
REMARK                         _______ _______ _______ _____ _____    ______ ____
ROOT
ATOM      1  C   LIG    1       22.364  33.902  56.868  0.00  0.00    +0.092 C 
ATOM      2  C   LIG    1       21.734  35.034  56.481  0.00  0.00    +0.015 C 
ENDROOT
BRANCH   2   3
ATOM      3  C   LIG    1       21.995  36.297  57.184  0.00  0.00    -0.021 A 
ATOM      4  C   LIG    1       20.969  37.237  57.343  0.00  0.00    +0.012 A 
ATOM      5  C   LIG    1       21.216  38.421  58.002  0.00  0.00    +0.050 A 
ATOM      6  C   LIG    1       22.481  38.685  58.511  0.00  0.00    +0.158 A 
ATOM      7  C   LIG    1       23.508  37.754  58.357  0.00  0.00    +0.159 A 
ATOM      8  C   LIG    1       23.267  36.563  57.703  0.00  0.00    +0.057 A 
BRANCH   6   9
ATOM      9  O   LIG    1       22.719  39.854  59.160  0.00  0.00    -0.503 OA
ATOM     10  H   LIG    1       22.394  40.636  58.693  0.00  0.00    +0.292 HD
ENDBRANCH   6   9
BRANCH   7  11
ATOM     11  O   LIG    1       24.745  38.018  58.857  0.00  0.00    -0.503 OA
ATOM     12  H   LIG    1       25.405  37.342  58.652  0.00  0.00    +0.292 HD
ENDBRANCH   7  11
ENDBRANCH   2   3
BRANCH   1  13
ATOM     13  C   LIG    1       22.112  32.683  56.191  0.00  0.00    +0.332 C 
ATOM     14  O   LIG    1       21.425  32.676  55.186  0.00  0.00    -0.246 OA
BRANCH  13  15
ATOM     15  O   LIG    1       22.633  31.530  56.659  0.00  0.00    -0.461 OA
BRANCH  15  16
ATOM     16  C   LIG    1       24.034  31.517  56.938  0.00  0.00    +0.237 C 
BRANCH  16  17
ATOM     17  C   LIG    1       24.808  31.237  55.648  0.00  0.00    +0.076 C 
BRANCH  17  21
ATOM     18  C   LIG    1       27.545  34.432  54.909  0.00  0.00    +0.000 A 
ATOM     19  C   LIG    1       26.719  34.472  56.017  0.00  0.00    +0.000 A 
ATOM     20  C   LIG    1       25.833  33.438  56.256  0.00  0.00    +0.004 A 
ATOM     21  C   LIG    1       25.773  32.365  55.387  0.00  0.00    -0.044 A 
ATOM     22  C   LIG    1       26.599  32.325  54.279  0.00  0.00    +0.004 A 
ATOM     23  C   LIG    1       27.486  33.358  54.041  0.00  0.00    +0.000 A 
ENDBRANCH  17  21
ENDBRANCH  16  17
ENDBRANCH  15  16
ENDBRANCH  13  15
ENDBRANCH   1  13
TORSDOF 8
ENDMDL
