REMARK VINA RESULT:      -5.4      2.767      6.555
REMARK  Name = ZINC00000941
REMARK                            x       y       z     vdW  Elec       q    Type
REMARK                         _______ _______ _______ _____ _____    ______ ____
ROOT
ATOM      1  C   LIG    1       19.387  29.310  55.741  0.00  0.00    -0.027 A 
ATOM      2  C   LIG    1       20.559  29.084  55.044  0.00  0.00    +0.010 A 
ATOM      3  C   LIG    1       21.393  30.141  54.734  0.00  0.00    -0.025 A 
ATOM      4  C   LIG    1       21.055  31.425  55.119  0.00  0.00    +0.010 A 
ATOM      5  C   LIG    1       19.883  31.651  55.815  0.00  0.00    -0.027 A 
ATOM      6  C   LIG    1       19.046  30.594  56.122  0.00  0.00    +0.010 A 
ENDROOT
BRANCH   1   8
ATOM      7  C   LIG    1       18.143  28.192  57.572  0.00  0.00    +0.032 C 
ATOM      8  C   LIG    1       18.476  28.158  56.079  0.00  0.00    +0.077 C 
ATOM      9  C   LIG    1       19.176  26.839  55.743  0.00  0.00    +0.032 C 
BRANCH   8  10
ATOM     10  C   LIG    1       17.235  28.267  55.295  0.00  0.00    +0.073 C 
ATOM     11  N   LIG    1       16.276  28.352  54.691  0.00  0.00    -0.196 NA
ENDBRANCH   8  10
ENDBRANCH   1   8
BRANCH   5  12
ATOM     12  C   LIG    1       19.515  33.050  56.236  0.00  0.00    +0.077 C 
ATOM     13  C   LIG    1       18.204  33.458  55.561  0.00  0.00    +0.032 C 
ATOM     14  C   LIG    1       20.625  34.017  55.820  0.00  0.00    +0.032 C 
BRANCH  12  15
ATOM     15  C   LIG    1       19.349  33.095  57.699  0.00  0.00    +0.073 C 
ATOM     16  N   LIG    1       19.220  33.130  58.826  0.00  0.00    -0.196 NA
ENDBRANCH  12  15
ENDBRANCH   5  12
BRANCH   3  17
ATOM     17  C   LIG    1       22.673  29.894  53.975  0.00  0.00    +0.180 C 
BRANCH  17  18
ATOM     18  N   LIG    1       23.816  30.275  54.809  0.00  0.00    -0.248 N 
ATOM     19  C   LIG    1       24.324  29.584  55.844  0.00  0.00    +0.219 A 
ATOM     20  N   LIG    1       25.338  30.258  56.323  0.00  0.00    -0.223 NA
ATOM     21  C   LIG    1       25.506  31.380  55.624  0.00  0.00    +0.245 A 
ATOM     22  N   LIG    1       24.601  31.433  54.683  0.00  0.00    -0.158 NA
ENDBRANCH  17  18
ENDBRANCH   3  17
TORSDOF 6
