REMARK VINA RESULT:      -5.5      2.535      5.742
REMARK  Name = ZINC00000941
REMARK                            x       y       z     vdW  Elec       q    Type
REMARK                         _______ _______ _______ _____ _____    ______ ____
ROOT
ATOM      1  C   LIG    1       22.372  32.501  57.365  0.00  0.00    -0.027 A 
ATOM      2  C   LIG    1       23.447  32.184  56.557  0.00  0.00    +0.010 A 
ATOM      3  C   LIG    1       24.254  31.107  56.871  0.00  0.00    -0.025 A 
ATOM      4  C   LIG    1       23.986  30.347  57.994  0.00  0.00    +0.010 A 
ATOM      5  C   LIG    1       22.911  30.664  58.803  0.00  0.00    -0.027 A 
ATOM      6  C   LIG    1       22.107  31.745  58.491  0.00  0.00    +0.010 A 
ENDROOT
BRANCH   1   8
ATOM      7  C   LIG    1       22.323  34.961  57.052  0.00  0.00    +0.032 C 
ATOM      8  C   LIG    1       21.492  33.676  57.022  0.00  0.00    +0.077 C 
ATOM      9  C   LIG    1       20.357  33.779  58.043  0.00  0.00    +0.032 C 
BRANCH   8  10
ATOM     10  C   LIG    1       20.925  33.489  55.677  0.00  0.00    +0.073 C 
ATOM     11  N   LIG    1       20.489  33.344  54.638  0.00  0.00    -0.196 NA
ENDBRANCH   8  10
ENDBRANCH   1   8
BRANCH   5  12
ATOM     12  C   LIG    1       22.619  29.835  60.027  0.00  0.00    +0.077 C 
ATOM     13  C   LIG    1       22.745  28.350  59.679  0.00  0.00    +0.032 C 
ATOM     14  C   LIG    1       21.197  30.126  60.512  0.00  0.00    +0.032 C 
BRANCH  12  15
ATOM     15  C   LIG    1       23.579  30.174  61.090  0.00  0.00    +0.073 C 
ATOM     16  N   LIG    1       24.320  30.434  61.910  0.00  0.00    -0.196 NA
ENDBRANCH  12  15
ENDBRANCH   5  12
BRANCH   3  17
ATOM     17  C   LIG    1       25.426  30.760  55.988  0.00  0.00    +0.180 C 
BRANCH  17  18
ATOM     18  N   LIG    1       26.231  31.961  55.751  0.00  0.00    -0.248 N 
ATOM     19  C   LIG    1       26.467  32.552  54.567  0.00  0.00    +0.219 A 
ATOM     20  N   LIG    1       27.228  33.596  54.779  0.00  0.00    -0.223 NA
ATOM     21  C   LIG    1       27.497  33.702  56.080  0.00  0.00    +0.245 A 
ATOM     22  N   LIG    1       26.904  32.727  56.716  0.00  0.00    -0.158 NA
ENDBRANCH  17  18
ENDBRANCH   3  17
TORSDOF 6
