REMARK VINA RESULT:      -5.4      1.249      4.145
REMARK  Name = ZINC00000941
REMARK                            x       y       z     vdW  Elec       q    Type
REMARK                         _______ _______ _______ _____ _____    ______ ____
ROOT
ATOM      1  C   LIG    1       25.508  32.148  55.532  0.00  0.00    -0.027 A 
ATOM      2  C   LIG    1       24.620  33.022  56.130  0.00  0.00    +0.010 A 
ATOM      3  C   LIG    1       23.404  32.561  56.597  0.00  0.00    -0.025 A 
ATOM      4  C   LIG    1       23.075  31.225  56.465  0.00  0.00    +0.010 A 
ATOM      5  C   LIG    1       23.962  30.350  55.867  0.00  0.00    -0.027 A 
ATOM      6  C   LIG    1       25.177  30.813  55.395  0.00  0.00    +0.010 A 
ENDROOT
BRANCH   1   8
ATOM      7  C   LIG    1       26.928  32.406  53.516  0.00  0.00    +0.032 C 
ATOM      8  C   LIG    1       26.834  32.651  55.023  0.00  0.00    +0.077 C 
ATOM      9  C   LIG    1       27.969  31.907  55.732  0.00  0.00    +0.032 C 
BRANCH   8  10
ATOM     10  C   LIG    1       26.949  34.093  55.294  0.00  0.00    +0.073 C 
ATOM     11  N   LIG    1       27.037  35.206  55.504  0.00  0.00    -0.196 NA
ENDBRANCH   8  10
ENDBRANCH   1   8
BRANCH   5  12
ATOM     12  C   LIG    1       23.603  28.894  55.724  0.00  0.00    +0.077 C 
ATOM     13  C   LIG    1       24.849  28.098  55.328  0.00  0.00    +0.032 C 
ATOM     14  C   LIG    1       22.532  28.736  54.642  0.00  0.00    +0.032 C 
BRANCH  12  15
ATOM     15  C   LIG    1       23.084  28.388  57.005  0.00  0.00    +0.073 C 
ATOM     16  N   LIG    1       22.684  27.997  57.993  0.00  0.00    -0.196 NA
ENDBRANCH  12  15
ENDBRANCH   5  12
BRANCH   3  17
ATOM     17  C   LIG    1       22.437  33.515  57.251  0.00  0.00    +0.180 C 
BRANCH  17  18
ATOM     18  N   LIG    1       21.112  33.358  56.645  0.00  0.00    -0.248 N 
ATOM     19  C   LIG    1       19.973  33.021  57.274  0.00  0.00    +0.219 A 
ATOM     20  N   LIG    1       19.013  32.987  56.385  0.00  0.00    -0.223 NA
ATOM     21  C   LIG    1       19.499  33.295  55.183  0.00  0.00    +0.245 A 
ATOM     22  N   LIG    1       20.778  33.535  55.292  0.00  0.00    -0.158 NA
ENDBRANCH  17  18
ENDBRANCH   3  17
TORSDOF 6
