REMARK VINA RESULT:      -5.5      2.495      5.455
REMARK  Name = ZINC00000941
REMARK                            x       y       z     vdW  Elec       q    Type
REMARK                         _______ _______ _______ _____ _____    ______ ____
ROOT
ATOM      1  C   LIG    1       22.911  30.675  58.679  0.00  0.00    -0.027 A 
ATOM      2  C   LIG    1       24.042  30.437  57.921  0.00  0.00    +0.010 A 
ATOM      3  C   LIG    1       24.340  31.255  56.848  0.00  0.00    -0.025 A 
ATOM      4  C   LIG    1       23.507  32.313  56.533  0.00  0.00    +0.010 A 
ATOM      5  C   LIG    1       22.376  32.551  57.291  0.00  0.00    -0.027 A 
ATOM      6  C   LIG    1       22.075  31.729  58.361  0.00  0.00    +0.010 A 
ENDROOT
BRANCH   1   8
ATOM      7  C   LIG    1       22.797  28.321  59.449  0.00  0.00    +0.032 C 
ATOM      8  C   LIG    1       22.586  29.783  59.849  0.00  0.00    +0.077 C 
ATOM      9  C   LIG    1       21.127  29.993  60.262  0.00  0.00    +0.032 C 
BRANCH   8  10
ATOM     10  C   LIG    1       23.468  30.114  60.980  0.00  0.00    +0.073 C 
ATOM     11  N   LIG    1       24.148  30.371  61.853  0.00  0.00    -0.196 NA
ENDBRANCH   8  10
ENDBRANCH   1   8
BRANCH   5  12
ATOM     12  C   LIG    1       21.469  33.704  56.947  0.00  0.00    +0.077 C 
ATOM     13  C   LIG    1       22.271  35.008  56.966  0.00  0.00    +0.032 C 
ATOM     14  C   LIG    1       20.337  33.787  57.974  0.00  0.00    +0.032 C 
BRANCH  12  15
ATOM     15  C   LIG    1       20.899  33.498  55.605  0.00  0.00    +0.073 C 
ATOM     16  N   LIG    1       20.460  33.339  54.571  0.00  0.00    -0.196 NA
ENDBRANCH  12  15
ENDBRANCH   5  12
BRANCH   3  17
ATOM     17  C   LIG    1       25.574  30.996  56.022  0.00  0.00    +0.180 C 
BRANCH  17  18
ATOM     18  N   LIG    1       26.325  32.244  55.861  0.00  0.00    -0.248 N 
ATOM     19  C   LIG    1       26.981  32.919  56.820  0.00  0.00    +0.219 A 
ATOM     20  N   LIG    1       27.521  33.979  56.273  0.00  0.00    -0.223 NA
ATOM     21  C   LIG    1       27.232  34.013  54.972  0.00  0.00    +0.245 A 
ATOM     22  N   LIG    1       26.506  32.969  54.672  0.00  0.00    -0.158 NA
ENDBRANCH  17  18
ENDBRANCH   3  17
TORSDOF 6
