REMARK VINA RESULT:      -5.7      0.000      0.000
REMARK  Name = ZINC00000941
REMARK                            x       y       z     vdW  Elec       q    Type
REMARK                         _______ _______ _______ _____ _____    ______ ____
ROOT
ATOM      1  C   LIG    1       25.786  32.499  55.695  0.00  0.00    -0.027 A 
ATOM      2  C   LIG    1       25.732  31.120  55.617  0.00  0.00    +0.010 A 
ATOM      3  C   LIG    1       24.571  30.454  55.963  0.00  0.00    -0.025 A 
ATOM      4  C   LIG    1       23.465  31.167  56.386  0.00  0.00    +0.010 A 
ATOM      5  C   LIG    1       23.519  32.545  56.464  0.00  0.00    -0.027 A 
ATOM      6  C   LIG    1       24.682  33.211  56.123  0.00  0.00    +0.010 A 
ENDROOT
BRANCH   1   8
ATOM      7  C   LIG    1       27.392  32.934  53.855  0.00  0.00    +0.032 C 
ATOM      8  C   LIG    1       27.052  33.225  55.319  0.00  0.00    +0.077 C 
ATOM      9  C   LIG    1       28.199  32.749  56.213  0.00  0.00    +0.032 C 
BRANCH   8  10
ATOM     10  C   LIG    1       26.859  34.673  55.499  0.00  0.00    +0.073 C 
ATOM     11  N   LIG    1       26.709  35.791  55.637  0.00  0.00    -0.196 NA
ENDBRANCH   8  10
ENDBRANCH   1   8
BRANCH   5  12
ATOM     12  C   LIG    1       22.314  33.322  56.925  0.00  0.00    +0.077 C 
ATOM     13  C   LIG    1       22.731  34.753  57.274  0.00  0.00    +0.032 C 
ATOM     14  C   LIG    1       21.715  32.650  58.162  0.00  0.00    +0.032 C 
BRANCH  12  15
ATOM     15  C   LIG    1       21.309  33.353  55.849  0.00  0.00    +0.073 C 
ATOM     16  N   LIG    1       20.534  33.377  55.020  0.00  0.00    -0.196 NA
ENDBRANCH  12  15
ENDBRANCH   5  12
BRANCH   3  17
ATOM     17  C   LIG    1       24.511  28.950  55.876  0.00  0.00    +0.180 C 
BRANCH  17  18
ATOM     18  N   LIG    1       23.116  28.511  55.969  0.00  0.00    -0.248 N 
ATOM     19  C   LIG    1       22.544  27.853  56.992  0.00  0.00    +0.219 A 
ATOM     20  N   LIG    1       21.288  27.645  56.690  0.00  0.00    -0.223 NA
ATOM     21  C   LIG    1       21.022  28.153  55.487  0.00  0.00    +0.245 A 
ATOM     22  N   LIG    1       22.109  28.699  55.008  0.00  0.00    -0.158 NA
ENDBRANCH  17  18
ENDBRANCH   3  17
TORSDOF 6
