REMARK VINA RESULT:      -5.4      5.268      7.780
REMARK  Name = ZINC00000640
REMARK                            x       y       z     vdW  Elec       q    Type
REMARK                         _______ _______ _______ _____ _____    ______ ____
ROOT
ATOM      1  C   LIG    1       19.363  36.187  57.699  0.00  0.00    +0.008 C 
ATOM      2  C   LIG    1       18.678  35.024  57.029  0.00  0.00    -0.001 C 
ATOM      3  C   LIG    1       19.392  34.110  56.299  0.00  0.00    +0.011 C 
ATOM      4  C   LIG    1       18.736  33.050  55.687  0.00  0.00    +0.086 C 
ATOM      5  N   LIG    1       17.435  32.888  55.790  0.00  0.00    -0.301 NA
ATOM      6  H   LIG    1       17.291  31.967  56.204  0.00  0.00    +0.123 HD
ATOM      7  C   LIG    1       16.686  33.739  56.491  0.00  0.00    +0.130 C 
ATOM      8  N   LIG    1       15.327  33.524  56.576  0.00  0.00    -0.274 NA
ATOM      9  H   LIG    1       15.179  32.608  57.000  0.00  0.00    +0.126 HD
ATOM     10  C   LIG    1       14.641  34.440  57.304  0.00  0.00    +0.194 C 
ATOM     11  N   LIG    1       15.171  35.494  57.918  0.00  0.00    -0.274 NA
ATOM     12  H   LIG    1       14.567  36.106  58.429  0.00  0.00    +0.126 HD
ATOM     13  C   LIG    1       16.471  35.741  57.862  0.00  0.00    +0.127 C 
ATOM     14  C   LIG    1       17.294  34.844  57.135  0.00  0.00    +0.055 C 
ENDROOT
BRANCH  10  15
ATOM     15  N   LIG    1       13.277  34.237  57.398  0.00  0.00    -0.303 NA
ATOM     16  H   LIG    1       12.747  34.122  56.592  0.00  0.00    +0.121 HD
ATOM     17  H   LIG    1       12.849  34.209  58.267  0.00  0.00    +0.121 HD
ENDBRANCH  10  15
BRANCH  13  18
ATOM     18  N   LIG    1       17.011  36.835  58.502  0.00  0.00    -0.315 NA
ATOM     19  H   LIG    1       16.533  37.254  59.235  0.00  0.00    +0.120 HD
ATOM     20  H   LIG    1       17.870  37.187  58.219  0.00  0.00    +0.120 HD
ENDBRANCH  13  18
BRANCH   3  21
ATOM     21  C   LIG    1       20.886  34.255  56.161  0.00  0.00    +0.044 C 
BRANCH  21  22
ATOM     22  C   LIG    1       21.568  33.135  56.905  0.00  0.00    -0.002 A 
ATOM     23  C   LIG    1       21.633  33.162  58.285  0.00  0.00    +0.052 A 
ATOM     24  C   LIG    1       22.261  32.133  58.969  0.00  0.00    +0.121 A 
ATOM     25  C   LIG    1       22.831  31.080  58.268  0.00  0.00    +0.049 A 
ATOM     26  C   LIG    1       22.762  31.052  56.890  0.00  0.00    +0.049 A 
ATOM     27  C   LIG    1       22.134  32.081  56.205  0.00  0.00    +0.123 A 
BRANCH  24  28
ATOM     28  O   LIG    1       22.324  32.158  60.327  0.00  0.00    -0.495 OA
ATOM     29  C   LIG    1       22.933  31.036  60.970  0.00  0.00    +0.277 C 
ENDBRANCH  24  28
BRANCH  27  30
ATOM     30  O   LIG    1       22.071  32.055  54.846  0.00  0.00    -0.495 OA
ATOM     31  C   LIG    1       21.503  30.890  54.246  0.00  0.00    +0.277 C 
ENDBRANCH  27  30
ENDBRANCH  21  22
ENDBRANCH   3  21
TORSDOF 6
