REMARK VINA RESULT:      -5.5      1.309      3.041
REMARK  Name = ZINC00000640
REMARK                            x       y       z     vdW  Elec       q    Type
REMARK                         _______ _______ _______ _____ _____    ______ ____
ROOT
ATOM      1  C   LIG    1       21.657  30.247  58.884  0.00  0.00    +0.008 C 
ATOM      2  C   LIG    1       21.677  30.782  57.475  0.00  0.00    -0.001 C 
ATOM      3  C   LIG    1       20.515  30.956  56.771  0.00  0.00    +0.011 C 
ATOM      4  C   LIG    1       20.560  31.445  55.471  0.00  0.00    +0.086 C 
ATOM      5  N   LIG    1       21.697  31.756  54.888  0.00  0.00    -0.301 NA
ATOM      6  H   LIG    1       21.628  32.739  54.626  0.00  0.00    +0.123 HD
ATOM      7  C   LIG    1       22.861  31.615  55.523  0.00  0.00    +0.130 C 
ATOM      8  N   LIG    1       24.026  31.960  54.873  0.00  0.00    -0.274 NA
ATOM      9  H   LIG    1       23.965  32.946  54.620  0.00  0.00    +0.126 HD
ATOM     10  C   LIG    1       25.164  31.780  55.589  0.00  0.00    +0.194 C 
ATOM     11  N   LIG    1       25.229  31.309  56.831  0.00  0.00    -0.274 NA
ATOM     12  H   LIG    1       26.126  31.217  57.263  0.00  0.00    +0.126 HD
ATOM     13  C   LIG    1       24.136  30.962  57.494  0.00  0.00    +0.127 C 
ATOM     14  C   LIG    1       22.883  31.115  56.848  0.00  0.00    +0.055 C 
ENDROOT
BRANCH  10  15
ATOM     15  N   LIG    1       26.340  32.123  54.949  0.00  0.00    -0.303 NA
ATOM     16  H   LIG    1       26.453  33.016  54.586  0.00  0.00    +0.121 HD
ATOM     17  H   LIG    1       27.052  31.471  54.861  0.00  0.00    +0.121 HD
ENDBRANCH  10  15
BRANCH  13  18
ATOM     18  N   LIG    1       24.213  30.476  58.780  0.00  0.00    -0.315 NA
ATOM     19  H   LIG    1       23.987  29.550  58.963  0.00  0.00    +0.120 HD
ATOM     20  H   LIG    1       24.491  31.059  59.503  0.00  0.00    +0.120 HD
ENDBRANCH  13  18
BRANCH   3  21
ATOM     21  C   LIG    1       19.190  30.618  57.404  0.00  0.00    +0.044 C 
BRANCH  21  22
ATOM     22  C   LIG    1       18.529  29.510  56.625  0.00  0.00    -0.002 A 
ATOM     23  C   LIG    1       19.127  28.266  56.553  0.00  0.00    +0.052 A 
ATOM     24  C   LIG    1       18.520  27.246  55.835  0.00  0.00    +0.121 A 
ATOM     25  C   LIG    1       17.317  27.477  55.185  0.00  0.00    +0.049 A 
ATOM     26  C   LIG    1       16.717  28.718  55.262  0.00  0.00    +0.049 A 
ATOM     27  C   LIG    1       17.324  29.738  55.979  0.00  0.00    +0.123 A 
BRANCH  24  28
ATOM     28  O   LIG    1       19.108  26.022  55.764  0.00  0.00    -0.495 OA
ATOM     29  C   LIG    1       18.279  24.925  55.373  0.00  0.00    +0.277 C 
ENDBRANCH  24  28
BRANCH  27  30
ATOM     30  O   LIG    1       16.736  30.963  56.051  0.00  0.00    -0.495 OA
ATOM     31  C   LIG    1       15.539  31.063  56.825  0.00  0.00    +0.277 C 
ENDBRANCH  27  30
ENDBRANCH  21  22
ENDBRANCH   3  21
TORSDOF 6
