REMARK VINA RESULT:      -5.9      0.000      0.000
REMARK  Name = ZINC00000640
REMARK                            x       y       z     vdW  Elec       q    Type
REMARK                         _______ _______ _______ _____ _____    ______ ____
ROOT
ATOM      1  C   LIG    1       22.505  28.869  58.072  0.00  0.00    +0.008 C 
ATOM      2  C   LIG    1       22.565  29.334  56.639  0.00  0.00    -0.001 C 
ATOM      3  C   LIG    1       21.696  28.841  55.701  0.00  0.00    +0.011 C 
ATOM      4  C   LIG    1       21.775  29.281  54.386  0.00  0.00    +0.086 C 
ATOM      5  N   LIG    1       22.666  30.171  54.006  0.00  0.00    -0.301 NA
ATOM      6  H   LIG    1       22.142  30.954  53.615  0.00  0.00    +0.123 HD
ATOM      7  C   LIG    1       23.534  30.693  54.873  0.00  0.00    +0.130 C 
ATOM      8  N   LIG    1       24.445  31.628  54.429  0.00  0.00    -0.274 NA
ATOM      9  H   LIG    1       23.924  32.418  54.047  0.00  0.00    +0.126 HD
ATOM     10  C   LIG    1       25.294  32.102  55.374  0.00  0.00    +0.194 C 
ATOM     11  N   LIG    1       25.308  31.738  56.654  0.00  0.00    -0.274 NA
ATOM     12  H   LIG    1       25.982  32.155  57.264  0.00  0.00    +0.126 HD
ATOM     13  C   LIG    1       24.453  30.842  57.123  0.00  0.00    +0.127 C 
ATOM     14  C   LIG    1       23.509  30.281  56.228  0.00  0.00    +0.055 C 
ENDROOT
BRANCH  10  15
ATOM     15  N   LIG    1       26.212  33.041  54.943  0.00  0.00    -0.303 NA
ATOM     16  H   LIG    1       25.958  33.697  54.275  0.00  0.00    +0.121 HD
ATOM     17  H   LIG    1       27.111  33.043  55.308  0.00  0.00    +0.121 HD
ENDBRANCH  10  15
BRANCH  13  18
ATOM     18  N   LIG    1       24.475  30.472  58.450  0.00  0.00    -0.315 NA
ATOM     19  H   LIG    1       23.758  30.747  59.043  0.00  0.00    +0.120 HD
ATOM     20  H   LIG    1       25.208  29.937  58.792  0.00  0.00    +0.120 HD
ENDBRANCH  13  18
BRANCH   3  21
ATOM     21  C   LIG    1       20.656  27.824  56.096  0.00  0.00    +0.044 C 
BRANCH  21  22
ATOM     22  C   LIG    1       19.283  28.431  55.955  0.00  0.00    -0.002 A 
ATOM     23  C   LIG    1       19.016  29.669  56.506  0.00  0.00    +0.052 A 
ATOM     24  C   LIG    1       17.754  30.228  56.377  0.00  0.00    +0.121 A 
ATOM     25  C   LIG    1       16.757  29.539  55.701  0.00  0.00    +0.049 A 
ATOM     26  C   LIG    1       17.025  28.304  55.146  0.00  0.00    +0.049 A 
ATOM     27  C   LIG    1       18.288  27.746  55.275  0.00  0.00    +0.123 A 
BRANCH  24  28
ATOM     28  O   LIG    1       17.490  31.447  56.919  0.00  0.00    -0.495 OA
ATOM     29  C   LIG    1       16.314  32.119  56.465  0.00  0.00    +0.277 C 
ENDBRANCH  24  28
BRANCH  27  30
ATOM     30  O   LIG    1       18.551  26.526  54.733  0.00  0.00    -0.495 OA
ATOM     31  C   LIG    1       17.959  25.392  55.369  0.00  0.00    +0.277 C 
ENDBRANCH  27  30
ENDBRANCH  21  22
ENDBRANCH   3  21
TORSDOF 6
