REMARK VINA RESULT:      -5.4      4.880      7.359
REMARK  Name = ZINC00000640
REMARK                            x       y       z     vdW  Elec       q    Type
REMARK                         _______ _______ _______ _____ _____    ______ ____
ROOT
ATOM      1  C   LIG    1       22.990  32.247  56.356  0.00  0.00    +0.008 C 
ATOM      2  C   LIG    1       22.291  32.473  57.672  0.00  0.00    -0.001 C 
ATOM      3  C   LIG    1       21.303  33.415  57.793  0.00  0.00    +0.011 C 
ATOM      4  C   LIG    1       20.678  33.608  59.018  0.00  0.00    +0.086 C 
ATOM      5  N   LIG    1       21.003  32.904  60.081  0.00  0.00    -0.301 NA
ATOM      6  H   LIG    1       20.151  32.435  60.387  0.00  0.00    +0.123 HD
ATOM      7  C   LIG    1       21.951  31.969  60.025  0.00  0.00    +0.130 C 
ATOM      8  N   LIG    1       22.253  31.251  61.163  0.00  0.00    -0.274 NA
ATOM      9  H   LIG    1       21.406  30.771  61.466  0.00  0.00    +0.126 HD
ATOM     10  C   LIG    1       23.233  30.324  61.020  0.00  0.00    +0.194 C 
ATOM     11  N   LIG    1       23.899  30.071  59.897  0.00  0.00    -0.274 NA
ATOM     12  H   LIG    1       24.605  29.362  59.907  0.00  0.00    +0.126 HD
ATOM     13  C   LIG    1       23.645  30.736  58.781  0.00  0.00    +0.127 C 
ATOM     14  C   LIG    1       22.631  31.727  58.806  0.00  0.00    +0.055 C 
ENDROOT
BRANCH  10  15
ATOM     15  N   LIG    1       23.546  29.598  62.153  0.00  0.00    -0.303 NA
ATOM     16  H   LIG    1       22.937  29.593  62.910  0.00  0.00    +0.121 HD
ATOM     17  H   LIG    1       24.372  29.093  62.193  0.00  0.00    +0.121 HD
ENDBRANCH  10  15
BRANCH  13  18
ATOM     18  N   LIG    1       24.340  30.467  57.622  0.00  0.00    -0.315 NA
ATOM     19  H   LIG    1       25.299  30.605  57.589  0.00  0.00    +0.120 HD
ATOM     20  H   LIG    1       23.869  30.140  56.840  0.00  0.00    +0.120 HD
ENDBRANCH  13  18
BRANCH   3  21
ATOM     21  C   LIG    1       20.896  34.239  56.599  0.00  0.00    +0.044 C 
BRANCH  21  22
ATOM     22  C   LIG    1       21.137  35.698  56.891  0.00  0.00    -0.002 A 
ATOM     23  C   LIG    1       22.430  36.181  56.969  0.00  0.00    +0.052 A 
ATOM     24  C   LIG    1       22.653  37.523  57.237  0.00  0.00    +0.121 A 
ATOM     25  C   LIG    1       21.579  38.379  57.435  0.00  0.00    +0.049 A 
ATOM     26  C   LIG    1       20.288  37.897  57.352  0.00  0.00    +0.049 A 
ATOM     27  C   LIG    1       20.065  36.555  57.083  0.00  0.00    +0.123 A 
BRANCH  24  28
ATOM     28  O   LIG    1       23.924  37.999  57.315  0.00  0.00    -0.495 OA
ATOM     29  C   LIG    1       24.680  38.033  56.102  0.00  0.00    +0.277 C 
ENDBRANCH  24  28
BRANCH  27  30
ATOM     30  O   LIG    1       18.792  36.079  57.006  0.00  0.00    -0.495 OA
ATOM     31  C   LIG    1       17.939  36.327  58.125  0.00  0.00    +0.277 C 
ENDBRANCH  27  30
ENDBRANCH  21  22
ENDBRANCH   3  21
TORSDOF 6
