REMARK VINA RESULT:      -5.5      3.903      7.478
REMARK  Name = ZINC00000640
REMARK                            x       y       z     vdW  Elec       q    Type
REMARK                         _______ _______ _______ _____ _____    ______ ____
ROOT
ATOM      1  C   LIG    1       24.181  30.773  58.298  0.00  0.00    +0.008 C 
ATOM      2  C   LIG    1       23.588  30.890  56.918  0.00  0.00    -0.001 C 
ATOM      3  C   LIG    1       24.386  31.080  55.821  0.00  0.00    +0.011 C 
ATOM      4  C   LIG    1       23.814  31.191  54.560  0.00  0.00    +0.086 C 
ATOM      5  N   LIG    1       22.513  31.113  54.380  0.00  0.00    -0.301 NA
ATOM      6  H   LIG    1       22.357  30.339  53.735  0.00  0.00    +0.123 HD
ATOM      7  C   LIG    1       21.685  30.924  55.407  0.00  0.00    +0.130 C 
ATOM      8  N   LIG    1       20.329  30.842  55.168  0.00  0.00    -0.274 NA
ATOM      9  H   LIG    1       20.168  30.062  54.532  0.00  0.00    +0.126 HD
ATOM     10  C   LIG    1       19.558  30.654  56.268  0.00  0.00    +0.194 C 
ATOM     11  N   LIG    1       20.005  30.548  57.517  0.00  0.00    -0.274 NA
ATOM     12  H   LIG    1       19.343  30.410  58.254  0.00  0.00    +0.126 HD
ATOM     13  C   LIG    1       21.298  30.621  57.793  0.00  0.00    +0.127 C 
ATOM     14  C   LIG    1       22.205  30.808  56.719  0.00  0.00    +0.055 C 
ENDROOT
BRANCH  10  15
ATOM     15  N   LIG    1       18.197  30.571  56.044  0.00  0.00    -0.303 NA
ATOM     16  H   LIG    1       17.717  31.336  55.688  0.00  0.00    +0.121 HD
ATOM     17  H   LIG    1       17.722  29.750  56.242  0.00  0.00    +0.121 HD
ENDBRANCH  10  15
BRANCH  13  18
ATOM     18  N   LIG    1       21.752  30.509  59.089  0.00  0.00    -0.315 NA
ATOM     19  H   LIG    1       21.886  31.305  59.627  0.00  0.00    +0.120 HD
ATOM     20  H   LIG    1       21.940  29.634  59.463  0.00  0.00    +0.120 HD
ENDBRANCH  13  18
BRANCH   3  21
ATOM     21  C   LIG    1       25.882  31.167  55.981  0.00  0.00    +0.044 C 
BRANCH  21  22
ATOM     22  C   LIG    1       26.334  32.580  55.709  0.00  0.00    -0.002 A 
ATOM     23  C   LIG    1       25.688  33.640  56.316  0.00  0.00    +0.052 A 
ATOM     24  C   LIG    1       26.103  34.939  56.065  0.00  0.00    +0.121 A 
ATOM     25  C   LIG    1       27.161  35.174  55.200  0.00  0.00    +0.049 A 
ATOM     26  C   LIG    1       27.810  34.114  54.598  0.00  0.00    +0.049 A 
ATOM     27  C   LIG    1       27.395  32.815  54.849  0.00  0.00    +0.123 A 
BRANCH  24  28
ATOM     28  O   LIG    1       25.467  35.983  56.662  0.00  0.00    -0.495 OA
ATOM     29  C   LIG    1       25.781  37.293  56.185  0.00  0.00    +0.277 C 
ENDBRANCH  24  28
BRANCH  27  30
ATOM     30  O   LIG    1       28.031  31.771  54.251  0.00  0.00    -0.495 OA
ATOM     31  C   LIG    1       29.036  31.102  55.015  0.00  0.00    +0.277 C 
ENDBRANCH  27  30
ENDBRANCH  21  22
ENDBRANCH   3  21
TORSDOF 6
