REMARK VINA RESULT:      -5.2      2.577      3.191
REMARK  Name = ZINC00000435
REMARK                            x       y       z     vdW  Elec       q    Type
REMARK                         _______ _______ _______ _____ _____    ______ ____
ROOT
ATOM      1  C   LIG    1       25.543  32.097  55.670  0.00  0.00    -0.034 A 
ATOM      2  C   LIG    1       24.417  32.580  56.311  0.00  0.00    +0.005 A 
ATOM      3  C   LIG    1       23.523  31.702  56.893  0.00  0.00    +0.004 A 
ATOM      4  C   LIG    1       23.754  30.340  56.834  0.00  0.00    -0.047 A 
ATOM      5  C   LIG    1       24.879  29.857  56.192  0.00  0.00    +0.004 A 
ATOM      6  C   LIG    1       25.771  30.735  55.606  0.00  0.00    +0.005 A 
ENDROOT
BRANCH   1   8
ATOM      7  C   LIG    1       27.593  32.266  54.284  0.00  0.00    +0.024 C 
ATOM      8  C   LIG    1       26.518  33.055  55.035  0.00  0.00    +0.124 C 
BRANCH   8   9
ATOM      9  C   LIG    1       27.167  33.895  56.105  0.00  0.00    +0.312 C 
ATOM     10  O   LIG    1       26.921  35.086  56.177  0.00  0.00    -0.250 OA
BRANCH   9  11
ATOM     11  O   LIG    1       27.937  33.382  56.899  0.00  0.00    -0.480 OA
ATOM     12  H   LIG    1       27.631  33.111  57.742  0.00  0.00    +0.295 HD
ENDBRANCH   9  11
ENDBRANCH   8   9
ENDBRANCH   1   8
BRANCH   4  13
ATOM     13  C   LIG    1       22.779  29.383  57.469  0.00  0.00    +0.046 C 
BRANCH  13  14
ATOM     14  C   LIG    1       22.258  29.977  58.780  0.00  0.00    +0.060 C 
ATOM     15  C   LIG    1       20.850  29.428  59.085  0.00  0.00    +0.012 C 
ATOM     16  C   LIG    1       20.851  29.248  60.624  0.00  0.00    +0.008 C 
ATOM     17  C   LIG    1       22.296  28.764  60.899  0.00  0.00    +0.074 C 
ATOM     18  C   LIG    1       23.153  29.559  59.928  0.00  0.00    +0.137 C 
ATOM     19  O   LIG    1       24.328  29.809  60.048  0.00  0.00    -0.297 OA
ENDBRANCH  13  14
ENDBRANCH   4  13
TORSDOF 5
