REMARK VINA RESULT:      -5.5      0.000      0.000
REMARK  Name = ZINC00000435
REMARK                            x       y       z     vdW  Elec       q    Type
REMARK                         _______ _______ _______ _____ _____    ______ ____
ROOT
ATOM      1  C   LIG    1       25.995  31.915  55.206  0.00  0.00    -0.034 A 
ATOM      2  C   LIG    1       25.855  31.699  56.564  0.00  0.00    +0.005 A 
ATOM      3  C   LIG    1       24.680  31.166  57.062  0.00  0.00    +0.004 A 
ATOM      4  C   LIG    1       23.646  30.849  56.201  0.00  0.00    -0.047 A 
ATOM      5  C   LIG    1       23.786  31.067  54.843  0.00  0.00    +0.004 A 
ATOM      6  C   LIG    1       24.959  31.604  54.345  0.00  0.00    +0.005 A 
ENDROOT
BRANCH   1   8
ATOM      7  C   LIG    1       28.415  31.495  54.863  0.00  0.00    +0.024 C 
ATOM      8  C   LIG    1       27.275  32.496  54.663  0.00  0.00    +0.124 C 
BRANCH   8   9
ATOM      9  C   LIG    1       27.596  33.775  55.394  0.00  0.00    +0.312 C 
ATOM     10  O   LIG    1       26.998  34.800  55.118  0.00  0.00    -0.250 OA
BRANCH   9  11
ATOM     11  O   LIG    1       28.452  33.782  56.262  0.00  0.00    -0.480 OA
ATOM     12  H   LIG    1       29.353  33.657  56.033  0.00  0.00    +0.295 HD
ENDBRANCH   9  11
ENDBRANCH   8   9
ENDBRANCH   1   8
BRANCH   4  13
ATOM     13  C   LIG    1       22.366  30.268  56.743  0.00  0.00    +0.046 C 
BRANCH  13  14
ATOM     14  C   LIG    1       21.489  29.790  55.583  0.00  0.00    +0.060 C 
ATOM     15  C   LIG    1       21.188  28.285  55.735  0.00  0.00    +0.012 C 
ATOM     16  C   LIG    1       19.722  28.153  55.251  0.00  0.00    +0.008 C 
ATOM     17  C   LIG    1       19.079  29.456  55.786  0.00  0.00    +0.074 C 
ATOM     18  C   LIG    1       20.157  30.512  55.612  0.00  0.00    +0.137 C 
ATOM     19  O   LIG    1       19.986  31.702  55.514  0.00  0.00    -0.297 OA
ENDBRANCH  13  14
ENDBRANCH   4  13
TORSDOF 5
