REMARK VINA RESULT:      -5.3      1.326      2.126
REMARK  Name = ZINC00000435
REMARK                            x       y       z     vdW  Elec       q    Type
REMARK                         _______ _______ _______ _____ _____    ______ ____
ROOT
ATOM      1  C   LIG    1       26.048  31.927  55.157  0.00  0.00    -0.034 A 
ATOM      2  C   LIG    1       25.889  31.762  56.520  0.00  0.00    +0.005 A 
ATOM      3  C   LIG    1       24.684  31.313  57.027  0.00  0.00    +0.004 A 
ATOM      4  C   LIG    1       23.637  31.028  56.169  0.00  0.00    -0.047 A 
ATOM      5  C   LIG    1       23.796  31.193  54.806  0.00  0.00    +0.004 A 
ATOM      6  C   LIG    1       25.000  31.647  54.300  0.00  0.00    +0.005 A 
ENDROOT
BRANCH   1   8
ATOM      7  C   LIG    1       28.458  31.394  54.911  0.00  0.00    +0.024 C 
ATOM      8  C   LIG    1       27.362  32.417  54.605  0.00  0.00    +0.124 C 
BRANCH   8   9
ATOM      9  C   LIG    1       27.714  33.736  55.243  0.00  0.00    +0.312 C 
ATOM     10  O   LIG    1       27.121  34.749  54.913  0.00  0.00    -0.250 OA
BRANCH   9  11
ATOM     11  O   LIG    1       28.590  33.790  56.088  0.00  0.00    -0.480 OA
ATOM     12  H   LIG    1       29.199  34.502  56.088  0.00  0.00    +0.295 HD
ENDBRANCH   9  11
ENDBRANCH   8   9
ENDBRANCH   1   8
BRANCH   4  13
ATOM     13  C   LIG    1       22.323  30.538  56.721  0.00  0.00    +0.046 C 
BRANCH  13  14
ATOM     14  C   LIG    1       21.368  31.720  56.893  0.00  0.00    +0.060 C 
ATOM     15  C   LIG    1       22.105  33.042  56.591  0.00  0.00    +0.012 C 
ATOM     16  C   LIG    1       21.039  33.900  55.864  0.00  0.00    +0.008 C 
ATOM     17  C   LIG    1       20.292  32.845  55.011  0.00  0.00    +0.074 C 
ATOM     18  C   LIG    1       20.230  31.613  55.898  0.00  0.00    +0.137 C 
ATOM     19  O   LIG    1       19.426  30.716  55.824  0.00  0.00    -0.297 OA
ENDBRANCH  13  14
ENDBRANCH   4  13
TORSDOF 5
