REMARK VINA RESULT:      -5.2      1.222      1.539
REMARK  Name = ZINC00000435
REMARK                            x       y       z     vdW  Elec       q    Type
REMARK                         _______ _______ _______ _____ _____    ______ ____
ROOT
ATOM      1  C   LIG    1       26.018  31.906  55.226  0.00  0.00    -0.034 A 
ATOM      2  C   LIG    1       25.938  31.614  56.575  0.00  0.00    +0.005 A 
ATOM      3  C   LIG    1       24.786  31.053  57.094  0.00  0.00    +0.004 A 
ATOM      4  C   LIG    1       23.714  30.784  56.263  0.00  0.00    -0.047 A 
ATOM      5  C   LIG    1       23.794  31.077  54.915  0.00  0.00    +0.004 A 
ATOM      6  C   LIG    1       24.944  31.643  54.397  0.00  0.00    +0.005 A 
ENDROOT
BRANCH   1   8
ATOM      7  C   LIG    1       28.445  31.554  54.856  0.00  0.00    +0.024 C 
ATOM      8  C   LIG    1       27.274  32.519  54.660  0.00  0.00    +0.124 C 
BRANCH   8   9
ATOM      9  C   LIG    1       27.566  33.814  55.373  0.00  0.00    +0.312 C 
ATOM     10  O   LIG    1       26.968  34.829  55.061  0.00  0.00    -0.250 OA
BRANCH   9  11
ATOM     11  O   LIG    1       28.400  33.846  56.262  0.00  0.00    -0.480 OA
ATOM     12  H   LIG    1       28.217  33.450  57.091  0.00  0.00    +0.295 HD
ENDBRANCH   9  11
ENDBRANCH   8   9
ENDBRANCH   1   8
BRANCH   4  13
ATOM     13  C   LIG    1       22.458  30.171  56.828  0.00  0.00    +0.046 C 
BRANCH  13  14
ATOM     14  C   LIG    1       22.441  28.671  56.527  0.00  0.00    +0.060 C 
ATOM     15  C   LIG    1       22.388  27.869  57.844  0.00  0.00    +0.012 C 
ATOM     16  C   LIG    1       21.459  26.675  57.510  0.00  0.00    +0.008 C 
ATOM     17  C   LIG    1       20.403  27.327  56.583  0.00  0.00    +0.074 C 
ATOM     18  C   LIG    1       21.193  28.317  55.744  0.00  0.00    +0.137 C 
ATOM     19  O   LIG    1       20.884  28.742  54.658  0.00  0.00    -0.297 OA
ENDBRANCH  13  14
ENDBRANCH   4  13
TORSDOF 5
