REMARK VINA RESULT:      -5.4      1.605      2.428
REMARK  Name = ZINC00000435
REMARK                            x       y       z     vdW  Elec       q    Type
REMARK                         _______ _______ _______ _____ _____    ______ ____
ROOT
ATOM      1  C   LIG    1       26.045  32.090  55.954  0.00  0.00    -0.034 A 
ATOM      2  C   LIG    1       25.643  32.080  54.631  0.00  0.00    +0.005 A 
ATOM      3  C   LIG    1       24.632  31.231  54.222  0.00  0.00    +0.004 A 
ATOM      4  C   LIG    1       24.021  30.393  55.137  0.00  0.00    -0.047 A 
ATOM      5  C   LIG    1       24.423  30.403  56.460  0.00  0.00    +0.004 A 
ATOM      6  C   LIG    1       25.439  31.248  56.867  0.00  0.00    +0.005 A 
ENDROOT
BRANCH   1   8
ATOM      7  C   LIG    1       26.780  34.457  56.043  0.00  0.00    +0.024 C 
ATOM      8  C   LIG    1       27.148  33.015  56.399  0.00  0.00    +0.124 C 
BRANCH   8   9
ATOM      9  C   LIG    1       28.431  32.637  55.704  0.00  0.00    +0.312 C 
ATOM     10  O   LIG    1       28.710  31.463  55.535  0.00  0.00    -0.250 OA
BRANCH   9  11
ATOM     11  O   LIG    1       29.190  33.507  55.311  0.00  0.00    -0.480 OA
ATOM     12  H   LIG    1       30.056  33.568  55.663  0.00  0.00    +0.295 HD
ENDBRANCH   9  11
ENDBRANCH   8   9
ENDBRANCH   1   8
BRANCH   4  13
ATOM     13  C   LIG    1       22.917  29.468  54.692  0.00  0.00    +0.046 C 
BRANCH  13  14
ATOM     14  C   LIG    1       21.785  29.492  55.721  0.00  0.00    +0.060 C 
ATOM     15  C   LIG    1       20.523  30.129  55.102  0.00  0.00    +0.012 C 
ATOM     16  C   LIG    1       19.361  29.295  55.696  0.00  0.00    +0.008 C 
ATOM     17  C   LIG    1       19.961  27.867  55.729  0.00  0.00    +0.074 C 
ATOM     18  C   LIG    1       21.416  28.076  56.115  0.00  0.00    +0.137 C 
ATOM     19  O   LIG    1       22.142  27.266  56.637  0.00  0.00    -0.297 OA
ENDBRANCH  13  14
ENDBRANCH   4  13
TORSDOF 5
