REMARK VINA RESULT:      -6.0      0.000      0.000
REMARK  Name = ZINC00000596
REMARK                            x       y       z     vdW  Elec       q    Type
REMARK                         _______ _______ _______ _____ _____    ______ ____
ROOT
ATOM      1  C   LIG    1       20.356  31.543  56.164  0.00  0.00    +0.007 C 
ATOM      2  C   LIG    1       21.661  31.286  55.408  0.00  0.00    -0.017 C 
ATOM      3  C   LIG    1       22.778  32.146  56.000  0.00  0.00    -0.060 C 
ATOM      4  N   LIG    1       24.063  31.897  55.315  0.00  0.00    +0.384 N 
ATOM      5  H   LIG    1       23.956  32.134  54.322  0.00  0.00    -0.081 HD
ATOM      6  C   LIG    1       24.452  30.469  55.422  0.00  0.00    -0.077 C 
ATOM      7  C   LIG    1       23.369  29.603  54.770  0.00  0.00    -0.007 C 
ATOM      8  C   LIG    1       22.837  31.952  57.506  0.00  0.00    +0.020 C 
ATOM      9  C   LIG    1       22.731  30.501  57.892  0.00  0.00    -0.045 A 
ATOM     10  C   LIG    1       23.010  30.164  59.212  0.00  0.00    +0.007 A 
ATOM     11  C   LIG    1       22.902  28.860  59.642  0.00  0.00    +0.045 A 
ATOM     12  C   LIG    1       22.510  27.870  58.752  0.00  0.00    +0.117 A 
ATOM     13  C   LIG    1       22.240  28.203  57.435  0.00  0.00    +0.049 A 
ATOM     14  C   LIG    1       22.356  29.517  57.006  0.00  0.00    -0.035 A 
ATOM     15  C   LIG    1       22.062  29.814  55.555  0.00  0.00    -0.007 C 
ATOM     16  C   LIG    1       20.958  28.901  55.019  0.00  0.00    +0.016 C 
ENDROOT
BRANCH  12  17
ATOM     17  O   LIG    1       22.394  26.582  59.169  0.00  0.00    -0.507 OA
ATOM     18  H   LIG    1       21.726  26.449  59.855  0.00  0.00    +0.292 HD
ENDBRANCH  12  17
BRANCH   4  19
ATOM     19  C   LIG    1       25.110  32.748  55.896  0.00  0.00    -0.051 C 
BRANCH  19  20
ATOM     20  C   LIG    1       26.433  32.037  55.778  0.00  0.00    -0.047 C 
ATOM     21  C   LIG    1       27.480  32.672  55.315  0.00  0.00    -0.081 C 
ATOM     22  C   LIG    1       28.831  32.004  55.321  0.00  0.00    +0.038 C 
ATOM     23  C   LIG    1       27.334  34.071  54.775  0.00  0.00    +0.038 C 
ENDBRANCH  19  20
ENDBRANCH   4  19
TORSDOF 3
