REMARK VINA RESULT:      -5.4      2.088      3.663
REMARK  Name = ZINC00000596
REMARK                            x       y       z     vdW  Elec       q    Type
REMARK                         _______ _______ _______ _____ _____    ______ ____
ROOT
ATOM      1  C   LIG    1       21.313  28.545  55.196  0.00  0.00    +0.007 C 
ATOM      2  C   LIG    1       22.340  29.235  56.096  0.00  0.00    -0.017 C 
ATOM      3  C   LIG    1       23.147  30.244  55.280  0.00  0.00    -0.060 C 
ATOM      4  N   LIG    1       24.127  30.955  56.128  0.00  0.00    +0.384 N 
ATOM      5  H   LIG    1       24.773  30.265  56.530  0.00  0.00    -0.081 HD
ATOM      6  C   LIG    1       23.448  31.670  57.236  0.00  0.00    -0.077 C 
ATOM      7  C   LIG    1       22.692  30.656  58.101  0.00  0.00    -0.007 C 
ATOM      8  C   LIG    1       22.206  31.168  54.524  0.00  0.00    +0.020 C 
ATOM      9  C   LIG    1       21.071  31.647  55.388  0.00  0.00    -0.045 A 
ATOM     10  C   LIG    1       20.278  32.678  54.897  0.00  0.00    +0.007 A 
ATOM     11  C   LIG    1       19.202  33.144  55.621  0.00  0.00    +0.045 A 
ATOM     12  C   LIG    1       18.905  32.580  56.854  0.00  0.00    +0.117 A 
ATOM     13  C   LIG    1       19.698  31.559  57.348  0.00  0.00    +0.049 A 
ATOM     14  C   LIG    1       20.784  31.098  56.618  0.00  0.00    -0.035 A 
ATOM     15  C   LIG    1       21.620  29.992  57.217  0.00  0.00    -0.007 C 
ATOM     16  C   LIG    1       20.757  29.036  58.043  0.00  0.00    +0.016 C 
ENDROOT
BRANCH  12  17
ATOM     17  O   LIG    1       17.841  33.029  57.572  0.00  0.00    -0.507 OA
ATOM     18  H   LIG    1       17.082  33.287  57.032  0.00  0.00    +0.292 HD
ENDBRANCH  12  17
BRANCH   4  19
ATOM     19  C   LIG    1       24.895  31.905  55.312  0.00  0.00    -0.051 C 
BRANCH  19  20
ATOM     20  C   LIG    1       26.346  31.503  55.336  0.00  0.00    -0.047 C 
ATOM     21  C   LIG    1       27.282  32.418  55.281  0.00  0.00    -0.081 C 
ATOM     22  C   LIG    1       28.729  32.027  55.438  0.00  0.00    +0.038 C 
ATOM     23  C   LIG    1       26.911  33.861  55.059  0.00  0.00    +0.038 C 
ENDBRANCH  19  20
ENDBRANCH   4  19
TORSDOF 3
