REMARK VINA RESULT:      -5.9      1.451      2.140
REMARK  Name = ZINC00000596
REMARK                            x       y       z     vdW  Elec       q    Type
REMARK                         _______ _______ _______ _____ _____    ______ ____
ROOT
ATOM      1  C   LIG    1       21.183  31.953  58.349  0.00  0.00    +0.007 C 
ATOM      2  C   LIG    1       21.743  32.089  56.932  0.00  0.00    -0.017 C 
ATOM      3  C   LIG    1       23.246  31.806  56.941  0.00  0.00    -0.060 C 
ATOM      4  N   LIG    1       23.813  31.895  55.580  0.00  0.00    +0.384 N 
ATOM      5  H   LIG    1       23.661  32.845  55.222  0.00  0.00    -0.081 HD
ATOM      6  C   LIG    1       23.151  30.932  54.665  0.00  0.00    -0.077 C 
ATOM      7  C   LIG    1       21.654  31.252  54.597  0.00  0.00    -0.007 C 
ATOM      8  C   LIG    1       23.517  30.481  57.634  0.00  0.00    +0.020 C 
ATOM      9  C   LIG    1       22.560  29.407  57.193  0.00  0.00    -0.045 A 
ATOM     10  C   LIG    1       22.845  28.098  57.565  0.00  0.00    +0.007 A 
ATOM     11  C   LIG    1       21.994  27.069  57.223  0.00  0.00    +0.045 A 
ATOM     12  C   LIG    1       20.841  27.338  56.499  0.00  0.00    +0.117 A 
ATOM     13  C   LIG    1       20.560  28.641  56.121  0.00  0.00    +0.049 A 
ATOM     14  C   LIG    1       21.423  29.672  56.463  0.00  0.00    -0.035 A 
ATOM     15  C   LIG    1       21.069  31.068  56.009  0.00  0.00    -0.007 C 
ATOM     16  C   LIG    1       19.553  31.275  55.996  0.00  0.00    +0.016 C 
ENDROOT
BRANCH  12  17
ATOM     17  O   LIG    1       19.993  26.331  56.163  0.00  0.00    -0.507 OA
ATOM     18  H   LIG    1       19.214  26.265  56.732  0.00  0.00    +0.292 HD
ENDBRANCH  12  17
BRANCH   4  19
ATOM     19  C   LIG    1       25.258  31.632  55.625  0.00  0.00    -0.051 C 
BRANCH  19  20
ATOM     20  C   LIG    1       25.983  32.939  55.819  0.00  0.00    -0.047 C 
ATOM     21  C   LIG    1       26.816  33.368  54.904  0.00  0.00    -0.081 C 
ATOM     22  C   LIG    1       27.439  34.734  55.035  0.00  0.00    +0.038 C 
ATOM     23  C   LIG    1       27.152  32.496  53.722  0.00  0.00    +0.038 C 
ENDBRANCH  19  20
ENDBRANCH   4  19
TORSDOF 3
