REMARK VINA RESULT:      -5.4      2.767      4.233
REMARK  Name = ZINC00000596
REMARK                            x       y       z     vdW  Elec       q    Type
REMARK                         _______ _______ _______ _____ _____    ______ ____
ROOT
ATOM      1  C   LIG    1       20.491  28.036  55.979  0.00  0.00    +0.007 C 
ATOM      2  C   LIG    1       21.130  29.193  55.210  0.00  0.00    -0.017 C 
ATOM      3  C   LIG    1       20.277  30.452  55.369  0.00  0.00    -0.060 C 
ATOM      4  N   LIG    1       20.885  31.600  54.666  0.00  0.00    +0.384 N 
ATOM      5  H   LIG    1       20.954  31.374  53.667  0.00  0.00    -0.081 HD
ATOM      6  C   LIG    1       22.248  31.878  55.184  0.00  0.00    -0.077 C 
ATOM      7  C   LIG    1       23.129  30.644  54.965  0.00  0.00    -0.007 C 
ATOM      8  C   LIG    1       20.004  30.708  56.842  0.00  0.00    +0.020 C 
ATOM      9  C   LIG    1       21.240  30.535  57.683  0.00  0.00    -0.045 A 
ATOM     10  C   LIG    1       21.187  30.970  59.002  0.00  0.00    +0.007 A 
ATOM     11  C   LIG    1       22.271  30.813  59.838  0.00  0.00    +0.045 A 
ATOM     12  C   LIG    1       23.430  30.216  59.361  0.00  0.00    +0.117 A 
ATOM     13  C   LIG    1       23.487  29.790  58.045  0.00  0.00    +0.049 A 
ATOM     14  C   LIG    1       22.394  29.956  57.206  0.00  0.00    -0.035 A 
ATOM     15  C   LIG    1       22.523  29.484  55.777  0.00  0.00    -0.007 C 
ATOM     16  C   LIG    1       23.411  28.241  55.686  0.00  0.00    +0.016 C 
ENDROOT
BRANCH  12  17
ATOM     17  O   LIG    1       24.501  30.051  60.181  0.00  0.00    -0.507 OA
ATOM     18  H   LIG    1       25.250  30.626  59.971  0.00  0.00    +0.292 HD
ENDBRANCH  12  17
BRANCH   4  19
ATOM     19  C   LIG    1       20.036  32.789  54.825  0.00  0.00    -0.051 C 
BRANCH  19  20
ATOM     20  C   LIG    1       20.810  33.842  55.575  0.00  0.00    -0.047 C 
ATOM     21  C   LIG    1       20.226  34.538  56.518  0.00  0.00    -0.081 C 
ATOM     22  C   LIG    1       21.033  35.496  57.356  0.00  0.00    +0.038 C 
ATOM     23  C   LIG    1       18.748  34.381  56.765  0.00  0.00    +0.038 C 
ENDBRANCH  19  20
ENDBRANCH   4  19
TORSDOF 3
