REMARK VINA RESULT:      -5.8      1.771      3.395
REMARK  Name = ZINC00000596
REMARK                            x       y       z     vdW  Elec       q    Type
REMARK                         _______ _______ _______ _____ _____    ______ ____
ROOT
ATOM      1  C   LIG    1       23.026  29.352  59.443  0.00  0.00    +0.007 C 
ATOM      2  C   LIG    1       23.255  30.683  58.725  0.00  0.00    -0.017 C 
ATOM      3  C   LIG    1       24.234  30.483  57.567  0.00  0.00    -0.060 C 
ATOM      4  N   LIG    1       24.451  31.744  56.829  0.00  0.00    +0.384 N 
ATOM      5  H   LIG    1       24.845  32.438  57.475  0.00  0.00    -0.081 HD
ATOM      6  C   LIG    1       23.173  32.269  56.288  0.00  0.00    -0.077 C 
ATOM      7  C   LIG    1       22.210  32.538  57.449  0.00  0.00    -0.007 C 
ATOM      8  C   LIG    1       23.769  29.331  56.692  0.00  0.00    +0.020 C 
ATOM      9  C   LIG    1       22.291  29.393  56.415  0.00  0.00    -0.045 A 
ATOM     10  C   LIG    1       21.782  28.544  55.438  0.00  0.00    +0.007 A 
ATOM     11  C   LIG    1       20.434  28.525  55.156  0.00  0.00    +0.045 A 
ATOM     12  C   LIG    1       19.572  29.362  55.851  0.00  0.00    +0.117 A 
ATOM     13  C   LIG    1       20.078  30.214  56.818  0.00  0.00    +0.049 A 
ATOM     14  C   LIG    1       21.438  30.233  57.094  0.00  0.00    -0.035 A 
ATOM     15  C   LIG    1       21.931  31.195  58.149  0.00  0.00    -0.007 C 
ATOM     16  C   LIG    1       20.894  31.371  59.260  0.00  0.00    +0.016 C 
ENDROOT
BRANCH  12  17
ATOM     17  O   LIG    1       18.239  29.345  55.584  0.00  0.00    -0.507 OA
ATOM     18  H   LIG    1       17.960  28.610  55.022  0.00  0.00    +0.292 HD
ENDBRANCH  12  17
BRANCH   4  19
ATOM     19  C   LIG    1       25.406  31.521  55.734  0.00  0.00    -0.051 C 
BRANCH  19  20
ATOM     20  C   LIG    1       25.987  32.849  55.320  0.00  0.00    -0.047 C 
ATOM     21  C   LIG    1       27.248  32.934  54.976  0.00  0.00    -0.081 C 
ATOM     22  C   LIG    1       27.796  34.230  54.437  0.00  0.00    +0.038 C 
ATOM     23  C   LIG    1       28.150  31.736  55.121  0.00  0.00    +0.038 C 
ENDBRANCH  19  20
ENDBRANCH   4  19
TORSDOF 3
