REMARK  Name = ZINC08816058
REMARK                            x       y       z     vdW  Elec       q    Type
REMARK                         _______ _______ _______ _____ _____    ______ ____
ROOT
ATOM      1  N   LIG    1        2.244   1.331   0.991  0.00  0.00    -0.285 N 
ATOM      2  H   LIG    1        1.929   0.628   1.777  0.00  0.00    +0.155 HD
ATOM      3  C   LIG    1        1.348   1.778   0.089  0.00  0.00    +0.222 C 
ATOM      4  O   LIG    1        1.671   2.624  -0.718  0.00  0.00    -0.275 OA
ENDROOT
BRANCH   1  11
ATOM      5  C   LIG    1        6.421   2.514   3.298  0.00  0.00    +0.044 C 
ATOM      6  C   LIG    1        5.622   2.342   2.031  0.00  0.00    -0.048 A 
ATOM      7  C   LIG    1        6.205   2.609   0.806  0.00  0.00    +0.006 A 
ATOM      8  C   LIG    1        5.475   2.452  -0.358  0.00  0.00    -0.048 A 
ATOM      9  C   LIG    1        6.113   2.744  -1.692  0.00  0.00    +0.044 C 
ATOM     10  C   LIG    1        4.162   2.029  -0.300  0.00  0.00    +0.026 A 
ATOM     11  C   LIG    1        3.574   1.760   0.929  0.00  0.00    +0.034 A 
ATOM     12  C   LIG    1        4.308   1.924   2.097  0.00  0.00    +0.026 A 
ENDBRANCH   1  11
BRANCH   3  13
ATOM     13  C   LIG    1       -0.054   1.226   0.082  0.00  0.00    +0.101 C 
ATOM     14  C   LIG    1       -0.797   1.587   1.389  0.00  0.00    +0.110 C 
ATOM     15  C   LIG    1       -2.218   1.857   0.945  0.00  0.00    +0.217 C 
ATOM     16  N   LIG    1       -2.260   2.042  -0.386  0.00  0.00    -0.298 N 
ATOM     17  O   LIG    1       -3.180   1.898   1.682  0.00  0.00    -0.276 OA
ATOM     18  C   LIG    1       -0.922   1.936  -0.982  0.00  0.00    +0.121 C 
BRANCH  16  19
ATOM     19  C   LIG    1       -3.483   2.317  -1.145  0.00  0.00    +0.076 C 
ATOM     20  C   LIG    1       -4.121   3.610  -0.634  0.00  0.00    +0.022 C 
ATOM     21  C   LIG    1       -5.398   3.896  -1.426  0.00  0.00    +0.002 C 
ATOM     22  C   LIG    1       -6.380   2.737  -1.246  0.00  0.00    +0.000 C 
ATOM     23  C   LIG    1       -5.742   1.444  -1.757  0.00  0.00    +0.002 C 
ATOM     24  C   LIG    1       -4.465   1.157  -0.964  0.00  0.00    +0.022 C 
ENDBRANCH  16  19
ENDBRANCH   3  13
TORSDOF 3
