REMARK  Name = ZINC09933928
REMARK                            x       y       z     vdW  Elec       q    Type
REMARK                         _______ _______ _______ _____ _____    ______ ____
ROOT
ATOM      1  N   LIG    1        4.450   5.670   1.200  0.00  0.00    -0.269 N 
ATOM      2  C   LIG    1        3.786   6.036  -0.062  0.00  0.00    +0.173 C 
ATOM      3  C   LIG    1        3.776   7.551  -0.035  0.00  0.00    +0.248 C 
ATOM      4  N   LIG    1        4.375   7.898   1.122  0.00  0.00    -0.192 N 
ATOM      5  O   LIG    1        3.326   8.296  -0.878  0.00  0.00    -0.273 OA
ATOM      6  C   LIG    1        4.756   6.824   1.822  0.00  0.00    +0.317 C 
ATOM      7  O   LIG    1        5.317   6.883   2.898  0.00  0.00    -0.252 OA
ENDROOT
BRANCH   4   8
ATOM      8  C   LIG    1        4.573   9.222   1.540  0.00  0.00    +0.049 A 
ATOM      9  C   LIG    1        4.038  10.271   0.804  0.00  0.00    +0.024 A 
ATOM     10  C   LIG    1        4.229  11.575   1.218  0.00  0.00    +0.005 A 
ATOM     11  C   LIG    1        4.962  11.839   2.360  0.00  0.00    +0.046 A 
ATOM     12  C   LIG    1        5.503  10.795   3.096  0.00  0.00    +0.122 A 
ATOM     13  C   LIG    1        5.309   9.485   2.686  0.00  0.00    +0.069 A 
BRANCH  12  14
ATOM     14  O   LIG    1        6.223  11.056   4.219  0.00  0.00    -0.495 OA
ATOM     15  C   LIG    1        6.383  12.429   4.582  0.00  0.00    +0.277 C 
ENDBRANCH  12  14
ENDBRANCH   4   8
BRANCH   1  16
ATOM     16  C   LIG    1        4.725   4.316   1.685  0.00  0.00    +0.145 C 
BRANCH  16  20
ATOM     17  C   LIG    1        8.694   3.184   0.576  0.00  0.00    +0.120 A 
ATOM     18  C   LIG    1        8.466   3.821   1.787  0.00  0.00    +0.046 A 
ATOM     19  C   LIG    1        7.182   4.186   2.143  0.00  0.00    +0.009 A 
ATOM     20  C   LIG    1        6.125   3.916   1.294  0.00  0.00    -0.030 A 
ATOM     21  C   LIG    1        6.349   3.276   0.089  0.00  0.00    +0.009 A 
ATOM     22  C   LIG    1        7.632   2.915  -0.274  0.00  0.00    +0.046 A 
BRANCH  17  24
ATOM     23  C   LIG    1       10.117   2.172  -1.038  0.00  0.00    +0.277 C 
ATOM     24  O   LIG    1        9.956   2.824   0.224  0.00  0.00    -0.495 OA
ENDBRANCH  17  24
ENDBRANCH  16  20
ENDBRANCH   1  16
BRANCH   2  25
ATOM     25  C   LIG    1        2.357   5.489  -0.097  0.00  0.00    +0.128 C 
BRANCH  25  26
ATOM     26  C   LIG    1        1.752   5.748  -1.452  0.00  0.00    +0.219 C 
ATOM     27  N   LIG    1        0.453   5.468  -1.675  0.00  0.00    -0.285 N 
ATOM     28  H   LIG    1       -0.109   5.163  -0.946  0.00  0.00    +0.155 HD
ATOM     29  O   LIG    1        2.435   6.208  -2.343  0.00  0.00    -0.275 OA
BRANCH  27  30
ATOM     30  C   LIG    1       -0.083   5.617  -2.954  0.00  0.00    +0.033 A 
ATOM     31  C   LIG    1       -1.056   4.731  -3.406  0.00  0.00    +0.024 A 
ATOM     32  C   LIG    1       -1.587   4.875  -4.668  0.00  0.00    +0.017 A 
ATOM     33  C   LIG    1       -1.147   5.912  -5.495  0.00  0.00    +0.059 A 
ATOM     34  C   LIG    1       -0.169   6.800  -5.038  0.00  0.00    +0.017 A 
ATOM     35  C   LIG    1        0.357   6.650  -3.775  0.00  0.00    +0.024 A 
BRANCH  33  36
ATOM     36  C   LIG    1       -1.714   6.069  -6.848  0.00  0.00    +0.339 C 
ATOM     37  O   LIG    1       -2.563   5.296  -7.244  0.00  0.00    -0.245 OA
BRANCH  36  38
ATOM     38  O   LIG    1       -1.289   7.069  -7.644  0.00  0.00    -0.464 OA
ATOM     39  C   LIG    1       -1.890   7.163  -8.962  0.00  0.00    +0.280 C 
ENDBRANCH  36  38
ENDBRANCH  33  36
ENDBRANCH  27  30
ENDBRANCH  25  26
ENDBRANCH   2  25
TORSDOF 10
