REMARK  Name = ZINC12397618
REMARK                            x       y       z     vdW  Elec       q    Type
REMARK                         _______ _______ _______ _____ _____    ______ ____
ROOT
ATOM      1  C   LIG    1        2.029   5.135   1.702  0.00  0.00    +0.084 A 
ATOM      2  C   LIG    1        2.268   4.283   0.599  0.00  0.00    +0.069 A 
ATOM      3  C   LIG    1        1.507   3.193   0.857  0.00  0.00    +0.124 A 
ATOM      4  O   LIG    1        0.897   3.424   2.027  0.00  0.00    -0.361 OA
ATOM      5  N   LIG    1        1.198   4.504   2.480  0.00  0.00    -0.083 NA
ENDROOT
BRANCH   3   6
ATOM      6  C   LIG    1        1.377   1.960  -0.001  0.00  0.00    -0.002 C 
ATOM      7  N   LIG    1       -0.013   1.467   0.010  0.00  0.00    +0.386 N 
ATOM      8  H   LIG    1       -0.491   1.802   0.855  0.00  0.00    -0.085 HD
ATOM      9  H   LIG    1       -0.507   1.811  -0.822  0.00  0.00    -0.085 HD
ATOM     10  C   LIG    1        0.002  -0.004   0.002  0.00  0.00    -0.082 C 
ATOM     11  C   LIG    1        1.482  -0.441   0.011  0.00  0.00    -0.020 C 
ATOM     12  C   LIG    1        2.209   0.798   0.597  0.00  0.00    -0.010 C 
ENDBRANCH   3   6
BRANCH   1  14
ATOM     13  C   LIG    1        1.500   7.515   2.154  0.00  0.00    +0.010 C 
ATOM     14  C   LIG    1        2.624   6.500   1.933  0.00  0.00    +0.055 C 
ENDBRANCH   1  14
TORSDOF 2
