REMARK  Name = ZINC08986378
REMARK                            x       y       z     vdW  Elec       q    Type
REMARK                         _______ _______ _______ _____ _____    ______ ____
ROOT
ATOM      1  C   LIG    1       -0.178  -4.645   3.752  0.00  0.00    +0.098 A 
ATOM      2  C   LIG    1       -0.148  -6.031   3.821  0.00  0.00    +0.030 A 
ATOM      3  C   LIG    1       -0.222  -6.639   5.100  0.00  0.00    +0.018 A 
ATOM      4  C   LIG    1        0.005  -8.017   5.244  0.00  0.00    +0.015 A 
ATOM      5  C   LIG    1       -0.028  -8.585   6.484  0.00  0.00    +0.046 A 
ATOM      6  C   LIG    1       -0.293  -7.808   7.610  0.00  0.00    +0.120 A 
ATOM      7  C   LIG    1       -0.539  -6.449   7.485  0.00  0.00    +0.092 A 
ATOM      8  C   LIG    1       -0.517  -5.858   6.233  0.00  0.00    +0.141 A 
ATOM      9  O   LIG    1       -0.799  -4.538   6.095  0.00  0.00    -0.438 OA
ATOM     10  C   LIG    1       -0.246  -3.903   5.027  0.00  0.00    +0.212 A 
ATOM     11  N   LIG    1        0.208  -2.673   5.123  0.00  0.00    -0.325 N 
ATOM     12  H   LIG    1        0.692  -2.275   4.382  0.00  0.00    +0.169 HD
ENDROOT
BRANCH  11  13
ATOM     13  C   LIG    1       -0.003  -1.953   6.267  0.00  0.00    +0.046 A 
ATOM     14  C   LIG    1       -1.261  -1.957   6.875  0.00  0.00    +0.029 A 
ATOM     15  C   LIG    1       -1.472  -1.231   8.029  0.00  0.00    +0.051 A 
ATOM     16  C   LIG    1       -0.438  -0.496   8.588  0.00  0.00    +0.162 A 
ATOM     17  C   LIG    1        0.818  -0.486   7.988  0.00  0.00    +0.163 A 
ATOM     18  C   LIG    1        1.039  -1.217   6.834  0.00  0.00    +0.075 A 
BRANCH  16  19
ATOM     19  O   LIG    1       -0.651   0.219   9.726  0.00  0.00    -0.491 OA
ATOM     20  C   LIG    1       -1.963   0.165  10.290  0.00  0.00    +0.277 C 
ENDBRANCH  16  19
BRANCH  17  21
ATOM     21  O   LIG    1        1.830   0.237   8.539  0.00  0.00    -0.491 OA
ATOM     22  C   LIG    1        3.092   0.201   7.870  0.00  0.00    +0.277 C 
ENDBRANCH  17  21
ENDBRANCH  11  13
BRANCH   1  25
ATOM     23  N   LIG    1       -0.309  -2.607   2.413  0.00  0.00    -0.266 N 
ATOM     24  H   LIG    1       -0.413  -2.102   3.235  0.00  0.00    +0.157 HD
ATOM     25  C   LIG    1       -0.137  -3.943   2.460  0.00  0.00    +0.254 C 
ATOM     26  O   LIG    1        0.053  -4.568   1.433  0.00  0.00    -0.270 OA
BRANCH  23  32
ATOM     27  C   LIG    1       -1.584   1.266  -0.099  0.00  0.00    +0.065 C 
ATOM     28  C   LIG    1       -0.943  -0.097  -0.050  0.00  0.00    +0.040 A 
ATOM     29  C   LIG    1       -0.415  -0.644  -1.202  0.00  0.00    +0.023 A 
ATOM     30  C   LIG    1        0.175  -1.899  -1.151  0.00  0.00    +0.005 A 
ATOM     31  C   LIG    1        0.212  -2.562   0.064  0.00  0.00    +0.044 A 
ATOM     32  C   LIG    1       -0.340  -1.951   1.184  0.00  0.00    +0.125 A 
ATOM     33  N   LIG    1       -0.889  -0.750   1.095  0.00  0.00    -0.237 NA
ENDBRANCH  23  32
ENDBRANCH   1  25
BRANCH   6  34
ATOM     34  O   LIG    1       -0.310  -8.386   8.838  0.00  0.00    -0.507 OA
ATOM     35  H   LIG    1        0.548  -8.389   9.283  0.00  0.00    +0.292 HD
ENDBRANCH   6  34
TORSDOF 6
