REMARK  Name = ZINC10237337
REMARK                            x       y       z     vdW  Elec       q    Type
REMARK                         _______ _______ _______ _____ _____    ______ ____
ROOT
ATOM      1  N   LIG    1        0.685  -0.490  -1.198  0.00  0.00    -0.312 N 
ATOM      2  C   LIG    1        0.085  -0.760  -2.424  0.00  0.00    +0.068 A 
ATOM      3  C   LIG    1       -1.226  -0.689  -2.873  0.00  0.00    +0.028 A 
ATOM      4  C   LIG    1       -1.527  -1.029  -4.176  0.00  0.00    +0.002 A 
ATOM      5  C   LIG    1       -0.525  -1.442  -5.039  0.00  0.00    +0.002 A 
ATOM      6  C   LIG    1        0.782  -1.517  -4.603  0.00  0.00    +0.028 A 
ATOM      7  C   LIG    1        1.095  -1.177  -3.294  0.00  0.00    +0.066 A 
ATOM      8  N   LIG    1        2.288  -1.151  -2.580  0.00  0.00    -0.326 N 
ATOM      9  H   LIG    1        3.163  -1.391  -2.925  0.00  0.00    +0.169 HD
ATOM     10  C   LIG    1        2.019  -0.728  -1.315  0.00  0.00    +0.201 A 
ATOM     11  N   LIG    1        2.916  -0.574  -0.348  0.00  0.00    -0.142 NA
ENDROOT
BRANCH   1  13
ATOM     12  C   LIG    1       -0.032   1.505   0.020  0.00  0.00    +0.027 C 
ATOM     13  C   LIG    1       -0.001  -0.025   0.009  0.00  0.00    +0.122 C 
ENDBRANCH   1  13
BRANCH  11  14
ATOM     14  C   LIG    1        4.186  -0.943  -0.548  0.00  0.00    +0.270 C 
ATOM     15  O   LIG    1        4.542  -1.331  -1.648  0.00  0.00    -0.268 OA
BRANCH  14  16
ATOM     16  C   LIG    1        5.160  -0.880   0.566  0.00  0.00    +0.041 A 
ATOM     17  C   LIG    1        4.755  -0.442   1.826  0.00  0.00    +0.013 A 
ATOM     18  C   LIG    1        5.667  -0.385   2.860  0.00  0.00    +0.003 A 
ATOM     19  C   LIG    1        6.981  -0.762   2.648  0.00  0.00    +0.032 A 
ATOM     20  C   LIG    1        7.389  -1.197   1.400  0.00  0.00    +0.122 A 
ATOM     21  C   LIG    1        6.485  -1.264   0.360  0.00  0.00    +0.045 A 
BRANCH  20  22
ATOM     22  N   LIG    1        8.797  -1.598   1.181  0.00  0.00    +0.006 N 
ATOM     23  O   LIG    1        9.589  -1.545   2.093  0.00  0.00    -0.130 OA
BRANCH  22  24
ATOM     24  O   LIG    1        9.155  -1.979   0.091  0.00  0.00    -0.396 OA
ATOM     25  H   LIG    1        8.541  -2.020  -0.616  0.00  0.00    +0.329 HD
ENDBRANCH  22  24
ENDBRANCH  20  22
ENDBRANCH  14  16
ENDBRANCH  11  14
TORSDOF 5
