REMARK  Name = ZINC08581906
REMARK                            x       y       z     vdW  Elec       q    Type
REMARK                         _______ _______ _______ _____ _____    ______ ____
ROOT
ATOM      1  N   LIG    1       -1.227  -1.020   0.216  0.00  0.00    -0.243 N 
ATOM      2  C   LIG    1       -1.901  -1.386  -0.911  0.00  0.00    +0.164 A 
ATOM      3  C   LIG    1       -3.245  -1.575  -0.539  0.00  0.00    +0.086 A 
ATOM      4  C   LIG    1       -4.166  -1.961  -1.527  0.00  0.00    +0.131 A 
ATOM      5  N   LIG    1       -3.725  -2.131  -2.769  0.00  0.00    -0.220 NA
ATOM      6  C   LIG    1       -2.454  -1.943  -3.074  0.00  0.00    +0.225 A 
ATOM      7  C   LIG    1       -3.322  -1.294   0.894  0.00  0.00    +0.105 A 
ATOM      8  N   LIG    1       -1.556  -1.581  -2.183  0.00  0.00    -0.216 NA
ATOM      9  N   LIG    1       -2.114  -0.977   1.296  0.00  0.00    -0.168 NA
ENDROOT
BRANCH   7  10
ATOM     10  C   LIG    1       -4.540  -1.360   1.737  0.00  0.00    +0.006 A 
ATOM     11  C   LIG    1       -5.411  -2.442   1.624  0.00  0.00    +0.011 A 
ATOM     12  C   LIG    1       -6.543  -2.502   2.411  0.00  0.00    +0.019 A 
ATOM     13  C   LIG    1       -6.818  -1.489   3.312  0.00  0.00    +0.059 A 
ATOM     14 BR   LIG    1       -8.372  -1.578   4.386  0.00  0.00    -0.047 Br
ATOM     15  C   LIG    1       -5.955  -0.407   3.431  0.00  0.00    +0.131 A 
ATOM     16  C   LIG    1       -4.814  -0.343   2.649  0.00  0.00    +0.056 A 
BRANCH  15  17
ATOM     17  O   LIG    1       -6.228   0.586   4.318  0.00  0.00    -0.506 OA
ATOM     18  H   LIG    1       -5.852   0.442   5.197  0.00  0.00    +0.292 HD
ENDBRANCH  15  17
ENDBRANCH   7  10
BRANCH   1  20
ATOM     19  C   LIG    1        0.406   0.713   0.774  0.00  0.00    +0.032 C 
ATOM     20  C   LIG    1        0.206  -0.723   0.286  0.00  0.00    +0.103 C 
ATOM     21  C   LIG    1        0.881  -1.691   1.260  0.00  0.00    +0.032 C 
ENDBRANCH   1  20
BRANCH   4  22
ATOM     22  N   LIG    1       -5.497  -2.160  -1.214  0.00  0.00    -0.342 N 
ATOM     23  H   LIG    1       -6.073  -2.641  -1.830  0.00  0.00    +0.144 HD
ATOM     24  H   LIG    1       -5.856  -1.820  -0.380  0.00  0.00    +0.144 HD
ENDBRANCH   4  22
TORSDOF 4
