REMARK  Name = ZINC12503151
REMARK                            x       y       z     vdW  Elec       q    Type
REMARK                         _______ _______ _______ _____ _____    ______ ____
ROOT
ATOM      1  N   LIG    1        0.354  -0.829  -1.022  0.00  0.00    -0.159 NA
ATOM      2  C   LIG    1       -0.047  -2.101  -0.951  0.00  0.00    +0.183 A 
ATOM      3  N   LIG    1       -0.472  -2.792   0.130  0.00  0.00    -0.267 N 
ATOM      4  C   LIG    1       -0.540  -2.157   1.448  0.00  0.00    +0.172 C 
ATOM      5  N   LIG    1       -0.840  -4.111  -0.038  0.00  0.00    -0.273 N 
ATOM      6  H   LIG    1       -1.150  -4.643   0.711  0.00  0.00    +0.189 HD
ATOM      7  C   LIG    1       -0.756  -4.617  -1.235  0.00  0.00    +0.228 A 
ATOM      8  S   LIG    1       -0.154  -3.236  -2.187  0.00  0.00    -0.013 S 
ENDROOT
BRANCH   1  10
ATOM      9  C   LIG    1       -0.379   1.071   0.351  0.00  0.00    +0.106 C 
ATOM     10  C   LIG    1        0.508  -0.120   0.089  0.00  0.00    +0.175 C 
ATOM     11  O   LIG    1        1.364  -0.430   0.895  0.00  0.00    -0.497 OA
ATOM     12  H   LIG    1        1.897  -1.191   0.629  0.00  0.00    +0.293 HD
ENDBRANCH   1  10
BRANCH   7  13
ATOM     13  S   LIG    1       -1.145  -6.249  -1.776  0.00  0.00    +0.079 S 
ATOM     14  O   LIG    1       -1.502  -6.987  -0.615  0.00  0.00    -0.151 OA
ATOM     15  O   LIG    1       -0.091  -6.652  -2.640  0.00  0.00    -0.151 OA
BRANCH  13  16
ATOM     16  N   LIG    1       -2.509  -6.143  -2.708  0.00  0.00    -0.202 NA
ATOM     17  H   LIG    1       -2.292  -5.508  -3.477  0.00  0.00    +0.144 HD
ATOM     18  H   LIG    1       -2.888  -6.943  -3.105  0.00  0.00    +0.144 HD
ENDBRANCH  13  16
ENDBRANCH   7  13
TORSDOF 3
