REMARK  Name = ZINC11957865
REMARK                            x       y       z     vdW  Elec       q    Type
REMARK                         _______ _______ _______ _____ _____    ______ ____
ROOT
ATOM      1  C   LIG    1        7.677  -2.931  -1.983  0.00  0.00    +0.034 A 
ATOM      2  C   LIG    1        6.844  -2.670  -3.063  0.00  0.00    +0.027 A 
ATOM      3  C   LIG    1        5.648  -2.007  -2.867  0.00  0.00    +0.047 A 
ATOM      4  C   LIG    1        5.279  -1.602  -1.593  0.00  0.00    +0.121 A 
ATOM      5  C   LIG    1        6.114  -1.857  -0.515  0.00  0.00    +0.047 A 
ATOM      6  C   LIG    1        7.307  -2.525  -0.708  0.00  0.00    +0.027 A 
ENDROOT
BRANCH   1   8
ATOM      7  C   LIG    1        9.581  -3.424  -3.324  0.00  0.00    +0.202 C 
ATOM      8  N   LIG    1        8.890  -3.603  -2.180  0.00  0.00    -0.287 N 
ATOM      9  H   LIG    1        9.233  -4.197  -1.494  0.00  0.00    +0.155 HD
ATOM     10  O   LIG    1        9.204  -2.611  -4.140  0.00  0.00    -0.277 OA
BRANCH   7  12
ATOM     11  C   LIG    1       11.852  -3.966  -2.488  0.00  0.00    -0.005 C 
ATOM     12  C   LIG    1       10.824  -4.236  -3.587  0.00  0.00    +0.010 C 
BRANCH  12  13
ATOM     13  N   LIG    1       11.369  -3.863  -4.905  0.00  0.00    +0.385 N 
ATOM     14  H   LIG    1       10.677  -4.083  -5.631  0.00  0.00    -0.089 HD
ATOM     15  H   LIG    1       12.223  -4.387  -5.090  0.00  0.00    -0.089 HD
ATOM     16  H   LIG    1       11.572  -2.865  -4.930  0.00  0.00    -0.089 HD
ENDBRANCH  12  13
ENDBRANCH   7  12
ENDBRANCH   1   8
BRANCH   4  17
ATOM     17  O   LIG    1        4.102  -0.949  -1.401  0.00  0.00    -0.487 OA
BRANCH  17  18
ATOM     18  C   LIG    1        3.786  -0.561  -0.063  0.00  0.00    +0.264 C 
BRANCH  18  19
ATOM     19  C   LIG    1        2.454   0.144  -0.046  0.00  0.00    -0.010 A 
ATOM     20  C   LIG    1        1.290  -0.580   0.135  0.00  0.00    +0.007 A 
ATOM     21  C   LIG    1        0.069   0.067   0.150  0.00  0.00    +0.000 A 
ATOM     22  C   LIG    1        0.011   1.438  -0.016  0.00  0.00    +0.000 A 
ATOM     23  C   LIG    1        1.175   2.163  -0.196  0.00  0.00    +0.000 A 
ATOM     24  C   LIG    1        2.396   1.516  -0.212  0.00  0.00    +0.007 A 
ENDBRANCH  18  19
ENDBRANCH  17  18
ENDBRANCH   4  17
TORSDOF 6
