REMARK  Name = ZINC12576047
REMARK                            x       y       z     vdW  Elec       q    Type
REMARK                         _______ _______ _______ _____ _____    ______ ____
ROOT
ATOM      1  C   LIG    1        0.444   1.355   1.027  0.00  0.00    +0.001 A 
ATOM      2  C   LIG    1        0.313   0.004   0.785  0.00  0.00    +0.008 A 
ATOM      3  C   LIG    1        1.385  -0.712   0.240  0.00  0.00    -0.023 A 
ATOM      4  C   LIG    1        2.582  -0.049  -0.055  0.00  0.00    +0.020 A 
ATOM      5  C   LIG    1        2.696   1.302   0.194  0.00  0.00    +0.055 A 
ATOM      6  C   LIG    1        1.631   2.003   0.733  0.00  0.00    +0.012 A 
ENDROOT
BRANCH   3   7
ATOM      7  C   LIG    1        1.254  -2.153  -0.022  0.00  0.00    +0.028 C 
ATOM      8  C   LIG    1        2.223  -2.808  -0.708  0.00  0.00    +0.080 C 
ATOM      9  C   LIG    1        2.397  -4.257  -0.942  0.00  0.00    +0.258 C 
ATOM     10  N   LIG    1        3.448  -4.619  -1.658  0.00  0.00    -0.243 N 
ATOM     11  H   LIG    1        3.600  -5.561  -1.835  0.00  0.00    +0.159 HD
ATOM     12  C   LIG    1        4.315  -3.709  -2.148  0.00  0.00    +0.283 C 
ATOM     13  O   LIG    1        5.313  -3.900  -2.815  0.00  0.00    -0.262 OA
ATOM     14  O   LIG    1        1.612  -5.075  -0.499  0.00  0.00    -0.269 OA
ATOM     15  S   LIG    1        3.637  -2.155  -1.586  0.00  0.00    -0.026 S 
ENDBRANCH   3   7
BRANCH   5  16
ATOM     16  C   LIG    1        3.984   2.018  -0.123  0.00  0.00    +0.417 C 
ATOM     17  F   LIG    1        5.056   1.130   0.011  0.00  0.00    -0.166 F 
ATOM     18  F   LIG    1        4.151   3.088   0.762  0.00  0.00    -0.166 F 
ATOM     19  F   LIG    1        3.939   2.500  -1.435  0.00  0.00    -0.166 F 
ENDBRANCH   5  16
TORSDOF 2
