REMARK  Name = ZINC09230249
REMARK                            x       y       z     vdW  Elec       q    Type
REMARK                         _______ _______ _______ _____ _____    ______ ____
ROOT
ATOM      1  C   LIG    1       -1.201  -0.638   0.010  0.00  0.00    +0.162 A 
ATOM      2  C   LIG    1       -2.371   0.099   0.019  0.00  0.00    +0.059 A 
ATOM      3  C   LIG    1       -3.603  -0.553   0.027  0.00  0.00    +0.006 A 
ATOM      4  C   LIG    1       -3.651  -1.946   0.026  0.00  0.00    +0.014 A 
ATOM      5  C   LIG    1       -2.481  -2.678   0.016  0.00  0.00    +0.050 A 
ATOM      6  C   LIG    1       -1.255  -2.029   0.003  0.00  0.00    +0.168 A 
ENDROOT
BRANCH   3   7
ATOM      7  C   LIG    1       -4.860   0.234   0.038  0.00  0.00    +0.091 A 
ATOM      8  N   LIG    1       -4.811   1.545   0.045  0.00  0.00    -0.171 NA
ATOM      9  N   LIG    1       -5.870   2.271   0.049  0.00  0.00    -0.243 N 
ATOM     10  H   LIG    1       -5.779   3.237   0.050  0.00  0.00    +0.192 HD
ATOM     11  C   LIG    1       -7.102   1.729   0.057  0.00  0.00    +0.265 A 
ATOM     12  O   LIG    1       -8.089   2.446   0.065  0.00  0.00    -0.266 OA
ATOM     13  C   LIG    1       -7.243   0.323   0.055  0.00  0.00    +0.073 A 
ATOM     14  C   LIG    1       -6.108  -0.433   0.046  0.00  0.00    +0.035 A 
ENDBRANCH   3   7
BRANCH   1  16
ATOM     15  C   LIG    1       -0.017   1.425   0.010  0.00  0.00    +0.277 C 
ATOM     16  O   LIG    1        0.002  -0.004   0.002  0.00  0.00    -0.491 OA
ENDBRANCH   1  16
BRANCH   6  17
ATOM     17  O   LIG    1       -0.105  -2.753  -0.012  0.00  0.00    -0.431 OA
BRANCH  17  18
ATOM     18  C   LIG    1       -0.234  -4.177  -0.018  0.00  0.00    +0.541 C 
ATOM     19  F   LIG    1       -0.944  -4.575  -1.156  0.00  0.00    -0.166 F 
ATOM     20  F   LIG    1       -0.922  -4.588   1.129  0.00  0.00    -0.166 F 
ENDBRANCH  17  18
ENDBRANCH   6  17
TORSDOF 4
