REMARK  Name = ZINC08616945
REMARK                            x       y       z     vdW  Elec       q    Type
REMARK                         _______ _______ _______ _____ _____    ______ ____
ROOT
ATOM      1  C   LIG    1        1.125   2.027  -0.160  0.00  0.00    +0.132 A 
ATOM      2  C   LIG    1       -0.053   1.284  -0.139  0.00  0.00    +0.114 A 
ATOM      3  C   LIG    1        0.028  -0.091  -0.314  0.00  0.00    +0.254 A 
ATOM      4  O   LIG    1       -1.093  -0.852  -0.302  0.00  0.00    -0.268 OA
ATOM      5  N   LIG    1        1.221  -0.652  -0.494  0.00  0.00    -0.295 N 
ATOM      6  H   LIG    1        1.301  -1.740  -0.633  0.00  0.00    +0.172 HD
ATOM      7  C   LIG    1        2.322   0.084  -0.507  0.00  0.00    +0.195 A 
ATOM      8  N   LIG    1        2.283   1.398  -0.345  0.00  0.00    -0.201 NA
ENDROOT
BRANCH   7   9
ATOM      9  N   LIG    1        3.544  -0.536  -0.697  0.00  0.00    -0.329 N 
ATOM     10  H   LIG    1        3.593  -1.626  -0.834  0.00  0.00    +0.145 HD
ATOM     11  H   LIG    1        4.468   0.062  -0.711  0.00  0.00    +0.145 HD
ENDBRANCH   7   9
BRANCH   1  12
ATOM     12  N   LIG    1        1.092   3.403   0.010  0.00  0.00    -0.299 N 
ATOM     13  H   LIG    1        0.127   3.927   0.068  0.00  0.00    +0.154 HD
BRANCH  12  21
ATOM     14  C   LIG    1        3.400   3.548   0.705  0.00  0.00    +0.025 A 
ATOM     15  C   LIG    1        4.580   4.261   0.797  0.00  0.00    +0.023 A 
ATOM     16  C   LIG    1        4.650   5.551   0.304  0.00  0.00    +0.059 A 
ATOM     17 CL   LIG    1        6.133   6.446   0.426  0.00  0.00    -0.082 Cl
ATOM     18  C   LIG    1        3.540   6.131  -0.288  0.00  0.00    +0.061 A 
ATOM     19 CL   LIG    1        3.632   7.750  -0.907  0.00  0.00    -0.082 Cl
ATOM     20  C   LIG    1        2.358   5.420  -0.387  0.00  0.00    +0.044 A 
ATOM     21  C   LIG    1        2.286   4.124   0.108  0.00  0.00    +0.034 A 
ENDBRANCH  12  21
ENDBRANCH   1  12
TORSDOF 3
