REMARK  Name = ZINC08660412
REMARK                            x       y       z     vdW  Elec       q    Type
REMARK                         _______ _______ _______ _____ _____    ______ ____
ROOT
ATOM      1  C   LIG    1        6.821   0.304  -1.537  0.00  0.00    +0.150 A 
ATOM      2  C   LIG    1        5.646   0.674  -0.862  0.00  0.00    +0.147 A 
ATOM      3  C   LIG    1        4.422   0.537  -1.537  0.00  0.00    +0.167 A 
ATOM      4  N   LIG    1        3.457   0.968  -0.662  0.00  0.00    -0.286 N 
ATOM      5  C   LIG    1        4.085   1.337   0.490  0.00  0.00    +0.203 A 
ATOM      6  N   LIG    1        4.419   0.064  -2.780  0.00  0.00    -0.216 NA
ATOM      7  C   LIG    1        5.545  -0.275  -3.371  0.00  0.00    +0.225 A 
ATOM      8  N   LIG    1        5.369   1.164   0.371  0.00  0.00    -0.231 NA
ATOM      9  N   LIG    1        6.718  -0.167  -2.776  0.00  0.00    -0.219 NA
ENDROOT
BRANCH   4  10
ATOM     10  C1* LIG    1        2.015   1.015  -0.917  0.00  0.00    +0.253 C 
ATOM     11  C2* LIG    1        1.371  -0.357  -0.622  0.00  0.00    +0.195 C 
ATOM     12  C3* LIG    1        0.002  -0.004   0.002  0.00  0.00    +0.178 C 
ATOM     13  C4* LIG    1       -0.019   1.541   0.011  0.00  0.00    +0.177 C 
ATOM     14  O4* LIG    1        1.372   1.929  -0.001  0.00  0.00    -0.346 OA
BRANCH  11  15
ATOM     15  O2* LIG    1        1.193  -1.097  -1.832  0.00  0.00    -0.385 OA
ATOM     16  H2* LIG    1        0.738  -1.942  -1.713  0.00  0.00    +0.210 HD
ENDBRANCH  11  15
BRANCH  12  17
ATOM     17  O3* LIG    1       -1.064  -0.515  -0.800  0.00  0.00    -0.386 OA
ATOM     18  H3* LIG    1       -1.945  -0.271  -0.485  0.00  0.00    +0.210 HD
ENDBRANCH  12  17
BRANCH  13  19
ATOM     19  C5* LIG    1       -0.706   2.057   1.276  0.00  0.00    +0.190 C 
BRANCH  19  20
ATOM     20  O5* LIG    1       -0.819   3.480   1.210  0.00  0.00    -0.392 OA
ATOM     21  H5* LIG    1       -1.246   3.877   1.982  0.00  0.00    +0.210 HD
ENDBRANCH  19  20
ENDBRANCH  13  19
ENDBRANCH   4  10
BRANCH   1  22
ATOM     22  N   LIG    1        8.056   0.412  -0.921  0.00  0.00    -0.327 N 
ATOM     23  H   LIG    1        7.964  -0.145  -0.096  0.00  0.00    +0.148 HD
BRANCH  22  24
ATOM     24  C   LIG    1        9.270   0.021  -1.641  0.00  0.00    +0.107 C 
BRANCH  24  25
ATOM     25  C   LIG    1       10.489   0.237  -0.741  0.00  0.00    +0.054 C 
BRANCH  25  31
ATOM     26  C   LIG    1       12.202  -1.465  -1.396  0.00  0.00    +0.005 A 
ATOM     27  C   LIG    1       13.343  -1.839  -2.078  0.00  0.00    +0.023 A 
ATOM     28  C   LIG    1       14.032  -0.904  -2.840  0.00  0.00    +0.025 A 
ATOM     29  C   LIG    1       13.567   0.402  -2.919  0.00  0.00    +0.023 A 
ATOM     30  C   LIG    1       12.421   0.768  -2.239  0.00  0.00    +0.005 A 
ATOM     31  C   LIG    1       11.738  -0.165  -1.481  0.00  0.00    -0.046 A 
BRANCH  28  32
ATOM     32  N   LIG    1       15.190  -1.277  -3.526  0.00  0.00    -0.358 N 
ATOM     33  H   LIG    1       15.514  -2.190  -3.470  0.00  0.00    +0.142 HD
ATOM     34  H   LIG    1       15.671  -0.624  -4.058  0.00  0.00    +0.142 HD
ENDBRANCH  28  32
ENDBRANCH  25  31
ENDBRANCH  24  25
ENDBRANCH  22  24
ENDBRANCH   1  22
TORSDOF 10
