REMARK  Name = ZINC12354826
REMARK                            x       y       z     vdW  Elec       q    Type
REMARK                         _______ _______ _______ _____ _____    ______ ____
ROOT
ATOM      1  N   LIG    1        1.247  -4.449  -0.033  0.00  0.00    -0.320 N 
ATOM      2  H   LIG    1        2.207  -4.588  -0.042  0.00  0.00    +0.152 HD
ENDROOT
BRANCH   1  11
ATOM      3  C   LIG    1       -0.017   1.376   0.010  0.00  0.00    +0.001 A 
ATOM      4  C   LIG    1        1.172   2.087   0.002  0.00  0.00    +0.002 A 
ATOM      5  C   LIG    1        2.385   1.428  -0.013  0.00  0.00    +0.024 A 
ATOM      6  C   LIG    1        2.423   0.037  -0.021  0.00  0.00    +0.042 A 
ATOM      7  C   LIG    1        1.218  -0.677  -0.013  0.00  0.00    +0.010 A 
ATOM      8  C   LIG    1        1.585  -2.113  -0.024  0.00  0.00    +0.060 C 
ATOM      9  C   LIG    1        3.053  -2.131  -0.038  0.00  0.00    +0.250 C 
ATOM     10  O   LIG    1        3.756  -3.126  -0.050  0.00  0.00    -0.270 OA
ATOM     11  C   LIG    1        0.741  -3.185  -0.022  0.00  0.00    +0.085 C 
ATOM     12  N   LIG    1        3.485  -0.859  -0.036  0.00  0.00    -0.281 N 
ATOM     13  H   LIG    1        4.419  -0.599  -0.044  0.00  0.00    +0.155 HD
ATOM     14  C   LIG    1        0.002  -0.004   0.002  0.00  0.00    +0.010 A 
ENDBRANCH   1  11
BRANCH   1  15
ATOM     15  C   LIG    1        0.383  -5.548  -0.031  0.00  0.00    +0.031 A 
ATOM     16  C   LIG    1       -0.992  -5.352  -0.023  0.00  0.00    +0.025 A 
ATOM     17  C   LIG    1       -1.843  -6.439  -0.021  0.00  0.00    +0.030 A 
ATOM     18  C   LIG    1       -1.328  -7.723  -0.026  0.00  0.00    +0.105 A 
ATOM     19  C   LIG    1        0.041  -7.921  -0.034  0.00  0.00    +0.030 A 
ATOM     20  C   LIG    1        0.897  -6.838  -0.042  0.00  0.00    +0.025 A 
BRANCH  18  21
ATOM     21  S   LIG    1       -2.417  -9.107  -0.022  0.00  0.00    +0.056 S 
ATOM     22  O   LIG    1       -3.644  -8.658   0.537  0.00  0.00    -0.153 OA
ATOM     23  O   LIG    1       -1.686 -10.197   0.523  0.00  0.00    -0.153 OA
BRANCH  21  24
ATOM     24  N   LIG    1       -2.729  -9.490  -1.603  0.00  0.00    -0.204 NA
ATOM     25  H   LIG    1       -3.315 -10.233  -1.815  0.00  0.00    +0.144 HD
ATOM     26  H   LIG    1       -2.326  -8.970  -2.316  0.00  0.00    +0.144 HD
ENDBRANCH  21  24
ENDBRANCH  18  21
ENDBRANCH   1  15
TORSDOF 4
