REMARK  Name = ZINC08741242
REMARK                            x       y       z     vdW  Elec       q    Type
REMARK                         _______ _______ _______ _____ _____    ______ ____
ROOT
ATOM      1  C   LIG    1        3.711  -0.707  -0.038  0.00  0.00    +0.148 C 
ATOM      2  C   LIG    1        4.416  -0.445   1.280  0.00  0.00    +0.240 C 
ATOM      3  O   LIG    1        3.899  -0.733   2.338  0.00  0.00    -0.274 OA
ATOM      4  N   LIG    1        5.641   0.121   1.230  0.00  0.00    -0.239 N 
ATOM      5  H   LIG    1        6.111   0.298   2.060  0.00  0.00    +0.159 HD
ATOM      6  C   LIG    1        6.225   0.445   0.071  0.00  0.00    +0.312 C 
ATOM      7  O   LIG    1        7.329   0.950   0.119  0.00  0.00    -0.252 OA
ATOM      8  N   LIG    1        5.683   0.253  -1.137  0.00  0.00    -0.239 N 
ATOM      9  H   LIG    1        6.182   0.519  -1.925  0.00  0.00    +0.159 HD
ATOM     10  C   LIG    1        4.462  -0.302  -1.292  0.00  0.00    +0.240 C 
ATOM     11  O   LIG    1        3.983  -0.471  -2.393  0.00  0.00    -0.274 OA
ENDROOT
BRANCH   1  15
ATOM     12  C   LIG    1       -0.017   1.378   0.010  0.00  0.00    +0.000 A 
ATOM     13  C   LIG    1        1.171   2.086   0.002  0.00  0.00    +0.000 A 
ATOM     14  C   LIG    1        2.377   1.411  -0.013  0.00  0.00    +0.005 A 
ATOM     15  C   LIG    1        2.396   0.029  -0.020  0.00  0.00    -0.024 A 
ATOM     16  C   LIG    1        1.208  -0.679  -0.012  0.00  0.00    +0.005 A 
ATOM     17  C   LIG    1        0.002  -0.004   0.002  0.00  0.00    +0.000 A 
ENDBRANCH   1  15
BRANCH   1  18
ATOM     18  C   LIG    1        3.414  -2.205  -0.123  0.00  0.00    +0.035 C 
BRANCH  18  19
ATOM     19  C   LIG    1        4.729  -2.986  -0.143  0.00  0.00    +0.037 C 
BRANCH  19  20
ATOM     20  C   LIG    1        4.436  -4.462  -0.228  0.00  0.00    -0.044 A 
ATOM     21  C   LIG    1        4.272  -5.220   0.921  0.00  0.00    +0.023 A 
ATOM     22  C   LIG    1        4.005  -6.571   0.804  0.00  0.00    +0.111 A 
ATOM     23  N   LIG    1        3.905  -7.139  -0.382  0.00  0.00    -0.263 NA
ATOM     24  C   LIG    1        4.055  -6.449  -1.496  0.00  0.00    +0.111 A 
ATOM     25  C   LIG    1        4.318  -5.093  -1.457  0.00  0.00    +0.023 A 
ENDBRANCH  19  20
ENDBRANCH  18  19
ENDBRANCH   1  18
TORSDOF 4
