REMARK  Name = ZINC12914717
REMARK                            x       y       z     vdW  Elec       q    Type
REMARK                         _______ _______ _______ _____ _____    ______ ____
ROOT
ATOM      1  N   LIG    1       -1.183  -0.721  -0.147  0.00  0.00    -0.269 N 
ATOM      2  H   LIG    1       -2.008  -0.253   0.056  0.00  0.00    +0.156 HD
ATOM      3  C   LIG    1       -1.181  -2.064  -0.259  0.00  0.00    +0.308 C 
ATOM      4  N   LIG    1       -2.341  -2.748  -0.194  0.00  0.00    -0.269 N 
ATOM      5  H   LIG    1       -3.183  -2.270  -0.141  0.00  0.00    +0.156 HD
ATOM      6  O   LIG    1       -0.133  -2.659  -0.420  0.00  0.00    -0.252 OA
ENDROOT
BRANCH   4   7
ATOM      7  C   LIG    1       -2.329  -4.147  -0.201  0.00  0.00    +0.035 A 
ATOM      8  C   LIG    1       -1.280  -4.838   0.390  0.00  0.00    +0.023 A 
ATOM      9  C   LIG    1       -1.274  -6.218   0.380  0.00  0.00    +0.006 A 
ATOM     10  C   LIG    1       -2.310  -6.918  -0.219  0.00  0.00    -0.044 A 
ATOM     11  C   LIG    1       -3.356  -6.232  -0.809  0.00  0.00    -0.042 A 
ATOM     12  C   LIG    1       -4.351  -7.215  -1.387  0.00  0.00    +0.036 C 
ATOM     13  C   LIG    1       -3.590  -8.556  -1.474  0.00  0.00    +0.009 C 
ATOM     14  C   LIG    1       -2.531  -8.408  -0.360  0.00  0.00    +0.036 C 
ATOM     15  C   LIG    1       -3.369  -4.848  -0.795  0.00  0.00    +0.027 A 
ENDBRANCH   4   7
BRANCH   1  21
ATOM     16  C   LIG    1        0.962  -0.451  -1.222  0.00  0.00    +0.025 A 
ATOM     17  C   LIG    1        2.133   0.261  -1.394  0.00  0.00    +0.030 A 
ATOM     18  C   LIG    1        2.352   1.419  -0.671  0.00  0.00    +0.105 A 
ATOM     19  C   LIG    1        1.400   1.869   0.226  0.00  0.00    +0.030 A 
ATOM     20  C   LIG    1        0.227   1.162   0.401  0.00  0.00    +0.025 A 
ATOM     21  C   LIG    1        0.004  -0.002  -0.323  0.00  0.00    +0.035 A 
BRANCH  18  22
ATOM     22  S   LIG    1        3.848   2.324  -0.892  0.00  0.00    +0.056 S 
ATOM     23  O   LIG    1        4.811   1.402  -1.383  0.00  0.00    -0.153 OA
ATOM     24  O   LIG    1        4.049   3.073   0.299  0.00  0.00    -0.153 OA
BRANCH  22  25
ATOM     25  N   LIG    1        3.582   3.422  -2.103  0.00  0.00    -0.204 NA
ATOM     26  H   LIG    1        4.292   4.022  -2.377  0.00  0.00    +0.144 HD
ATOM     27  H   LIG    1        2.716   3.464  -2.537  0.00  0.00    +0.144 HD
ENDBRANCH  22  25
ENDBRANCH  18  22
ENDBRANCH   1  21
TORSDOF 4
