REMARK  Name = ZINC12376387
REMARK                            x       y       z     vdW  Elec       q    Type
REMARK                         _______ _______ _______ _____ _____    ______ ____
ROOT
ATOM      1  C   LIG    1        5.902  -0.498   1.837  0.00  0.00    +0.390 C 
ATOM      2  N   LIG    1        6.764  -0.614   0.870  0.00  0.00    +0.153 NA
ENDROOT
BRANCH   1   3
ATOM      3  C   LIG    1        5.970  -1.409   3.002  0.00  0.00    +0.242 A 
ATOM      4  C   LIG    1        4.973  -1.510   4.075  0.00  0.00    +0.195 A 
ATOM      5  N   LIG    1        5.373  -2.417   4.923  0.00  0.00    -0.033 NA
ATOM      6  O   LIG    1        6.608  -2.933   4.460  0.00  0.00    -0.240 OA
ATOM      7  N   LIG    1        6.926  -2.266   3.251  0.00  0.00    -0.039 NA
BRANCH   4   8
ATOM      8  N   LIG    1        3.804  -0.766   4.170  0.00  0.00    -0.338 N 
ATOM      9  H   LIG    1        3.463  -0.508   5.041  0.00  0.00    +0.144 HD
ATOM     10  H   LIG    1        3.328  -0.506   3.367  0.00  0.00    +0.144 HD
ENDBRANCH   4   8
ENDBRANCH   1   3
BRANCH   1  11
ATOM     11  N   LIG    1        4.920   0.476   1.776  0.00  0.00    -0.224 N 
ATOM     12  H   LIG    1        4.332   0.621   2.534  0.00  0.00    +0.292 HD
BRANCH  11  13
ATOM     13  C   LIG    1        4.770   1.290   0.567  0.00  0.00    +0.259 C 
BRANCH  13  17
ATOM     14  C   LIG    1        1.566   4.063   1.104  0.00  0.00    +0.000 A 
ATOM     15  C   LIG    1        2.853   4.417   1.462  0.00  0.00    +0.000 A 
ATOM     16  C   LIG    1        3.890   3.519   1.288  0.00  0.00    +0.007 A 
ATOM     17  C   LIG    1        3.639   2.268   0.757  0.00  0.00    -0.008 A 
ATOM     18  C   LIG    1        2.352   1.914   0.400  0.00  0.00    +0.007 A 
ATOM     19  C   LIG    1        1.315   2.812   0.572  0.00  0.00    +0.000 A 
ENDBRANCH  13  17
ENDBRANCH  11  13
ENDBRANCH   1  11
BRANCH   2  20
ATOM     20  O   LIG    1        7.823  -1.548   0.974  0.00  0.00    -0.311 OA
ATOM     21  H   LIG    1        8.367  -1.616   0.177  0.00  0.00    +0.361 HD
ENDBRANCH   2  20
TORSDOF 6
