REMARK  Name = ZINC12496520
REMARK                            x       y       z     vdW  Elec       q    Type
REMARK                         _______ _______ _______ _____ _____    ______ ____
ROOT
ATOM      1  C   LIG    1       -0.883   1.511   8.769  0.00  0.00    +0.023 C 
ATOM      2  C   LIG    1       -0.067   2.498   9.629  0.00  0.00    +0.120 C 
ATOM      3  C   LIG    1        0.949   3.117   8.636  0.00  0.00    +0.063 C 
ATOM      4  C   LIG    1        1.327   1.912   7.739  0.00  0.00    +0.120 C 
ATOM      5  C   LIG    1        0.003   1.138   7.568  0.00  0.00    +0.023 C 
ENDROOT
BRANCH   4   6
ATOM      6  O   LIG    1        1.809   2.364   6.472  0.00  0.00    -0.391 OA
ATOM      7  H   LIG    1        2.640   2.857   6.521  0.00  0.00    +0.210 HD
ENDBRANCH   4   6
BRANCH   2   8
ATOM      8  O   LIG    1       -0.918   3.509  10.173  0.00  0.00    -0.391 OA
ATOM      9  H   LIG    1       -0.457   4.158  10.722  0.00  0.00    +0.210 HD
ENDBRANCH   2   8
BRANCH   1  10
ATOM     10  C   LIG    1       -1.216   0.259   9.583  0.00  0.00    +0.009 C 
BRANCH  10  11
ATOM     11  C   LIG    1       -2.196   0.622  10.700  0.00  0.00    +0.032 C 
BRANCH  11  12
ATOM     12  C   LIG    1       -2.529  -0.630  11.514  0.00  0.00    +0.115 C 
BRANCH  12  13
ATOM     13  O   LIG    1       -1.352  -1.092  12.180  0.00  0.00    -0.392 OA
ATOM     14  H   LIG    1       -0.968  -0.449  12.790  0.00  0.00    +0.210 HD
ENDBRANCH  12  13
BRANCH  12  15
ATOM     15  C   LIG    1       -3.603  -0.293  12.551  0.00  0.00    +0.031 C 
BRANCH  15  16
ATOM     16  C   LIG    1       -4.026  -1.570  13.280  0.00  0.00    +0.002 C 
BRANCH  16  17
ATOM     17  C   LIG    1       -5.099  -1.234  14.317  0.00  0.00    -0.000 C 
BRANCH  17  19
ATOM     18  C   LIG    1       -6.596  -2.174  16.083  0.00  0.00    +0.004 C 
ATOM     19  C   LIG    1       -5.522  -2.511  15.046  0.00  0.00    -0.003 C 
ENDBRANCH  17  19
ENDBRANCH  16  17
ENDBRANCH  15  16
ENDBRANCH  12  15
ENDBRANCH  11  12
ENDBRANCH  10  11
ENDBRANCH   1  10
BRANCH   5  20
ATOM     20  C   LIG    1       -0.681   1.552   6.263  0.00  0.00    +0.006 C 
BRANCH  20  21
ATOM     21  C   LIG    1       -1.956   0.728   6.072  0.00  0.00    +0.000 C 
BRANCH  21  22
ATOM     22  C   LIG    1       -2.572   1.050   4.709  0.00  0.00    +0.000 C 
BRANCH  22  23
ATOM     23  C   LIG    1       -3.847   0.227   4.518  0.00  0.00    +0.001 C 
BRANCH  23  24
ATOM     24  C   LIG    1       -4.463   0.548   3.155  0.00  0.00    +0.011 C 
BRANCH  24  25
ATOM     25  C   LIG    1       -5.738  -0.276   2.964  0.00  0.00    +0.120 C 
BRANCH  25  26
ATOM     26  C   LIG    1       -6.344   0.042   1.622  0.00  0.00    +0.305 C 
ATOM     27  O   LIG    1       -5.812   0.844   0.893  0.00  0.00    -0.251 OA
BRANCH  26  28
ATOM     28  O   LIG    1       -7.477  -0.568   1.236  0.00  0.00    -0.481 OA
ATOM     29  H   LIG    1       -7.890  -1.190   1.802  0.00  0.00    +0.295 HD
ENDBRANCH  26  28
ENDBRANCH  25  26
ENDBRANCH  24  25
ENDBRANCH  23  24
ENDBRANCH  22  23
ENDBRANCH  21  22
ENDBRANCH  20  21
ENDBRANCH   5  20
TORSDOF 18
