REMARK  Name = ZINC12794357
REMARK                            x       y       z     vdW  Elec       q    Type
REMARK                         _______ _______ _______ _____ _____    ______ ____
ROOT
ATOM      1  C   LIG    1       -3.412   2.445   0.032  0.00  0.00    +0.137 A 
ATOM      2  C   LIG    1       -2.784   3.670   0.035  0.00  0.00    +0.050 A 
ATOM      3  C   LIG    1       -1.409   3.424   0.027  0.00  0.00    +0.050 A 
ATOM      4  C   LIG    1       -1.248   2.050   0.019  0.00  0.00    +0.130 A 
ATOM      5  O   LIG    1       -2.472   1.482   0.016  0.00  0.00    -0.455 OA
ENDROOT
BRANCH   4   6
ATOM      6  C   LIG    1       -0.016   1.361   0.009  0.00  0.00    +0.066 C 
ATOM      7  C   LIG    1        0.002  -0.004   0.002  0.00  0.00    +0.080 C 
ATOM      8  C   LIG    1        1.116  -0.897  -0.019  0.00  0.00    +0.256 C 
ATOM      9  N   LIG    1        0.870  -2.196  -0.018  0.00  0.00    -0.270 N 
ATOM     10  H   LIG    1        1.611  -2.823  -0.028  0.00  0.00    +0.156 HD
ATOM     11  C   LIG    1       -0.398  -2.664  -0.009  0.00  0.00    +0.118 C 
ATOM     12  S   LIG    1       -0.943  -4.287  -0.012  0.00  0.00    -0.027 S 
ATOM     13  O   LIG    1        2.259  -0.475  -0.034  0.00  0.00    -0.269 OA
ATOM     14  S   LIG    1       -1.361  -1.160   0.008  0.00  0.00    -0.061 S 
ENDBRANCH   4   6
BRANCH   1  17
ATOM     15  C   LIG    1       -7.040   2.673   0.970  0.00  0.00    +0.002 A 
ATOM     16  C   LIG    1       -5.676   2.878   0.974  0.00  0.00    +0.013 A 
ATOM     17  C   LIG    1       -4.871   2.225   0.037  0.00  0.00    +0.037 A 
ATOM     18  C   LIG    1       -5.454   1.357  -0.891  0.00  0.00    +0.070 A 
ATOM     19 CL   LIG    1       -4.463   0.533  -2.054  0.00  0.00    -0.081 Cl
ATOM     20  C   LIG    1       -6.821   1.156  -0.879  0.00  0.00    +0.060 A 
ATOM     21 CL   LIG    1       -7.549   0.079  -2.029  0.00  0.00    -0.082 Cl
ATOM     22  C   LIG    1       -7.611   1.813   0.049  0.00  0.00    +0.021 A 
ENDBRANCH   1  17
TORSDOF 2
