REMARK  Name = ZINC12325075
REMARK                            x       y       z     vdW  Elec       q    Type
REMARK                         _______ _______ _______ _____ _____    ______ ____
ROOT
ATOM      1  C   LIG    1        2.373   1.411  -0.028  0.00  0.00    +0.070 A 
ATOM      2  C   LIG    1        2.397   0.016  -0.030  0.00  0.00    +0.056 A 
ATOM      3  C   LIG    1        1.206  -0.694  -0.026  0.00  0.00    +0.025 A 
ATOM      4  C   LIG    1       -0.001  -0.021  -0.019  0.00  0.00    +0.003 A 
ATOM      5  C   LIG    1       -0.026   1.362  -0.018  0.00  0.00    +0.022 A 
ATOM      6  C   LIG    1        1.157   2.079  -0.022  0.00  0.00    +0.064 A 
ATOM      7 CL   LIG    1        1.120   3.814  -0.021  0.00  0.00    -0.082 Cl
ENDROOT
BRANCH   1  13
ATOM      8  C   LIG    1        6.419   5.254  -0.001  0.00  0.00    -0.096 C 
ATOM      9  N   LIG    1        5.140   4.513   0.004  0.00  0.00    +0.380 N 
ATOM     10  H   LIG    1        4.365   5.185   0.041  0.00  0.00    -0.082 HD
ATOM     11  C   LIG    1        5.070   3.634   1.191  0.00  0.00    -0.060 C 
ATOM     12  C   LIG    1        3.715   2.923   1.199  0.00  0.00    +0.086 C 
ATOM     13  N   LIG    1        3.572   2.134  -0.033  0.00  0.00    -0.331 N 
ATOM     14  C   LIG    1        3.663   2.995  -1.220  0.00  0.00    +0.086 C 
ATOM     15  C   LIG    1        5.018   3.706  -1.228  0.00  0.00    -0.060 C 
ENDBRANCH   1  13
BRANCH   2  16
ATOM     16  N   LIG    1        3.621  -0.665  -0.037  0.00  0.00    -0.277 N 
ATOM     17  H   LIG    1        4.379  -0.296  -0.518  0.00  0.00    +0.155 HD
ATOM     18  C   LIG    1        3.747  -1.833   0.624  0.00  0.00    +0.284 C 
ATOM     19  O   LIG    1        2.776  -2.336   1.159  0.00  0.00    -0.266 OA
BRANCH  18  20
ATOM     20  C   LIG    1        5.051  -2.496   0.699  0.00  0.00    +0.191 A 
ATOM     21  C   LIG    1        5.317  -3.674   1.338  0.00  0.00    +0.056 A 
ATOM     22  C   LIG    1        6.683  -3.933   1.154  0.00  0.00    +0.058 A 
ATOM     23  C   LIG    1        7.188  -2.911   0.425  0.00  0.00    +0.171 A 
ATOM     24 BR   LIG    1        8.990  -2.732  -0.119  0.00  0.00    -0.008 Br
ATOM     25  O   LIG    1        6.201  -2.047   0.153  0.00  0.00    -0.444 OA
ENDBRANCH  18  20
ENDBRANCH   2  16
TORSDOF 3
