REMARK  Name = ZINC11957028
REMARK                            x       y       z     vdW  Elec       q    Type
REMARK                         _______ _______ _______ _____ _____    ______ ____
ROOT
ATOM      1  C   LIG    1       -0.017   1.378   0.010  0.00  0.00    +0.007 A 
ATOM      2  C   LIG    1        1.171   2.086   0.002  0.00  0.00    +0.029 A 
ATOM      3  C   LIG    1        2.377   1.411  -0.013  0.00  0.00    +0.105 A 
ATOM      4  C   LIG    1        2.396   0.029  -0.020  0.00  0.00    +0.029 A 
ATOM      5  C   LIG    1        1.208  -0.679  -0.012  0.00  0.00    +0.007 A 
ATOM      6  C   LIG    1        0.002  -0.004   0.002  0.00  0.00    -0.030 A 
ENDROOT
BRANCH   3   7
ATOM      7  S   LIG    1        3.891   2.312  -0.024  0.00  0.00    +0.056 S 
ATOM      8  O   LIG    1        3.597   3.593  -0.566  0.00  0.00    -0.153 OA
ATOM      9  O   LIG    1        4.872   1.453  -0.588  0.00  0.00    -0.153 OA
BRANCH   7  10
ATOM     10  N   LIG    1        4.327   2.556   1.555  0.00  0.00    -0.204 NA
ATOM     11  H   LIG    1        5.142   3.039   1.764  0.00  0.00    +0.144 HD
ATOM     12  H   LIG    1        3.768   2.215   2.271  0.00  0.00    +0.144 HD
ENDBRANCH   7  10
ENDBRANCH   3   7
BRANCH   6  13
ATOM     13  C   LIG    1       -1.293  -0.775   0.011  0.00  0.00    +0.139 C 
BRANCH  13  14
ATOM     14  N   LIG    1       -1.726  -1.018  -1.368  0.00  0.00    -0.313 N 
ATOM     15  H   LIG    1       -1.192  -0.691  -2.108  0.00  0.00    +0.149 HD
ATOM     16  C   LIG    1       -2.867  -1.694  -1.606  0.00  0.00    +0.196 C 
ATOM     17  O   LIG    1       -3.535  -2.103  -0.680  0.00  0.00    -0.278 OA
BRANCH  16  18
ATOM     18  C   LIG    1       -3.312  -1.944  -3.024  0.00  0.00    +0.011 C 
BRANCH  18  19
ATOM     19  N   LIG    1       -4.574  -2.696  -3.016  0.00  0.00    +0.384 N 
ATOM     20  H   LIG    1       -4.873  -2.863  -3.965  0.00  0.00    -0.089 HD
ATOM     21  H   LIG    1       -5.280  -2.163  -2.530  0.00  0.00    -0.089 HD
ATOM     22  H   LIG    1       -4.437  -3.578  -2.546  0.00  0.00    -0.089 HD
ENDBRANCH  18  19
ENDBRANCH  16  18
ENDBRANCH  13  14
ENDBRANCH   6  13
TORSDOF 6
