REMARK  Name = ZINC12405071
REMARK                            x       y       z     vdW  Elec       q    Type
REMARK                         _______ _______ _______ _____ _____    ______ ____
ROOT
ATOM      1  C   LIG    1       -2.439   7.974   0.050  0.00  0.00    +0.135 A 
ATOM      2  C   LIG    1       -2.461   9.405   0.350  0.00  0.00    +0.015 A 
ATOM      3  C   LIG    1       -1.283  10.115   0.609  0.00  0.00    +0.011 A 
ATOM      4  C   LIG    1       -1.346  11.450   0.878  0.00  0.00    +0.001 A 
ATOM      5  C   LIG    1       -2.567  12.120   0.893  0.00  0.00    +0.001 A 
ATOM      6  C   LIG    1       -3.732  11.460   0.640  0.00  0.00    +0.010 A 
ATOM      7  C   LIG    1       -3.704  10.084   0.358  0.00  0.00    +0.012 A 
ATOM      8  C   LIG    1       -4.886   9.370   0.092  0.00  0.00    +0.128 A 
ATOM      9  C   LIG    1       -4.849   8.038  -0.179  0.00  0.00    +0.077 A 
ATOM     10  C   LIG    1       -3.651   7.327  -0.206  0.00  0.00    +0.146 A 
ENDROOT
BRANCH   8  11
ATOM     11  S   LIG    1       -6.434  10.212   0.111  0.00  0.00    +0.110 S 
ATOM     12  O   LIG    1       -7.367   9.360  -0.540  0.00  0.00    -0.142 OA
ATOM     13  O   LIG    1       -6.180  11.539  -0.327  0.00  0.00    -0.142 OA
BRANCH  11  14
ATOM     14  O   LIG    1       -6.875  10.310   1.565  0.00  0.00    -0.250 OA
ATOM     15  H   LIG    1       -6.263  10.885   2.050  0.00  0.00    +0.245 HD
ENDBRANCH  11  14
ENDBRANCH   8  11
BRANCH   1  17
ATOM     16  N   LIG    1       -1.264   6.024  -0.235  0.00  0.00    -0.145 NA
ATOM     17  N   LIG    1       -1.267   7.287   0.026  0.00  0.00    -0.145 NA
BRANCH  16  26
ATOM     18  C   LIG    1        0.037   1.192  -1.107  0.00  0.00    +0.001 A 
ATOM     19  C   LIG    1       -1.183   1.863  -1.097  0.00  0.00    +0.001 A 
ATOM     20  C   LIG    1       -1.247   3.196  -0.820  0.00  0.00    +0.011 A 
ATOM     21  C   LIG    1       -0.070   3.905  -0.554  0.00  0.00    +0.013 A 
ATOM     22  C   LIG    1        1.174   3.228  -0.570  0.00  0.00    -0.016 A 
ATOM     23  C   LIG    1        2.355   3.941  -0.302  0.00  0.00    +0.012 A 
ATOM     24  C   LIG    1        2.318   5.273  -0.030  0.00  0.00    +0.048 A 
ATOM     25  C   LIG    1        1.120   5.984  -0.003  0.00  0.00    +0.144 A 
ATOM     26  C   LIG    1       -0.091   5.337  -0.259  0.00  0.00    +0.135 A 
ATOM     27  C   LIG    1        1.202   1.851  -0.853  0.00  0.00    +0.008 A 
BRANCH  25  28
ATOM     28  O   LIG    1        1.131   7.312   0.273  0.00  0.00    -0.505 OA
ATOM     29  H   LIG    1        1.220   7.876  -0.508  0.00  0.00    +0.292 HD
ENDBRANCH  25  28
ENDBRANCH  16  26
ENDBRANCH   1  17
BRANCH  10  30
ATOM     30  O   LIG    1       -3.661   5.998  -0.482  0.00  0.00    -0.505 OA
ATOM     31  H   LIG    1       -3.751   5.435   0.299  0.00  0.00    +0.292 HD
ENDBRANCH  10  30
TORSDOF 6
