REMARK  Name = ZINC11945831
REMARK                            x       y       z     vdW  Elec       q    Type
REMARK                         _______ _______ _______ _____ _____    ______ ____
ROOT
ATOM      1  C   LIG    1       -1.274   5.823  -0.061  0.00  0.00    +0.129 A 
ATOM      2  C   LIG    1       -2.443   5.076  -0.058  0.00  0.00    +0.050 A 
ATOM      3  C   LIG    1       -3.667   5.709  -0.144  0.00  0.00    +0.049 A 
ATOM      4  C   LIG    1       -3.728   7.091  -0.245  0.00  0.00    +0.121 A 
ATOM      5  C   LIG    1       -2.559   7.838  -0.254  0.00  0.00    +0.049 A 
ATOM      6  C   LIG    1       -1.335   7.205  -0.163  0.00  0.00    +0.050 A 
ENDROOT
BRANCH   1   7
ATOM      7  O   LIG    1       -0.069   5.201   0.029  0.00  0.00    -0.456 OA
BRANCH   7  11
ATOM      8  C   LIG    1       -0.006   1.077  -0.064  0.00  0.00    +0.000 A 
ATOM      9  C   LIG    1        0.340   1.746   1.095  0.00  0.00    +0.004 A 
ATOM     10  C   LIG    1        0.326   3.127   1.127  0.00  0.00    +0.046 A 
ATOM     11  C   LIG    1       -0.048   3.842  -0.002  0.00  0.00    +0.128 A 
ATOM     12  C   LIG    1       -0.401   3.168  -1.162  0.00  0.00    +0.046 A 
ATOM     13  C   LIG    1       -0.379   1.787  -1.190  0.00  0.00    +0.004 A 
ENDBRANCH   7  11
ENDBRANCH   1   7
BRANCH   4  14
ATOM     14  O   LIG    1       -4.934   7.713  -0.336  0.00  0.00    -0.494 OA
BRANCH  14  15
ATOM     15  C   LIG    1       -6.096   6.882  -0.320  0.00  0.00    +0.209 C 
BRANCH  15  16
ATOM     16  C   LIG    1       -7.348   7.754  -0.430  0.00  0.00    -0.045 C 
BRANCH  16  17
ATOM     17  N   LIG    1       -7.345   8.436  -1.737  0.00  0.00    +0.380 N 
ATOM     18  H   LIG    1       -6.519   9.043  -1.798  0.00  0.00    -0.090 HD
ATOM     19  H   LIG    1       -8.184   9.005  -1.836  0.00  0.00    -0.090 HD
ATOM     20  H   LIG    1       -7.309   7.750  -2.489  0.00  0.00    -0.090 HD
ENDBRANCH  16  17
ENDBRANCH  15  16
ENDBRANCH  14  15
ENDBRANCH   4  14
TORSDOF 6
