REMARK  Name = ZINC11919683
REMARK                            x       y       z     vdW  Elec       q    Type
REMARK                         _______ _______ _______ _____ _____    ______ ____
ROOT
ATOM      1  C   LIG    1        3.362   2.575  -0.016  0.00  0.00    +0.017 A 
ATOM      2  C   LIG    1        2.466   1.529  -0.013  0.00  0.00    +0.027 A 
ATOM      3  C   LIG    1        1.099   1.786   0.001  0.00  0.00    +0.047 A 
ATOM      4  C   LIG    1        0.643   3.123   0.013  0.00  0.00    +0.005 A 
ATOM      5  C   LIG    1       -0.760   3.069   0.023  0.00  0.00    -0.012 A 
ATOM      6  C   LIG    1       -1.132   1.748   0.016  0.00  0.00    +0.061 A 
ATOM      7  C   LIG    1       -2.558   1.385   0.025  0.00  0.00    +0.130 C 
ATOM      8  N   LIG    1       -3.414   2.308  -0.294  0.00  0.00    -0.289 NA
ATOM      9  C   LIG    1       -3.042   3.656  -0.695  0.00  0.00    +0.146 C 
ATOM     10  C   LIG    1       -1.791   4.167   0.031  0.00  0.00    +0.061 C 
ATOM     11  C   LIG    1        1.577   4.168   0.011  0.00  0.00    +0.025 A 
ATOM     12  N   LIG    1       -0.011   0.966   0.007  0.00  0.00    -0.353 N 
ATOM     13  H   LIG    1        0.002  -0.004   0.002  0.00  0.00    +0.166 HD
ATOM     14  C   LIG    1        2.913   3.890  -0.004  0.00  0.00    +0.019 A 
ATOM     15 BR   LIG    1        4.165   5.307  -0.007  0.00  0.00    -0.050 Br
ENDROOT
TORSDOF 0
