REMARK  Name = ZINC12355964
REMARK                            x       y       z     vdW  Elec       q    Type
REMARK                         _______ _______ _______ _____ _____    ______ ____
ROOT
ATOM      1  C   LIG    1       -0.017   1.381   0.010  0.00  0.00    +0.001 A 
ATOM      2  C   LIG    1        1.170   2.087   0.002  0.00  0.00    +0.004 A 
ATOM      3  C   LIG    1        2.388   1.420   0.001  0.00  0.00    -0.039 A 
ATOM      4  C   LIG    1        2.405   0.048   0.021  0.00  0.00    -0.031 A 
ATOM      5  C   LIG    1        1.209  -0.662  -0.002  0.00  0.00    -0.030 A 
ATOM      6  C   LIG    1        1.309  -2.164  -0.053  0.00  0.00    +0.116 C 
ATOM      7  N   LIG    1        2.250  -2.632   0.959  0.00  0.00    -0.311 NA
ATOM      8  H   LIG    1        1.807  -2.696   1.863  0.00  0.00    +0.122 HD
ATOM      9  C   LIG    1        3.510  -1.918   1.046  0.00  0.00    +0.094 C 
ATOM     10  C   LIG    1        3.664  -0.768   0.056  0.00  0.00    +0.064 C 
ATOM     11  C   LIG    1        4.852   0.063   0.463  0.00  0.00    -0.032 A 
ATOM     12  C   LIG    1        5.990  -0.610   0.892  0.00  0.00    +0.008 A 
ATOM     13  C   LIG    1        7.114   0.086   1.283  0.00  0.00    +0.049 A 
ATOM     14  C   LIG    1        7.112   1.472   1.249  0.00  0.00    +0.159 A 
ATOM     15  C   LIG    1        5.976   2.145   0.819  0.00  0.00    +0.162 A 
ATOM     16  C   LIG    1        4.843   1.438   0.424  0.00  0.00    +0.006 A 
ATOM     17  C   LIG    1        3.652   2.227  -0.036  0.00  0.00    +0.074 C 
ATOM     18  C   LIG    1        0.002  -0.004   0.002  0.00  0.00    +0.005 A 
ENDROOT
BRANCH  14  19
ATOM     19  O   LIG    1        8.215   2.168   1.633  0.00  0.00    -0.503 OA
ATOM     20  H   LIG    1        8.836   2.349   0.915  0.00  0.00    +0.292 HD
ENDBRANCH  14  19
BRANCH  15  21
ATOM     21  O   LIG    1        5.970   3.505   0.784  0.00  0.00    -0.503 OA
ATOM     22  H   LIG    1        6.270   3.878  -0.056  0.00  0.00    +0.292 HD
ENDBRANCH  15  21
TORSDOF 2
