REMARK  Name = ZINC09660252
REMARK                            x       y       z     vdW  Elec       q    Type
REMARK                         _______ _______ _______ _____ _____    ______ ____
ROOT
ATOM      1  C   LIG    1       -0.732  -2.655   4.622  0.00  0.00    +0.166 C 
ENDROOT
BRANCH   1   2
ATOM      2  C   LIG    1       -0.168  -3.956   5.135  0.00  0.00    -0.007 A 
ATOM      3  C   LIG    1        0.064  -5.001   4.261  0.00  0.00    +0.007 A 
ATOM      4  C   LIG    1        0.581  -6.193   4.731  0.00  0.00    +0.000 A 
ATOM      5  C   LIG    1        0.866  -6.340   6.075  0.00  0.00    +0.000 A 
ATOM      6  C   LIG    1        0.635  -5.295   6.950  0.00  0.00    +0.000 A 
ATOM      7  C   LIG    1        0.122  -4.101   6.479  0.00  0.00    +0.007 A 
ENDBRANCH   1   2
BRANCH   1   8
ATOM      8  C   LIG    1       -1.932  -2.936   3.754  0.00  0.00    -0.007 A 
ATOM      9  C   LIG    1       -3.000  -3.651   4.262  0.00  0.00    +0.007 A 
ATOM     10  C   LIG    1       -4.101  -3.908   3.466  0.00  0.00    +0.000 A 
ATOM     11  C   LIG    1       -4.133  -3.450   2.162  0.00  0.00    +0.000 A 
ATOM     12  C   LIG    1       -3.065  -2.733   1.655  0.00  0.00    +0.000 A 
ATOM     13  C   LIG    1       -1.967  -2.473   2.452  0.00  0.00    +0.007 A 
ENDBRANCH   1   8
BRANCH   1  14
ATOM     14  C   LIG    1        0.333  -1.927   3.800  0.00  0.00    +0.325 C 
BRANCH  14  15
ATOM     15  C   LIG    1        1.500  -1.576   4.687  0.00  0.00    +0.350 C 
ATOM     16  O   LIG    1        1.353  -0.785   5.603  0.00  0.00    -0.247 OA
BRANCH  15  17
ATOM     17  O   LIG    1        2.590  -2.084   4.489  0.00  0.00    -0.478 OA
ATOM     18  H   LIG    1        2.703  -2.692   3.785  0.00  0.00    +0.295 HD
ENDBRANCH  15  17
ENDBRANCH  14  15
BRANCH  14  19
ATOM     19  O   LIG    1        0.779  -2.775   2.739  0.00  0.00    -0.444 OA
BRANCH  19  26
ATOM     20  C   LIG    1        1.543   1.280   0.356  0.00  0.00    +0.066 C 
ATOM     21  C   LIG    1        1.573  -0.224   0.432  0.00  0.00    +0.045 A 
ATOM     22  C   LIG    1        2.021  -0.972  -0.645  0.00  0.00    +0.046 A 
ATOM     23  C   LIG    1        2.033  -2.353  -0.533  0.00  0.00    +0.045 A 
ATOM     24  C   LIG    1        2.511  -3.208  -1.678  0.00  0.00    +0.066 C 
ATOM     25  N   LIG    1        1.618  -2.913   0.592  0.00  0.00    -0.200 NA
ATOM     26  C   LIG    1        1.196  -2.169   1.602  0.00  0.00    +0.319 A 
ATOM     27  N   LIG    1        1.177  -0.848   1.530  0.00  0.00    -0.200 NA
ENDBRANCH  19  26
ENDBRANCH  14  19
ENDBRANCH   1  14
BRANCH   1  28
ATOM     28  O   LIG    1       -1.124  -1.837   5.726  0.00  0.00    -0.359 OA
BRANCH  28  29
ATOM     29  C   LIG    1       -1.781  -0.626   5.348  0.00  0.00    +0.166 C 
BRANCH  29  30
ATOM     30  C   LIG    1       -2.109   0.188   6.601  0.00  0.00    +0.063 C 
BRANCH  30  31
ATOM     31  C   LIG    1       -2.802   1.466   6.202  0.00  0.00    -0.045 A 
ATOM     32  C   LIG    1       -2.060   2.600   5.934  0.00  0.00    +0.004 A 
ATOM     33  C   LIG    1       -2.695   3.772   5.568  0.00  0.00    +0.000 A 
ATOM     34  C   LIG    1       -4.074   3.809   5.470  0.00  0.00    +0.000 A 
ATOM     35  C   LIG    1       -4.816   2.674   5.737  0.00  0.00    +0.000 A 
ATOM     36  C   LIG    1       -4.180   1.501   6.099  0.00  0.00    +0.004 A 
ENDBRANCH  30  31
ENDBRANCH  29  30
ENDBRANCH  28  29
ENDBRANCH   1  28
TORSDOF 11
