REMARK  Name = ZINC11687637
REMARK                            x       y       z     vdW  Elec       q    Type
REMARK                         _______ _______ _______ _____ _____    ______ ____
ROOT
ATOM      1  C   LIG    1        3.672   2.184  -0.021  0.00  0.00    +0.148 C 
ENDROOT
BRANCH   1   2
ATOM      2  C   LIG    1        4.423   1.919   1.258  0.00  0.00    -0.018 A 
ATOM      3  C   LIG    1        4.900   0.643   1.525  0.00  0.00    +0.008 A 
ATOM      4  C   LIG    1        5.583   0.383   2.679  0.00  0.00    +0.030 A 
ATOM      5  C   LIG    1        5.807   1.407   3.603  0.00  0.00    +0.089 A 
ATOM      6  C   LIG    1        5.325   2.699   3.332  0.00  0.00    +0.066 A 
ATOM      7  N   LIG    1        5.696   3.478   4.410  0.00  0.00    -0.344 N 
ATOM      8  C   LIG    1        6.368   2.674   5.277  0.00  0.00    +0.197 A 
ATOM      9  H   LIG    1        5.510   4.423   4.528  0.00  0.00    +0.167 HD
ATOM     10  N   LIG    1        6.434   1.463   4.806  0.00  0.00    -0.236 NA
ATOM     11  C   LIG    1        4.637   2.946   2.152  0.00  0.00    +0.033 A 
ENDBRANCH   1   2
BRANCH   1  14
ATOM     12  C   LIG    1        0.793  -0.096   0.858  0.00  0.00    +0.002 A 
ATOM     13  C   LIG    1        1.835   0.805   0.974  0.00  0.00    +0.006 A 
ATOM     14  C   LIG    1        2.536   1.202  -0.149  0.00  0.00    -0.019 A 
ATOM     15  C   LIG    1        2.194   0.699  -1.391  0.00  0.00    +0.026 A 
ATOM     16  C   LIG    1        1.151  -0.203  -1.508  0.00  0.00    +0.041 A 
ATOM     17 CL   LIG    1        0.721  -0.835  -3.067  0.00  0.00    -0.084 Cl
ATOM     18  C   LIG    1        0.451  -0.600  -0.383  0.00  0.00    +0.020 A 
ENDBRANCH   1  14
BRANCH   1  19
ATOM     19  N   LIG    1        4.579   2.032  -1.161  0.00  0.00    -0.325 N 
ATOM     20  C   LIG    1        4.903   2.997  -2.076  0.00  0.00    +0.107 A 
ATOM     21  C   LIG    1        5.763   2.436  -2.947  0.00  0.00    +0.130 A 
ATOM     22  N   LIG    1        5.960   1.163  -2.574  0.00  0.00    -0.244 NA
ATOM     23  C   LIG    1        5.258   0.915  -1.502  0.00  0.00    +0.200 A 
ENDBRANCH   1  19
TORSDOF 3
