REMARK  Name = ZINC09937921
REMARK                            x       y       z     vdW  Elec       q    Type
REMARK                         _______ _______ _______ _____ _____    ______ ____
ROOT
ATOM      1  C   LIG    1       -1.080  -3.456  -0.007  0.00  0.00    +0.090 C 
ATOM      2  C   LIG    1       -0.347  -2.139  -0.007  0.00  0.00    +0.149 A 
ATOM      3  N   LIG    1       -0.923  -0.940   0.005  0.00  0.00    -0.211 NA
ATOM      4  C   LIG    1        0.002  -0.004   0.002  0.00  0.00    +0.168 A 
ATOM      5  C   LIG    1       -0.018   1.463   0.010  0.00  0.00    +0.045 A 
ATOM      6  C   LIG    1       -1.208   2.187   0.031  0.00  0.00    +0.014 A 
ATOM      7  C   LIG    1       -1.163   3.564   0.032  0.00  0.00    +0.001 A 
ATOM      8  C   LIG    1        0.056   4.231   0.024  0.00  0.00    +0.002 A 
ATOM      9  C   LIG    1        1.234   3.540   0.009  0.00  0.00    +0.028 A 
ATOM     10  C   LIG    1        1.222   2.143   0.002  0.00  0.00    +0.077 A 
ATOM     11  N   LIG    1        2.371   1.426  -0.013  0.00  0.00    -0.222 NA
ATOM     12  C   LIG    1        2.372   0.118  -0.020  0.00  0.00    +0.192 A 
ATOM     13  N   LIG    1        1.222  -0.624  -0.013  0.00  0.00    -0.188 N 
ATOM     14  N   LIG    1        0.956  -1.999  -0.018  0.00  0.00    -0.148 NA
ENDROOT
BRANCH  12  15
ATOM     15  S   LIG    1        3.920  -0.725  -0.040  0.00  0.00    -0.089 S 
ATOM     16  C   LIG    1        5.048   0.690  -0.043  0.00  0.00    +0.093 C 
ENDBRANCH  12  15
TORSDOF 1
