REMARK  Name = ZINC12650333
REMARK                            x       y       z     vdW  Elec       q    Type
REMARK                         _______ _______ _______ _____ _____    ______ ____
ROOT
ATOM      1  C   LIG    1        2.965   0.784  -1.517  0.00  0.00    +0.101 C 
ENDROOT
BRANCH   1   2
ATOM      2  C   LIG    1        1.875  -0.027  -2.170  0.00  0.00    +0.308 C 
ATOM      3  O   LIG    1        1.456  -1.023  -1.628  0.00  0.00    -0.251 OA
BRANCH   2   4
ATOM      4  O   LIG    1        1.369   0.358  -3.352  0.00  0.00    -0.480 OA
ATOM      5  H   LIG    1        1.693   1.130  -3.771  0.00  0.00    +0.295 HD
ENDBRANCH   2   4
ENDBRANCH   1   2
BRANCH   1   6
ATOM      6  C   LIG    1        2.522   1.197  -0.112  0.00  0.00    +0.049 C 
BRANCH   6  12
ATOM      7  C   LIG    1       -3.135   4.281  -0.554  0.00  0.00    +0.001 A 
ATOM      8  C   LIG    1       -3.360   2.906  -0.536  0.00  0.00    +0.001 A 
ATOM      9  C   LIG    1       -2.324   2.027  -0.448  0.00  0.00    +0.008 A 
ATOM     10  C   LIG    1       -1.006   2.511  -0.380  0.00  0.00    -0.018 A 
ATOM     11  C   LIG    1        0.088   1.635  -0.281  0.00  0.00    +0.012 A 
ATOM     12  C   LIG    1        1.350   2.139  -0.212  0.00  0.00    -0.046 A 
ATOM     13  C   LIG    1        1.575   3.515  -0.230  0.00  0.00    +0.004 A 
ATOM     14  C   LIG    1        0.539   4.393  -0.319  0.00  0.00    +0.009 A 
ATOM     15  C   LIG    1       -0.778   3.909  -0.393  0.00  0.00    -0.018 A 
ATOM     16  C   LIG    1       -1.873   4.785  -0.484  0.00  0.00    +0.008 A 
ENDBRANCH   6  12
ENDBRANCH   1   6
BRANCH   1  17
ATOM     17  C   LIG    1        4.239  -0.058  -1.423  0.00  0.00    +0.010 C 
BRANCH  17  18
ATOM     18  CA  LIG    1        4.766  -0.344  -2.831  0.00  0.00    +0.037 C 
BRANCH  18  19
ATOM     19  N   LIG    1        3.794  -1.193  -3.542  0.00  0.00    +0.387 N 
ATOM     20  H1  LIG    1        2.884  -0.718  -3.566  0.00  0.00    -0.089 HD
ATOM     21  H2  LIG    1        3.690  -2.085  -3.060  0.00  0.00    -0.089 HD
ATOM     22  H3  LIG    1        4.108  -1.359  -4.497  0.00  0.00    -0.089 HD
ENDBRANCH  18  19
BRANCH  18  23
ATOM     23  C   LIG    1        6.101  -1.038  -2.736  0.00  0.00    +0.290 C 
ATOM     24  O   LIG    1        6.169  -2.236  -2.872  0.00  0.00    -0.253 OA
BRANCH  23  25
ATOM     25  OXT LIG    1        7.213  -0.324  -2.502  0.00  0.00    -0.482 OA
ATOM     26  HXT LIG    1        7.159   0.606  -2.397  0.00  0.00    +0.295 HD
ENDBRANCH  23  25
ENDBRANCH  18  23
ENDBRANCH  17  18
ENDBRANCH   1  17
TORSDOF 9
