REMARK  Name = ZINC10407901
REMARK                            x       y       z     vdW  Elec       q    Type
REMARK                         _______ _______ _______ _____ _____    ______ ____
ROOT
ATOM      1  N   LIG    1        6.165  -4.152  -0.237  0.00  0.00    -0.269 N 
ATOM      2  H   LIG    1        5.820  -5.039  -0.046  0.00  0.00    +0.156 HD
ATOM      3  C   LIG    1        7.493  -3.957  -0.354  0.00  0.00    +0.308 C 
ATOM      4  N   LIG    1        8.335  -5.009  -0.310  0.00  0.00    -0.269 N 
ATOM      5  H   LIG    1        7.983  -5.911  -0.270  0.00  0.00    +0.156 HD
ATOM      6  O   LIG    1        7.932  -2.833  -0.500  0.00  0.00    -0.252 OA
ENDROOT
BRANCH   1  15
ATOM      7  C   LIG    1        1.803   2.692  -2.022  0.00  0.00    +0.000 A 
ATOM      8  C   LIG    1        1.083   1.983  -1.077  0.00  0.00    +0.001 A 
ATOM      9  C   LIG    1        1.569   0.789  -0.587  0.00  0.00    +0.009 A 
ATOM     10  C   LIG    1        2.791   0.292  -1.045  0.00  0.00    -0.014 A 
ATOM     11  C   LIG    1        3.507   1.013  -1.996  0.00  0.00    -0.035 A 
ATOM     12  C   LIG    1        4.769   0.242  -2.295  0.00  0.00    +0.071 C 
ATOM     13  C   LIG    1        4.719  -0.993  -1.429  0.00  0.00    -0.034 A 
ATOM     14  C   LIG    1        5.587  -2.051  -1.279  0.00  0.00    +0.028 A 
ATOM     15  C   LIG    1        5.284  -3.077  -0.391  0.00  0.00    +0.035 A 
ATOM     16  C   LIG    1        4.106  -3.034   0.344  0.00  0.00    +0.024 A 
ATOM     17  C   LIG    1        3.235  -1.975   0.195  0.00  0.00    +0.010 A 
ATOM     18  C   LIG    1        3.536  -0.943  -0.696  0.00  0.00    -0.014 A 
ATOM     19  C   LIG    1        3.014   2.206  -2.480  0.00  0.00    +0.004 A 
ENDBRANCH   1  15
BRANCH   4  20
ATOM     20  C   LIG    1        9.719  -4.798  -0.323  0.00  0.00    +0.035 A 
ATOM     21  C   LIG    1       10.257  -3.671   0.284  0.00  0.00    +0.025 A 
ATOM     22  C   LIG    1       11.622  -3.466   0.270  0.00  0.00    +0.030 A 
ATOM     23  C   LIG    1       12.454  -4.382  -0.347  0.00  0.00    +0.105 A 
ATOM     24  C   LIG    1       11.922  -5.506  -0.952  0.00  0.00    +0.030 A 
ATOM     25  C   LIG    1       10.557  -5.719  -0.937  0.00  0.00    +0.025 A 
BRANCH  23  26
ATOM     26  S   LIG    1       14.196  -4.117  -0.362  0.00  0.00    +0.056 S 
ATOM     27  O   LIG    1       14.396  -2.719  -0.204  0.00  0.00    -0.153 OA
ATOM     28  O   LIG    1       14.707  -4.839  -1.474  0.00  0.00    -0.153 OA
BRANCH  26  29
ATOM     29  N   LIG    1       14.813  -4.840   0.995  0.00  0.00    -0.204 NA
ATOM     30  H   LIG    1       15.766  -4.806   1.171  0.00  0.00    +0.144 HD
ATOM     31  H   LIG    1       14.221  -5.297   1.612  0.00  0.00    +0.144 HD
ENDBRANCH  26  29
ENDBRANCH  23  26
ENDBRANCH   4  20
TORSDOF 4
