REMARK  Name = ZINC11688675
REMARK                            x       y       z     vdW  Elec       q    Type
REMARK                         _______ _______ _______ _____ _____    ______ ____
ROOT
ATOM      1  C   LIG    1       -0.546   3.779  -1.491  0.00  0.00    +0.006 C 
ATOM      2  C   LIG    1        0.276   2.675  -2.161  0.00  0.00    -0.080 C 
ATOM      3  N   LIG    1        1.521   2.427  -1.414  0.00  0.00    +0.387 N 
ATOM      4  H   LIG    1        2.020   1.637  -1.840  0.00  0.00    -0.085 HD
ATOM      5  H   LIG    1        2.113   3.265  -1.452  0.00  0.00    -0.085 HD
ATOM      6  C   LIG    1        1.214   2.107   0.002  0.00  0.00    +0.020 C 
ATOM      7  C   LIG    1        0.664   3.419   0.634  0.00  0.00    +0.018 C 
ATOM      8  C   LIG    1       -0.014   1.209   0.009  0.00  0.00    +0.224 C 
ATOM      9  O   LIG    1        0.002  -0.004   0.002  0.00  0.00    -0.275 OA
ATOM     10  N   LIG    1       -1.124   1.975   0.018  0.00  0.00    -0.182 N 
ATOM     11  C   LIG    1       -0.753   3.406  -0.009  0.00  0.00    +0.102 C 
ENDROOT
BRANCH  10  12
ATOM     12  O   LIG    1       -2.451   1.482   0.051  0.00  0.00    -0.292 OA
ATOM     13  H   LIG    1       -2.511   0.517   0.067  0.00  0.00    +0.242 HD
ENDBRANCH  10  12
TORSDOF 1
