REMARK  Name = ZINC08838038
REMARK                            x       y       z     vdW  Elec       q    Type
REMARK                         _______ _______ _______ _____ _____    ______ ____
ROOT
ATOM      1  C   LIG    1       -3.510   3.417  -7.281  0.00  0.00    +0.071 C 
ATOM      2  C   LIG    1       -4.244   3.827  -8.342  0.00  0.00    +0.188 C 
ATOM      3  C   LIG    1       -5.421   4.578  -7.858  0.00  0.00    +0.283 C 
ATOM      4  N   LIG    1       -5.407   4.637  -6.514  0.00  0.00    -0.279 N 
ATOM      5  O   LIG    1       -6.273   5.073  -8.569  0.00  0.00    -0.267 OA
ATOM      6  C   LIG    1       -4.217   3.919  -6.043  0.00  0.00    +0.145 C 
ENDROOT
BRANCH   6   7
ATOM      7  C   LIG    1       -4.621   2.759  -5.170  0.00  0.00    -0.022 A 
ATOM      8  C   LIG    1       -5.687   1.958  -5.536  0.00  0.00    +0.006 A 
ATOM      9  C   LIG    1       -6.054   0.891  -4.738  0.00  0.00    +0.004 A 
ATOM     10  C   LIG    1       -5.363   0.630  -3.570  0.00  0.00    -0.050 A 
ATOM     11  C   LIG    1       -5.767  -0.530  -2.697  0.00  0.00    +0.044 C 
ATOM     12  C   LIG    1       -4.301   1.435  -3.202  0.00  0.00    +0.004 A 
ATOM     13  C   LIG    1       -3.929   2.499  -4.002  0.00  0.00    +0.006 A 
ENDBRANCH   6   7
BRANCH   1  14
ATOM     14  C   LIG    1       -2.267   2.642  -7.324  0.00  0.00    +0.195 C 
ATOM     15  O   LIG    1       -2.278   1.496  -7.735  0.00  0.00    -0.287 OA
BRANCH  14  19
ATOM     16  C   LIG    1        1.375   4.392  -6.014  0.00  0.00    +0.123 A 
ATOM     17  C   LIG    1        0.211   5.153  -6.043  0.00  0.00    +0.046 A 
ATOM     18  C   LIG    1       -0.972   4.589  -6.468  0.00  0.00    +0.015 A 
ATOM     19  C   LIG    1       -1.001   3.250  -6.869  0.00  0.00    +0.023 A 
ATOM     20  C   LIG    1        0.171   2.489  -6.838  0.00  0.00    +0.018 A 
ATOM     21  C   LIG    1        1.351   3.062  -6.418  0.00  0.00    -0.008 A 
ATOM     22  C   LIG    1        2.616   2.244  -6.390  0.00  0.00    +0.047 C 
BRANCH  16  23
ATOM     23  O   LIG    1        2.538   4.951  -5.596  0.00  0.00    -0.492 OA
BRANCH  23  24
ATOM     24  C   LIG    1        2.493   6.324  -5.201  0.00  0.00    +0.229 C 
BRANCH  24  25
ATOM     25  C   LIG    1        3.888   6.775  -4.764  0.00  0.00    +0.041 C 
BRANCH  25  27
ATOM     26  C   LIG    1        5.235   8.696  -3.905  0.00  0.00    +0.004 C 
ATOM     27  C   LIG    1        3.840   8.245  -4.341  0.00  0.00    -0.000 C 
ENDBRANCH  25  27
ENDBRANCH  24  25
ENDBRANCH  23  24
ENDBRANCH  16  23
ENDBRANCH  14  19
ENDBRANCH   1  14
BRANCH   2  28
ATOM     28  O   LIG    1       -3.947   3.585  -9.640  0.00  0.00    -0.502 OA
ATOM     29  H   LIG    1       -3.178   3.098  -9.862  0.00  0.00    +0.292 HD
ENDBRANCH   2  28
BRANCH   4  30
ATOM     30  C   LIG    1       -6.404   5.301  -5.670  0.00  0.00    +0.145 C 
BRANCH  30  31
ATOM     31  C   LIG    1       -5.995   6.733  -5.441  0.00  0.00    -0.012 A 
ATOM     32  C   LIG    1       -5.202   7.072  -4.356  0.00  0.00    +0.008 A 
ATOM     33  C   LIG    1       -4.847   8.402  -4.188  0.00  0.00    +0.020 A 
ATOM     34  C   LIG    1       -5.300   9.340  -5.096  0.00  0.00    +0.111 A 
ATOM     35  N   LIG    1       -6.057   8.982  -6.115  0.00  0.00    -0.263 NA
ATOM     36  C   LIG    1       -6.411   7.726  -6.308  0.00  0.00    +0.115 A 
ENDBRANCH  30  31
ENDBRANCH   4  30
TORSDOF 10
