REMARK  Name = ZINC11536215
REMARK                            x       y       z     vdW  Elec       q    Type
REMARK                         _______ _______ _______ _____ _____    ______ ____
ROOT
ATOM      1  S   LIG    1       -1.506  -0.902   0.010  0.00  0.00    +0.044 S 
ATOM      2  O   LIG    1       -2.486  -0.044   0.578  0.00  0.00    -0.163 OA
ATOM      3  O   LIG    1       -1.207  -2.181   0.552  0.00  0.00    -0.163 OA
ENDROOT
BRANCH   1   8
ATOM      4  C   LIG    1        3.671   2.197  -0.051  0.00  0.00    +0.044 C 
ATOM      5  C   LIG    1        2.378   1.423  -0.035  0.00  0.00    -0.050 A 
ATOM      6  C   LIG    1        1.170   2.095  -0.015  0.00  0.00    +0.005 A 
ATOM      7  C   LIG    1       -0.016   1.385  -0.002  0.00  0.00    +0.028 A 
ATOM      8  C   LIG    1        0.006   0.003  -0.007  0.00  0.00    +0.095 A 
ATOM      9  C   LIG    1        1.214  -0.669  -0.026  0.00  0.00    +0.028 A 
ATOM     10  C   LIG    1        2.400   0.041  -0.040  0.00  0.00    +0.005 A 
ENDBRANCH   1   8
BRANCH   1  11
ATOM     11  C   LIG    1       -1.976  -1.163  -1.668  0.00  0.00    +0.204 A 
ATOM     12  N   LIG    1       -1.566  -2.240  -2.308  0.00  0.00    -0.127 NA
ATOM     13  N   LIG    1       -1.878  -2.471  -3.531  0.00  0.00    -0.110 NA
ATOM     14  C   LIG    1       -2.635  -1.642  -4.232  0.00  0.00    +0.232 A 
ATOM     15  C   LIG    1       -3.115  -0.477  -3.639  0.00  0.00    +0.072 A 
ATOM     16  C   LIG    1       -2.779  -0.235  -2.316  0.00  0.00    +0.055 A 
BRANCH  14  17
ATOM     17  O   LIG    1       -2.940  -1.925  -5.523  0.00  0.00    -0.491 OA
ATOM     18  H   LIG    1       -3.476  -1.337  -6.018  0.00  0.00    +0.294 HD
ENDBRANCH  14  17
ENDBRANCH   1  11
TORSDOF 3
