REMARK  Name = ZINC10272297
REMARK                            x       y       z     vdW  Elec       q    Type
REMARK                         _______ _______ _______ _____ _____    ______ ____
ROOT
ATOM      1  C   LIG    1       -0.019   1.523   0.010  0.00  0.00    +0.018 C 
ATOM      2  C   LIG    1        0.002  -0.004   0.002  0.00  0.00    +0.011 C 
ATOM      3  C   LIG    1       -1.389  -0.580   0.022  0.00  0.00    +0.013 C 
ATOM      4  C   LIG    1       -1.994  -0.548   1.430  0.00  0.00    +0.005 C 
ATOM      5  C   LIG    1       -1.158   0.224   2.432  0.00  0.00    +0.003 C 
ATOM      6  C   LIG    1        0.283  -0.288   2.504  0.00  0.00    +0.001 C 
ATOM      7  C   LIG    1        1.101   0.769   3.256  0.00  0.00    +0.031 C 
ATOM      8  C   LIG    1        0.479   0.925   4.619  0.00  0.00    -0.027 C 
ATOM      9  C   LIG    1       -0.765   0.656   4.867  0.00  0.00    -0.065 C 
ATOM     10  C   LIG    1       -1.289   0.817   6.284  0.00  0.00    +0.062 C 
ATOM     11  C   LIG    1       -2.047  -0.469   6.640  0.00  0.00    +0.119 C 
ATOM     12  C   LIG    1       -1.742  -1.564   5.624  0.00  0.00    +0.032 C 
ATOM     13  C   LIG    1       -2.240  -1.207   4.223  0.00  0.00    +0.014 C 
ATOM     14  C   LIG    1       -1.759   0.185   3.834  0.00  0.00    -0.008 C 
ATOM     15  C   LIG    1       -2.958   1.139   3.847  0.00  0.00    +0.016 C 
ATOM     16  C   LIG    1        0.845  -0.417  -1.195  0.00  0.00    +0.042 C 
ATOM     17  N   LIG    1        0.423  -0.825  -2.324  0.00  0.00    -0.198 NA
ATOM     18  C   LIG    1        2.285  -0.229  -0.732  0.00  0.00    +0.053 C 
ATOM     19  C   LIG    1        2.241  -0.090   0.816  0.00  0.00    +0.010 C 
ATOM     20  C   LIG    1        0.834  -0.607   1.152  0.00  0.00    +0.005 C 
ENDROOT
BRANCH  17  21
ATOM     21  N   LIG    1        1.336  -1.169  -3.329  0.00  0.00    -0.283 N 
ATOM     22  H   LIG    1        1.015  -1.479  -4.190  0.00  0.00    +0.164 HD
ATOM     23  H   LIG    1        2.289  -1.096  -3.165  0.00  0.00    +0.164 HD
ENDBRANCH  17  21
BRANCH  11  24
ATOM     24  O   LIG    1       -3.452  -0.211   6.671  0.00  0.00    -0.391 OA
ATOM     25  H   LIG    1       -3.712   0.477   7.298  0.00  0.00    +0.210 HD
ENDBRANCH  11  24
TORSDOF 2
