REMARK  Name = ZINC09188397
REMARK                            x       y       z     vdW  Elec       q    Type
REMARK                         _______ _______ _______ _____ _____    ______ ____
ROOT
ATOM      1  C   LIG    1        3.574   2.611  -0.115  0.00  0.00    -0.024 A 
ATOM      2  C   LIG    1        3.234   3.970  -0.103  0.00  0.00    +0.008 A 
ATOM      3  C   LIG    1        4.213   4.918  -0.193  0.00  0.00    +0.009 A 
ATOM      4  C   LIG    1        5.550   4.534  -0.308  0.00  0.00    -0.018 A 
ATOM      5  C   LIG    1        5.891   3.181  -0.326  0.00  0.00    +0.009 A 
ATOM      6  C   LIG    1        4.916   2.228  -0.231  0.00  0.00    +0.008 A 
ENDROOT
BRANCH   1  12
ATOM      7  C   LIG    1       -2.366   1.016   0.606  0.00  0.00    +0.139 C 
ATOM      8  N   LIG    1       -1.107   1.766   0.591  0.00  0.00    -0.258 N 
ATOM      9  C   LIG    1        0.014   1.140   0.275  0.00  0.00    +0.258 C 
ATOM     10  C   LIG    1        1.248   1.954   0.272  0.00  0.00    +0.077 C 
ATOM     11  S   LIG    1        0.597   3.550   0.746  0.00  0.00    -0.061 S 
ATOM     12  C   LIG    1        2.524   1.589  -0.014  0.00  0.00    +0.028 C 
ATOM     13  O   LIG    1        0.028  -0.045  -0.005  0.00  0.00    -0.269 OA
ATOM     14  C   LIG    1       -1.118   3.078   0.904  0.00  0.00    +0.120 C 
ATOM     15  S   LIG    1       -2.453   4.055   1.341  0.00  0.00    -0.027 S 
ENDBRANCH   1  12
BRANCH   4  16
ATOM     16  C   LIG    1        6.609   5.565  -0.411  0.00  0.00    -0.018 A 
ATOM     17  C   LIG    1        7.947   5.186  -0.521  0.00  0.00    +0.008 A 
ATOM     18  C   LIG    1        8.928   6.151  -0.623  0.00  0.00    +0.001 A 
ATOM     19  C   LIG    1        8.589   7.492  -0.605  0.00  0.00    +0.000 A 
ATOM     20  C   LIG    1        7.264   7.874  -0.490  0.00  0.00    +0.001 A 
ATOM     21  C   LIG    1        6.273   6.918  -0.394  0.00  0.00    +0.008 A 
ENDBRANCH   4  16
TORSDOF 2
