REMARK  Name = ZINC09592675
REMARK                            x       y       z     vdW  Elec       q    Type
REMARK                         _______ _______ _______ _____ _____    ______ ____
ROOT
ATOM      1  C   LIG    1       -0.016   1.361   0.009  0.00  0.00    +0.001 A 
ATOM      2  C   LIG    1        1.169   2.083   0.002  0.00  0.00    +0.002 A 
ATOM      3  C   LIG    1        2.385   1.436  -0.013  0.00  0.00    +0.026 A 
ATOM      4  C   LIG    1        2.429   0.044  -0.021  0.00  0.00    +0.049 A 
ATOM      5  C   LIG    1        1.226  -0.683  -0.013  0.00  0.00    +0.002 A 
ATOM      6  C   LIG    1        1.268  -2.147  -0.022  0.00  0.00    +0.061 A 
ATOM      7  C   LIG    1        2.479  -2.765  -0.037  0.00  0.00    +0.182 A 
ATOM      8  C   LIG    1        3.699  -1.960  -0.044  0.00  0.00    +0.291 A 
ATOM      9  O   LIG    1        4.784  -2.514  -0.057  0.00  0.00    -0.264 OA
ATOM     10  N   LIG    1        3.640  -0.617  -0.036  0.00  0.00    -0.319 N 
ATOM     11  H   LIG    1        4.463  -0.104  -0.042  0.00  0.00    +0.169 HD
ATOM     12  C   LIG    1        0.002  -0.004   0.002  0.00  0.00    +0.010 A 
ENDROOT
BRANCH   7  13
ATOM     13  O   LIG    1        2.554  -4.122  -0.044  0.00  0.00    -0.502 OA
ATOM     14  H   LIG    1        1.770  -4.635  -0.039  0.00  0.00    +0.292 HD
ENDBRANCH   7  13
TORSDOF 1
