REMARK  Name = ZINC08922776
REMARK                            x       y       z     vdW  Elec       q    Type
REMARK                         _______ _______ _______ _____ _____    ______ ____
ROOT
ATOM      1  C   LIG    1       -4.668  -3.239  -2.568  0.00  0.00    +0.166 C 
ENDROOT
BRANCH   1   3
ATOM      2  C   LIG    1       -6.431  -3.760  -4.168  0.00  0.00    +0.401 C 
ATOM      3  N   LIG    1       -5.143  -3.432  -3.940  0.00  0.00    -0.269 N 
ATOM      4  H   LIG    1       -4.532  -3.323  -4.685  0.00  0.00    +0.153 HD
ATOM      5  O   LIG    1       -7.197  -3.896  -3.234  0.00  0.00    -0.226 OA
BRANCH   2   6
ATOM      6  O   LIG    1       -6.867  -3.937  -5.429  0.00  0.00    -0.446 OA
BRANCH   6   7
ATOM      7  C   LIG    1       -8.266  -4.290  -5.598  0.00  0.00    +0.269 C 
BRANCH   7  11
ATOM      8  C   LIG    1       -9.128  -4.731  -9.759  0.00  0.00    +0.000 A 
ATOM      9  C   LIG    1       -8.704  -5.821  -9.021  0.00  0.00    +0.000 A 
ATOM     10  C   LIG    1       -8.425  -5.678  -7.675  0.00  0.00    +0.007 A 
ATOM     11  C   LIG    1       -8.570  -4.445  -7.066  0.00  0.00    -0.010 A 
ATOM     12  C   LIG    1       -8.999  -3.357  -7.803  0.00  0.00    +0.007 A 
ATOM     13  C   LIG    1       -9.274  -3.499  -9.150  0.00  0.00    +0.000 A 
ENDBRANCH   7  11
ENDBRANCH   6   7
ENDBRANCH   2   6
ENDBRANCH   1   3
BRANCH   1  14
ATOM     14  C   LIG    1       -3.469  -2.326  -2.575  0.00  0.00    +0.234 C 
ATOM     15  N   LIG    1       -2.859  -2.005  -1.417  0.00  0.00    -0.313 N 
ATOM     16  H   LIG    1       -3.192  -2.362  -0.578  0.00  0.00    +0.149 HD
ATOM     17  O   LIG    1       -3.052  -1.881  -3.623  0.00  0.00    -0.274 OA
BRANCH  15  18
ATOM     18  C   LIG    1       -1.694  -1.118  -1.424  0.00  0.00    +0.109 C 
BRANCH  18  19
ATOM     19  C   LIG    1       -1.197  -0.917   0.009  0.00  0.00    +0.056 C 
BRANCH  19  20
ATOM     20  C   LIG    1        0.002  -0.004   0.002  0.00  0.00    -0.021 A 
ATOM     21  C   LIG    1        1.291  -0.379  -0.012  0.00  0.00    +0.087 A 
ATOM     22  N   LIG    1        2.098   0.726  -0.014  0.00  0.00    -0.360 N 
ATOM     23  C   LIG    1        1.329   1.868  -0.001  0.00  0.00    +0.047 A 
ATOM     24  C   LIG    1        1.631   3.225   0.004  0.00  0.00    +0.026 A 
ATOM     25  C   LIG    1        0.611   4.153   0.019  0.00  0.00    +0.002 A 
ATOM     26  C   LIG    1       -0.716   3.746   0.030  0.00  0.00    +0.001 A 
ATOM     27  C   LIG    1       -1.034   2.417   0.030  0.00  0.00    +0.010 A 
ATOM     28  H   LIG    1        3.068   0.707  -0.023  0.00  0.00    +0.165 HD
ATOM     29  C   LIG    1       -0.018   1.461   0.010  0.00  0.00    +0.003 A 
ENDBRANCH  19  20
ENDBRANCH  18  19
ENDBRANCH  15  18
ENDBRANCH   1  14
BRANCH   1  30
ATOM     30  C   LIG    1       -4.276  -4.592  -1.969  0.00  0.00    +0.069 C 
BRANCH  30  31
ATOM     31  C   LIG    1       -5.500  -5.462  -1.849  0.00  0.00    -0.020 A 
ATOM     32  C   LIG    1       -6.273  -5.605  -0.761  0.00  0.00    +0.087 A 
ATOM     33  N   LIG    1       -7.295  -6.477  -1.026  0.00  0.00    -0.360 N 
ATOM     34  C   LIG    1       -7.201  -6.926  -2.324  0.00  0.00    +0.047 A 
ATOM     35  C   LIG    1       -7.961  -7.803  -3.091  0.00  0.00    +0.026 A 
ATOM     36  C   LIG    1       -7.611  -8.046  -4.401  0.00  0.00    +0.002 A 
ATOM     37  C   LIG    1       -6.498  -7.434  -4.962  0.00  0.00    +0.001 A 
ATOM     38  C   LIG    1       -5.735  -6.573  -4.225  0.00  0.00    +0.010 A 
ATOM     39  H   LIG    1       -7.982  -6.739  -0.394  0.00  0.00    +0.165 HD
ATOM     40  C   LIG    1       -6.076  -6.306  -2.898  0.00  0.00    +0.003 A 
ENDBRANCH  30  31
ENDBRANCH   1  30
TORSDOF 10
