REMARK  Name = ZINC08741242
REMARK                            x       y       z     vdW  Elec       q    Type
REMARK                         _______ _______ _______ _____ _____    ______ ____
ROOT
ATOM      1  C   LIG    1        3.711  -0.707  -0.038  0.00  0.00    +0.150 C 
ATOM      2  C   LIG    1        4.418  -0.444   1.280  0.00  0.00    +0.240 C 
ATOM      3  O   LIG    1        3.905  -0.729   2.340  0.00  0.00    -0.274 OA
ATOM      4  N   LIG    1        5.643   0.123   1.219  0.00  0.00    -0.241 N 
ATOM      5  H   LIG    1        6.123   0.305   2.042  0.00  0.00    +0.159 HD
ATOM      6  C   LIG    1        6.218   0.444   0.030  0.00  0.00    +0.278 C 
ATOM      7  N   LIG    1        5.670   0.247  -1.145  0.00  0.00    -0.130 NA
ATOM      8  C   LIG    1        4.462  -0.302  -1.292  0.00  0.00    +0.260 C 
ATOM      9  O   LIG    1        3.980  -0.473  -2.394  0.00  0.00    -0.272 OA
ENDROOT
BRANCH   1  13
ATOM     10  C   LIG    1       -0.017   1.378   0.010  0.00  0.00    +0.000 A 
ATOM     11  C   LIG    1        1.171   2.086   0.002  0.00  0.00    +0.000 A 
ATOM     12  C   LIG    1        2.377   1.411  -0.013  0.00  0.00    +0.005 A 
ATOM     13  C   LIG    1        2.396   0.029  -0.020  0.00  0.00    -0.024 A 
ATOM     14  C   LIG    1        1.208  -0.679  -0.012  0.00  0.00    +0.005 A 
ATOM     15  C   LIG    1        0.002  -0.004   0.002  0.00  0.00    +0.000 A 
ENDBRANCH   1  13
BRANCH   6  16
ATOM     16  O   LIG    1        7.440   1.005   0.060  0.00  0.00    -0.483 OA
ATOM     17  H   LIG    1        7.868   1.240  -0.739  0.00  0.00    +0.295 HD
ENDBRANCH   6  16
BRANCH   1  18
ATOM     18  C   LIG    1        3.414  -2.206  -0.123  0.00  0.00    +0.035 C 
BRANCH  18  19
ATOM     19  C   LIG    1        4.730  -2.986  -0.143  0.00  0.00    +0.037 C 
BRANCH  19  20
ATOM     20  C   LIG    1        4.437  -4.462  -0.227  0.00  0.00    -0.044 A 
ATOM     21  C   LIG    1        4.274  -5.220   0.923  0.00  0.00    +0.023 A 
ATOM     22  C   LIG    1        4.006  -6.571   0.807  0.00  0.00    +0.111 A 
ATOM     23  N   LIG    1        3.907  -7.139  -0.379  0.00  0.00    -0.263 NA
ATOM     24  C   LIG    1        4.056  -6.450  -1.493  0.00  0.00    +0.111 A 
ATOM     25  C   LIG    1        4.319  -5.093  -1.455  0.00  0.00    +0.023 A 
ENDBRANCH  19  20
ENDBRANCH  18  19
ENDBRANCH   1  18
TORSDOF 5
