REMARK  Name = ZINC09835022
REMARK                            x       y       z     vdW  Elec       q    Type
REMARK                         _______ _______ _______ _____ _____    ______ ____
ROOT
ATOM      1  C   LIG    1        1.735 -11.002  -3.990  0.00  0.00    +0.124 C 
ATOM      2  N   LIG    1        1.648 -10.407  -2.775  0.00  0.00    -0.298 NA
ATOM      3  H   LIG    1        1.656 -10.945  -1.901  0.00  0.00    +0.124 HD
ATOM      4  C   LIG    1        1.546  -9.033  -2.790  0.00  0.00    +0.059 C 
ATOM      5  C   LIG    1        1.453  -8.363  -1.557  0.00  0.00    +0.021 C 
ATOM      6  C   LIG    1        1.351  -7.008  -1.526  0.00  0.00    +0.024 C 
ATOM      7  C   LIG    1        1.337  -6.259  -2.707  0.00  0.00    +0.073 C 
ATOM      8  C   LIG    1        1.422  -6.883  -3.933  0.00  0.00    +0.027 C 
ATOM      9  C   LIG    1        1.533  -8.281  -3.990  0.00  0.00    +0.011 C 
ATOM     10  C   LIG    1        1.627  -8.955  -5.224  0.00  0.00    -0.007 C 
ATOM     11  C   LIG    1        1.616  -8.193  -6.524  0.00  0.00    +0.008 C 
ATOM     12  C   LIG    1        1.728 -10.314  -5.212  0.00  0.00    +0.038 C 
ENDROOT
BRANCH   1  17
ATOM     13  N   LIG    1        0.928 -15.033  -3.459  0.00  0.00    +0.381 N 
ATOM     14  H   LIG    1        0.029 -14.784  -3.030  0.00  0.00    -0.082 HD
ATOM     15  C   LIG    1        0.962 -14.509  -4.841  0.00  0.00    -0.063 C 
ATOM     16  C   LIG    1        0.767 -12.992  -4.798  0.00  0.00    +0.067 C 
ATOM     17  N   LIG    1        1.838 -12.386  -3.993  0.00  0.00    -0.291 NA
ATOM     18  C   LIG    1        1.828 -12.918  -2.623  0.00  0.00    +0.067 C 
ATOM     19  C   LIG    1        2.022 -14.435  -2.666  0.00  0.00    -0.063 C 
BRANCH  13  21
ATOM     20  C   LIG    1       -0.196 -17.109  -4.103  0.00  0.00    -0.017 C 
ATOM     21  C   LIG    1        1.061 -16.506  -3.474  0.00  0.00    -0.082 C 
ENDBRANCH  13  21
ENDBRANCH   1  17
BRANCH   7  22
ATOM     22  N   LIG    1        1.231  -4.865  -2.644  0.00  0.00    -0.312 N 
ATOM     23  H   LIG    1        0.735  -4.385  -3.325  0.00  0.00    +0.149 HD
ATOM     24  C   LIG    1        1.820  -4.189  -1.637  0.00  0.00    +0.214 C 
ATOM     25  O   LIG    1        2.370  -4.793  -0.742  0.00  0.00    -0.276 OA
BRANCH  24  26
ATOM     26  C   LIG    1        1.794  -2.682  -1.625  0.00  0.00    +0.100 C 
BRANCH  26  27
ATOM     27  C   LIG    1        2.526  -2.170  -0.384  0.00  0.00    +0.044 C 
BRANCH  27  28
ATOM     28  C   LIG    1        2.500  -0.663  -0.371  0.00  0.00    -0.047 A 
ATOM     29  C   LIG    1        1.461   0.004   0.251  0.00  0.00    +0.007 A 
ATOM     30  C   LIG    1        1.435   1.385   0.264  0.00  0.00    +0.046 A 
ATOM     31  C   LIG    1        2.453   2.103  -0.347  0.00  0.00    +0.120 A 
ATOM     32  C   LIG    1        3.495   1.431  -0.970  0.00  0.00    +0.046 A 
ATOM     33  C   LIG    1        3.516   0.050  -0.981  0.00  0.00    +0.007 A 
BRANCH  31  34
ATOM     34  O   LIG    1        2.429   3.462  -0.336  0.00  0.00    -0.495 OA
ATOM     35  C   LIG    1        3.510   4.135  -0.985  0.00  0.00    +0.277 C 
ENDBRANCH  31  34
ENDBRANCH  27  28
ENDBRANCH  26  27
ENDBRANCH  24  26
ENDBRANCH   7  22
TORSDOF 7
