REMARK  Name = ZINC08689957
REMARK                            x       y       z     vdW  Elec       q    Type
REMARK                         _______ _______ _______ _____ _____    ______ ____
ROOT
ATOM      1  C   LIG    1       -3.648  -4.222  -7.654  0.00  0.00    +0.000 C 
ENDROOT
BRANCH   1   2
ATOM      2  C   LIG    1       -2.141  -4.359  -7.882  0.00  0.00    +0.004 C 
BRANCH   2   3
ATOM      3  C   LIG    1       -1.481  -4.908  -6.615  0.00  0.00    +0.027 C 
BRANCH   3   5
ATOM      4  C   LIG    1        0.845  -4.483  -6.007  0.00  0.00    -0.027 C 
ATOM      5  C   LIG    1        0.003  -5.043  -6.840  0.00  0.00    -0.031 C 
BRANCH   4   6
ATOM      6  C   LIG    1        0.340  -3.851  -4.736  0.00  0.00    +0.053 C 
BRANCH   6   8
ATOM      7  C   LIG    1        1.695  -3.590  -2.722  0.00  0.00    -0.031 C 
ATOM      8  C   LIG    1        1.105  -4.404  -3.561  0.00  0.00    -0.027 C 
BRANCH   7   9
ATOM      9  C   LIG    1        1.470  -2.103  -2.830  0.00  0.00    +0.027 C 
BRANCH   9  10
ATOM     10  C   LIG    1        1.036  -1.553  -1.470  0.00  0.00    +0.004 C 
BRANCH  10  11
ATOM     11  C   LIG    1        0.807  -0.044  -1.579  0.00  0.00    +0.000 C 
BRANCH  11  13
ATOM     12  C   LIG    1        0.144   2.015  -0.329  0.00  0.00    +0.004 C 
ATOM     13  C   LIG    1        0.372   0.506  -0.220  0.00  0.00    -0.003 C 
ENDBRANCH  11  13
ENDBRANCH  10  11
ENDBRANCH   9  10
ENDBRANCH   7   9
ENDBRANCH   6   8
ENDBRANCH   4   6
ENDBRANCH   3   5
ENDBRANCH   2   3
ENDBRANCH   1   2
BRANCH   1  14
ATOM     14  C   LIG    1       -4.308  -3.674  -8.921  0.00  0.00    +0.000 C 
BRANCH  14  15
ATOM     15  C   LIG    1       -5.814  -3.536  -8.692  0.00  0.00    +0.000 C 
BRANCH  15  16
ATOM     16  C   LIG    1       -6.474  -2.988  -9.959  0.00  0.00    +0.009 C 
BRANCH  16  17
ATOM     17  C   LIG    1       -7.981  -2.851  -9.731  0.00  0.00    +0.096 C 
BRANCH  17  18
ATOM     18  C   LIG    1       -8.631  -2.311 -10.979  0.00  0.00    +0.213 C 
ATOM     19  N   LIG    1       -9.962  -2.106 -11.010  0.00  0.00    -0.313 N 
ATOM     20  H   LIG    1      -10.502  -2.306 -10.230  0.00  0.00    +0.149 HD
ATOM     21  O   LIG    1       -7.955  -2.060 -11.954  0.00  0.00    -0.276 OA
BRANCH  19  22
ATOM     22  C   LIG    1      -10.594  -1.581 -12.223  0.00  0.00    +0.132 C 
BRANCH  22  23
ATOM     23  C   LIG    1      -12.101  -1.443 -11.995  0.00  0.00    +0.174 C 
BRANCH  23  24
ATOM     24  O   LIG    1      -12.342  -0.460 -10.987  0.00  0.00    -0.393 OA
ATOM     25  H   LIG    1      -13.279  -0.320 -10.790  0.00  0.00    +0.209 HD
ENDBRANCH  23  24
ENDBRANCH  22  23
ENDBRANCH  19  22
ENDBRANCH  17  18
ENDBRANCH  16  17
ENDBRANCH  15  16
ENDBRANCH  14  15
ENDBRANCH   1  14
TORSDOF 17
