REMARK  Name = ZINC12358651
REMARK                            x       y       z     vdW  Elec       q    Type
REMARK                         _______ _______ _______ _____ _____    ______ ____
ROOT
ATOM      1  C   LIG    1       -4.625   0.904   0.058  0.00  0.00    -0.050 C 
ATOM      2  C   LIG    1       -4.550   2.408   0.005  0.00  0.00    +0.044 C 
ATOM      3  C   LIG    1       -5.835   0.285   0.182  0.00  0.00    +0.003 C 
ENDROOT
BRANCH   1   5
ATOM      4  C   LIG    1       -2.243   0.754  -0.144  0.00  0.00    +0.004 C 
ATOM      5  C   LIG    1       -3.448   0.138  -0.020  0.00  0.00    +0.003 C 
BRANCH   4   8
ATOM      6  C   LIG    1       -2.029  -1.170  -2.030  0.00  0.00    +0.039 C 
ATOM      7  C   LIG    1       -0.913  -0.966  -1.038  0.00  0.00    -0.069 C 
ATOM      8  C   LIG    1       -1.051  -0.012  -0.132  0.00  0.00    -0.043 C 
ATOM      9  C   LIG    1       -0.016   0.305   0.908  0.00  0.00    -0.010 C 
ATOM     10  C   LIG    1        0.744   1.569   0.499  0.00  0.00    +0.016 C 
ATOM     11  C   LIG    1       -0.704   0.543   2.253  0.00  0.00    +0.016 C 
ATOM     12  C   LIG    1        0.970  -0.858   1.041  0.00  0.00    +0.011 C 
ATOM     13  C   LIG    1        1.461  -1.244  -0.359  0.00  0.00    +0.005 C 
ATOM     14  C   LIG    1        0.289  -1.859  -1.130  0.00  0.00    +0.031 C 
ENDBRANCH   4   8
ENDBRANCH   1   5
BRANCH   3  15
ATOM     15  C   LIG    1       -7.008   1.049   0.260  0.00  0.00    +0.001 C 
ATOM     16  C   LIG    1       -8.229   0.424   0.385  0.00  0.00    +0.003 C 
BRANCH  16  17
ATOM     17  C   LIG    1       -9.401   1.187   0.463  0.00  0.00    -0.044 C 
ATOM     18  C   LIG    1       -9.325   2.692   0.410  0.00  0.00    +0.044 C 
ATOM     19  C   LIG    1      -10.621   0.563   0.588  0.00  0.00    +0.094 C 
BRANCH  19  20
ATOM     20  C   LIG    1      -11.805   1.315   0.514  0.00  0.00    +0.330 C 
ATOM     21  O   LIG    1      -11.754   2.610   0.200  0.00  0.00    -0.246 OA
BRANCH  20  22
ATOM     22  O   LIG    1      -12.980   0.733   0.757  0.00  0.00    -0.478 OA
ATOM     23  H   LIG    1      -13.016  -0.177   0.977  0.00  0.00    +0.295 HD
ENDBRANCH  20  22
ENDBRANCH  19  20
ENDBRANCH  16  17
ENDBRANCH   3  15
TORSDOF 6
