REMARK  Name = ZINC08860468
REMARK                            x       y       z     vdW  Elec       q    Type
REMARK                         _______ _______ _______ _____ _____    ______ ____
ROOT
ATOM      1  C   UNK A  0        8.942  -5.895   0.558  0.00  0.00    +0.053 C 
ENDROOT
BRANCH   1   2
ATOM      2  C   UNK A  0        9.378  -5.697  -0.871  0.00  0.00    -0.027 C 
ATOM      3  C   UNK A  0        9.989  -6.663  -1.510  0.00  0.00    -0.031 C 
BRANCH   3   4
ATOM      4  C   UNK A  0       10.111  -8.026  -0.877  0.00  0.00    +0.027 C 
BRANCH   4   5
ATOM      5  C   UNK A  0        9.595  -9.088  -1.850  0.00  0.00    +0.013 C 
BRANCH   5   6
ATOM      6  C   UNK A  0        9.718 -10.471  -1.207  0.00  0.00    +0.096 C 
BRANCH   6   7
ATOM      7  C   UNK A  0        9.210 -11.517  -2.165  0.00  0.00    +0.213 C 
ATOM      8  N   ALA A  1        9.222 -12.818  -1.812  0.00  0.00    -0.311 N 
ATOM      9  H   ALA A  1        9.557 -13.080  -0.940  0.00  0.00    +0.149 HD
ATOM     10  O   UNK A  0        8.791 -11.189  -3.255  0.00  0.00    -0.276 OA
BRANCH   8  11
ATOM     11  CA  ALA A  1        8.728 -13.835  -2.743  0.00  0.00    +0.095 C 
ATOM     12  CB  ALA A  1        7.210 -13.961  -2.602  0.00  0.00    +0.030 C 
BRANCH  11  13
ATOM     13  C   ALA A  1        9.384 -15.180  -2.424  0.00  0.00    +0.177 C 
BRANCH  13  14
ATOM     14  O   ALA A  1        8.967 -15.618  -1.130  0.00  0.00    -0.393 OA
ATOM     15  H   ALA A  1        9.345 -16.467  -0.861  0.00  0.00    +0.209 HD
ENDBRANCH  13  14
ENDBRANCH  11  13
ENDBRANCH   8  11
ENDBRANCH   6   7
ENDBRANCH   5   6
ENDBRANCH   4   5
ENDBRANCH   3   4
ENDBRANCH   1   2
BRANCH   1  17
ATOM     16  C   UNK A  0        8.688  -4.078   2.168  0.00  0.00    -0.027 C 
ATOM     17  C   UNK A  0        9.492  -4.781   1.410  0.00  0.00    -0.027 C 
BRANCH  16  18
ATOM     18  C   UNK A  0        7.247  -4.491   2.325  0.00  0.00    +0.053 C 
BRANCH  18  20
ATOM     19  C   UNK A  0        5.890  -3.960   4.284  0.00  0.00    -0.027 C 
ATOM     20  C   UNK A  0        6.914  -4.609   3.790  0.00  0.00    -0.027 C 
BRANCH  19  21
ATOM     21  C   UNK A  0        4.948  -3.227   3.364  0.00  0.00    +0.053 C 
BRANCH  21  23
ATOM     22  C   UNK A  0        2.614  -2.757   3.908  0.00  0.00    -0.031 C 
ATOM     23  C   UNK A  0        3.532  -3.656   3.649  0.00  0.00    -0.027 C 
BRANCH  22  24
ATOM     24  C   UNK A  0        2.932  -1.292   3.759  0.00  0.00    +0.027 C 
BRANCH  24  25
ATOM     25  C   UNK A  0        1.878  -0.629   2.870  0.00  0.00    +0.004 C 
BRANCH  25  26
ATOM     26  C   UNK A  0        2.201   0.859   2.719  0.00  0.00    +0.000 C 
BRANCH  26  28
ATOM     27  C   UNK A  0        1.470   3.010   1.679  0.00  0.00    +0.004 C 
ATOM     28  C   UNK A  0        1.147   1.522   1.830  0.00  0.00    -0.003 C 
ENDBRANCH  26  28
ENDBRANCH  25  26
ENDBRANCH  24  25
ENDBRANCH  22  24
ENDBRANCH  21  23
ENDBRANCH  19  21
ENDBRANCH  18  20
ENDBRANCH  16  18
ENDBRANCH   1  17
TORSDOF 17
