REMARK  Name = ZINC12050373
REMARK                            x       y       z     vdW  Elec       q    Type
REMARK                         _______ _______ _______ _____ _____    ______ ____
ROOT
ATOM      1  C   LIG    1        0.163  -2.748   0.001  0.00  0.00    +0.072 A 
ATOM      2  C   LIG    1       -1.115  -2.168   0.017  0.00  0.00    +0.042 A 
ATOM      3  C   LIG    1       -1.235  -0.785   0.010  0.00  0.00    +0.048 A 
ATOM      4  C   LIG    1        0.002  -0.004  -0.013  0.00  0.00    +0.013 A 
ATOM      5  C   LIG    1       -0.017   1.395  -0.021  0.00  0.00    +0.011 A 
ATOM      6  C   LIG    1        1.159   2.084  -0.042  0.00  0.00    +0.001 A 
ATOM      7  C   LIG    1        2.380   1.413  -0.058  0.00  0.00    +0.002 A 
ATOM      8  C   LIG    1        2.434   0.054  -0.051  0.00  0.00    +0.028 A 
ATOM      9  C   LIG    1        1.241  -0.693  -0.028  0.00  0.00    +0.072 A 
ATOM     10  N   LIG    1        1.263  -2.026  -0.021  0.00  0.00    -0.247 NA
ENDROOT
BRANCH   1  14
ATOM     11  C   LIG    1        0.490  -6.987   0.021  0.00  0.00    +0.000 A 
ATOM     12  C   LIG    1        1.633  -6.208  -0.001  0.00  0.00    +0.001 A 
ATOM     13  C   LIG    1        1.533  -4.831  -0.008  0.00  0.00    +0.010 A 
ATOM     14  C   LIG    1        0.277  -4.227   0.008  0.00  0.00    +0.000 A 
ATOM     15  C   LIG    1       -0.871  -5.017   0.036  0.00  0.00    +0.010 A 
ATOM     16  C   LIG    1       -0.759  -6.392   0.036  0.00  0.00    +0.001 A 
ENDBRANCH   1  14
BRANCH   3  17
ATOM     17  C   LIG    1       -2.560  -0.128   0.027  0.00  0.00    +0.246 C 
ATOM     18  N   LIG    1       -3.681  -0.870  -0.068  0.00  0.00    -0.296 N 
ATOM     19  H   LIG    1       -3.619  -1.835  -0.146  0.00  0.00    +0.150 HD
ATOM     20  O   LIG    1       -2.637   1.081   0.125  0.00  0.00    -0.270 OA
BRANCH  18  21
ATOM     21  C   LIG    1       -4.994  -0.219  -0.051  0.00  0.00    +0.189 C 
BRANCH  21  22
ATOM     22  C   LIG    1       -5.997  -1.095  -0.756  0.00  0.00    -0.018 A 
ATOM     23  C   LIG    1       -5.963  -2.465  -0.580  0.00  0.00    +0.006 A 
ATOM     24  C   LIG    1       -6.887  -3.268  -1.222  0.00  0.00    +0.000 A 
ATOM     25  C   LIG    1       -7.839  -2.701  -2.049  0.00  0.00    +0.000 A 
ATOM     26  C   LIG    1       -7.870  -1.331  -2.229  0.00  0.00    +0.000 A 
ATOM     27  C   LIG    1       -6.949  -0.527  -1.583  0.00  0.00    +0.006 A 
ENDBRANCH  21  22
BRANCH  21  28
ATOM     28  C   LIG    1       -5.429  -0.003   1.375  0.00  0.00    +0.235 C 
ATOM     29  N   LIG    1       -6.614   0.585   1.637  0.00  0.00    -0.328 N 
ATOM     30  H   LIG    1       -6.894   0.724   2.555  0.00  0.00    +0.145 HD
ATOM     31  H   LIG    1       -7.186   0.869   0.906  0.00  0.00    +0.145 HD
ATOM     32  O   LIG    1       -4.714  -0.358   2.288  0.00  0.00    -0.274 OA
ENDBRANCH  21  28
ENDBRANCH  18  21
ENDBRANCH   3  17
TORSDOF 5
