REMARK  Name = ZINC08693977
REMARK                            x       y       z     vdW  Elec       q    Type
REMARK                         _______ _______ _______ _____ _____    ______ ____
ROOT
ATOM      1  C   LIG    1       -2.807  -2.575  -0.318  0.00  0.00    +0.329 C 
ATOM      2  O   LIG    1       -3.388  -3.284   0.469  0.00  0.00    -0.249 OA
ENDROOT
BRANCH   1   3
ATOM      3  C   LIG    1       -1.408  -2.103  -0.017  0.00  0.00    +0.193 C 
BRANCH   3   4
ATOM      4  N   LIG    1       -0.981  -2.637   1.279  0.00  0.00    -0.228 N 
ATOM      5  C   LIG    1       -1.568  -2.296   2.455  0.00  0.00    +0.227 C 
ATOM      6  C   LIG    1       -0.662  -2.800   3.537  0.00  0.00    +0.091 C 
ATOM      7  C   LIG    1       -1.288  -3.304   4.820  0.00  0.00    +0.040 C 
ATOM      8  C   LIG    1       -0.211  -4.060   5.568  0.00  0.00    -0.030 C 
ATOM      9  C   LIG    1        0.881  -4.509   5.026  0.00  0.00    -0.030 C 
ATOM     10  C   LIG    1        1.228  -4.367   3.559  0.00  0.00    +0.040 C 
ATOM     11  C   LIG    1       -0.046  -4.042   2.822  0.00  0.00    +0.091 C 
ATOM     12  O   LIG    1       -2.615  -1.702   2.601  0.00  0.00    -0.275 OA
ATOM     13  C   LIG    1        0.037  -3.525   1.419  0.00  0.00    +0.227 C 
ATOM     14  O   LIG    1        0.852  -3.837   0.577  0.00  0.00    -0.275 OA
ENDBRANCH   3   4
BRANCH   3  15
ATOM     15  C   LIG    1       -1.384  -0.574   0.029  0.00  0.00    +0.037 C 
BRANCH  15  17
ATOM     16  C   LIG    1        0.887  -0.452  -1.004  0.00  0.00    +0.007 C 
ATOM     17  C   LIG    1        0.054  -0.091   0.227  0.00  0.00    -0.015 C 
ATOM     18  C   LIG    1        0.061   1.426   0.421  0.00  0.00    +0.007 C 
ENDBRANCH  15  17
ENDBRANCH   3  15
ENDBRANCH   1   3
BRANCH   1  19
ATOM     19  O   LIG    1       -3.409  -2.207  -1.460  0.00  0.00    -0.454 OA
BRANCH  19  20
ATOM     20  C   LIG    1       -4.735  -2.691  -1.680  0.00  0.00    +0.328 C 
BRANCH  20  21
ATOM     21  C   LIG    1       -5.244  -2.179  -3.003  0.00  0.00    +0.255 C 
ATOM     22  N   LIG    1       -6.481  -2.509  -3.423  0.00  0.00    -0.283 N 
ATOM     23  H   LIG    1       -7.072  -3.014  -2.842  0.00  0.00    +0.155 HD
ATOM     24  O   LIG    1       -4.540  -1.469  -3.690  0.00  0.00    -0.272 OA
BRANCH  22  25
ATOM     25  C   LIG    1       -6.914  -2.125  -4.699  0.00  0.00    +0.035 A 
ATOM     26  C   LIG    1       -8.243  -1.784  -4.908  0.00  0.00    +0.027 A 
ATOM     27  C   LIG    1       -8.670  -1.404  -6.165  0.00  0.00    +0.049 A 
ATOM     28  C   LIG    1       -7.770  -1.363  -7.220  0.00  0.00    +0.138 A 
ATOM     29  C   LIG    1       -6.441  -1.705  -7.013  0.00  0.00    +0.084 A 
ATOM     30 CL   LIG    1       -5.316  -1.654  -8.334  0.00  0.00    -0.080 Cl
ATOM     31  C   LIG    1       -6.012  -2.079  -5.753  0.00  0.00    +0.047 A 
BRANCH  28  32
ATOM     32  O   LIG    1       -8.191  -0.990  -8.458  0.00  0.00    -0.494 OA
ATOM     33  C   LIG    1       -9.573  -0.652  -8.599  0.00  0.00    +0.277 C 
ENDBRANCH  28  32
ENDBRANCH  22  25
ENDBRANCH  20  21
ENDBRANCH  19  20
ENDBRANCH   1  19
TORSDOF 9
