REMARK  Name = ZINC11919626
REMARK                            x       y       z     vdW  Elec       q    Type
REMARK                         _______ _______ _______ _____ _____    ______ ____
ROOT
ATOM      1  C   LIG    1       -1.302   4.852   0.035  0.00  0.00    +0.144 A 
ATOM      2  C   LIG    1       -2.676   4.651   0.037  0.00  0.00    +0.048 A 
ATOM      3  C   LIG    1       -3.233   3.382   0.035  0.00  0.00    +0.004 A 
ATOM      4  C   LIG    1       -2.467   2.246   0.027  0.00  0.00    +0.010 A 
ATOM      5  C   LIG    1       -1.073   2.412   0.020  0.00  0.00    +0.007 A 
ATOM      6  C   LIG    1       -0.018   1.503   0.010  0.00  0.00    -0.012 A 
ATOM      7  C   LIG    1        0.002  -0.004   0.002  0.00  0.00    +0.061 C 
ATOM      8  C   LIG    1        1.259  -0.467  -0.737  0.00  0.00    +0.146 C 
ATOM      9  N   LIG    1        2.451   0.268  -0.341  0.00  0.00    -0.289 NA
ATOM     10  C   LIG    1        2.449   1.523  -0.009  0.00  0.00    +0.130 C 
ATOM     11  C   LIG    1        1.155   2.222   0.003  0.00  0.00    +0.061 A 
ATOM     12  N   LIG    1        0.866   3.562   0.010  0.00  0.00    -0.350 N 
ATOM     13  H   LIG    1        1.516   4.282   0.006  0.00  0.00    +0.166 HD
ATOM     14  C   LIG    1       -0.495   3.711   0.023  0.00  0.00    +0.089 A 
ENDROOT
BRANCH   1  16
ATOM     15  C   LIG    1       -1.681   7.199   0.047  0.00  0.00    +0.277 C 
ATOM     16  O   LIG    1       -0.766   6.101   0.034  0.00  0.00    -0.493 OA
ENDBRANCH   1  16
TORSDOF 1
