REMARK  Name = ZINC12343491
REMARK                            x       y       z     vdW  Elec       q    Type
REMARK                         _______ _______ _______ _____ _____    ______ ____
ROOT
ATOM      1  C   LIG    1        1.401   1.607  -0.003  0.00  0.00    +0.219 C 
ATOM      2  N   LIG    1        2.214   1.372   1.046  0.00  0.00    -0.305 N 
ATOM      3  C   LIG    1        1.777   0.523   2.164  0.00  0.00    +0.089 C 
ATOM      4  C   LIG    1        2.858  -0.541   2.413  0.00  0.00    -0.059 C 
ATOM      5  N   LIG    1        4.155   0.122   2.607  0.00  0.00    +0.384 N 
ATOM      6  H   LIG    1        4.035   0.860   3.415  0.00  0.00    -0.081 HD
ATOM      7  C   LIG    1        4.569   0.848   1.399  0.00  0.00    -0.059 C 
ATOM      8  C   LIG    1        3.560   1.963   1.106  0.00  0.00    +0.089 C 
ATOM      9  O   LIG    1        1.805   2.246  -0.952  0.00  0.00    -0.275 OA
ENDROOT
BRANCH   1  13
ATOM     10  C   LIG    1       -2.852   1.385  -0.634  0.00  0.00    +0.000 C 
ATOM     11  C   LIG    1       -1.954   0.435  -1.428  0.00  0.00    +0.001 C 
ATOM     12  C   LIG    1       -0.522   0.974  -1.434  0.00  0.00    +0.013 C 
ATOM     13  C   LIG    1       -0.009   1.077   0.004  0.00  0.00    +0.075 C 
ATOM     14  C   LIG    1       -0.908   2.027   0.798  0.00  0.00    +0.013 C 
ATOM     15  C   LIG    1       -2.340   1.488   0.804  0.00  0.00    +0.001 C 
ENDBRANCH   1  13
BRANCH   5  16
ATOM     16  C   LIG    1        5.183  -0.842   3.021  0.00  0.00    -0.068 C 
ATOM     17  C   LIG    1        5.414  -1.854   1.897  0.00  0.00    -0.015 C 
ATOM     18  C   LIG    1        6.485  -2.858   2.328  0.00  0.00    -0.002 C 
ATOM     19  C   LIG    1        6.019  -3.592   3.587  0.00  0.00    -0.000 C 
ATOM     20  C   LIG    1        5.787  -2.580   4.710  0.00  0.00    -0.002 C 
ATOM     21  C   LIG    1        4.717  -1.576   4.280  0.00  0.00    -0.015 C 
ENDBRANCH   5  16
TORSDOF 2
