REMARK  Name = ZINC12462331
REMARK                            x       y       z     vdW  Elec       q    Type
REMARK                         _______ _______ _______ _____ _____    ______ ____
ROOT
ATOM      1  C   LIG    1       -2.502   1.010   0.019  0.00  0.00    +0.136 A 
ATOM      2  C   LIG    1       -3.751   1.562   0.034  0.00  0.00    +0.050 A 
ATOM      3  C   LIG    1       -4.668   0.507   0.028  0.00  0.00    +0.050 A 
ATOM      4  C   LIG    1       -3.929  -0.663   0.018  0.00  0.00    +0.130 A 
ATOM      5  O   LIG    1       -2.621  -0.331   0.013  0.00  0.00    -0.455 OA
ENDROOT
BRANCH   4   6
ATOM      6  C   LIG    1       -4.452  -1.974   0.014  0.00  0.00    +0.066 C 
ATOM      7  C   LIG    1       -3.606  -3.046   0.004  0.00  0.00    +0.080 C 
ATOM      8  C   LIG    1       -3.916  -4.485  -0.003  0.00  0.00    +0.258 C 
ATOM      9  N   LIG    1       -2.887  -5.315  -0.013  0.00  0.00    -0.258 N 
ATOM     10  C   LIG    1       -3.131  -6.760  -0.019  0.00  0.00    +0.139 C 
ATOM     11  C   LIG    1       -1.617  -4.861  -0.017  0.00  0.00    +0.120 C 
ATOM     12  S   LIG    1       -0.163  -5.766  -0.029  0.00  0.00    -0.027 S 
ATOM     13  O   LIG    1       -5.064  -4.891   0.001  0.00  0.00    -0.269 OA
ATOM     14  S   LIG    1       -1.819  -3.087  -0.013  0.00  0.00    -0.061 S 
ENDBRANCH   4   6
BRANCH   1  19
ATOM     15  C   LIG    1        2.452   3.936  -0.000  0.00  0.00    +0.045 C 
ATOM     16  C   LIG    1        1.155   3.169   0.008  0.00  0.00    -0.032 A 
ATOM     17  C   LIG    1       -0.049   3.852   0.023  0.00  0.00    +0.005 A 
ATOM     18  C   LIG    1       -1.240   3.157   0.030  0.00  0.00    +0.012 A 
ATOM     19  C   LIG    1       -1.230   1.760   0.017  0.00  0.00    +0.019 A 
ATOM     20  C   LIG    1       -0.013   1.076   0.008  0.00  0.00    +0.031 A 
ATOM     21  C   LIG    1        1.173   1.784   0.000  0.00  0.00    +0.045 A 
ATOM     22 CL   LIG    1        2.688   0.937  -0.018  0.00  0.00    -0.083 Cl
ENDBRANCH   1  19
TORSDOF 2
