REMARK  Name = ZINC08699422
REMARK                            x       y       z     vdW  Elec       q    Type
REMARK                         _______ _______ _______ _____ _____    ______ ____
ROOT
ATOM      1  C   LIG    1       -0.013   1.076   0.008  0.00  0.00    +0.000 A 
ATOM      2  C   LIG    1        1.174   1.786   0.000  0.00  0.00    +0.000 A 
ATOM      3  C   LIG    1        1.147   3.165   0.010  0.00  0.00    +0.006 A 
ATOM      4  C   LIG    1       -0.063   3.847   0.026  0.00  0.00    -0.018 A 
ATOM      5  C   LIG    1       -1.244   3.140   0.030  0.00  0.00    -0.042 A 
ATOM      6  C   LIG    1       -2.592   3.813   0.038  0.00  0.00    +0.034 C 
ATOM      7  C   LIG    1       -2.462   5.271   0.475  0.00  0.00    -0.009 C 
ATOM      8  C   LIG    1       -1.369   5.934  -0.372  0.00  0.00    -0.041 C 
ATOM      9  C   LIG    1       -0.019   5.353   0.043  0.00  0.00    +0.130 C 
ATOM     10  C   LIG    1       -1.215   1.752   0.017  0.00  0.00    +0.004 A 
ENDROOT
BRANCH   8  11
ATOM     11  N   LIG    1       -1.357   7.392  -0.155  0.00  0.00    +0.382 N 
ATOM     12  H   LIG    1       -0.628   7.814  -0.743  0.00  0.00    -0.090 HD
ATOM     13  H   LIG    1       -1.156   7.598   0.822  0.00  0.00    -0.090 HD
ATOM     14  H   LIG    1       -2.260   7.790  -0.407  0.00  0.00    -0.090 HD
ENDBRANCH   8  11
BRANCH   9  15
ATOM     15  O   LIG    1        0.988   5.805  -0.866  0.00  0.00    -0.389 OA
ATOM     16  H   LIG    1        1.877   5.489  -0.656  0.00  0.00    +0.210 HD
ENDBRANCH   9  15
TORSDOF 2
