REMARK  Name = ZINC09207368
REMARK                            x       y       z     vdW  Elec       q    Type
REMARK                         _______ _______ _______ _____ _____    ______ ____
ROOT
ATOM      1  C   LIG    1        3.645  -2.015   0.059  0.00  0.00    +0.129 C 
ATOM      2  N   LIG    1        4.839  -2.673   0.147  0.00  0.00    -0.364 N 
ATOM      3  H   LIG    1        4.856  -3.641   0.214  0.00  0.00    +0.162 HD
ENDROOT
BRANCH   1   4
ATOM      4  N   LIG    1        3.621  -0.650  -0.036  0.00  0.00    -0.296 N 
ATOM      5  H   LIG    1        4.376  -0.178  -0.422  0.00  0.00    +0.154 HD
BRANCH   4   9
ATOM      6  C   LIG    1        0.310   1.477   1.329  0.00  0.00    +0.000 A 
ATOM      7  C   LIG    1        0.682   0.302   1.956  0.00  0.00    +0.002 A 
ATOM      8  C   LIG    1        1.779  -0.406   1.506  0.00  0.00    +0.023 A 
ATOM      9  C   LIG    1        2.509   0.064   0.422  0.00  0.00    +0.033 A 
ATOM     10  C   LIG    1        2.134   1.244  -0.206  0.00  0.00    +0.023 A 
ATOM     11  C   LIG    1        1.035   1.948   0.249  0.00  0.00    +0.002 A 
ENDBRANCH   4   9
ENDBRANCH   1   4
BRANCH   1  12
ATOM     12  S   LIG    1        2.223  -2.871   0.069  0.00  0.00    -0.110 S 
ATOM     13  H   LIG    1        1.175  -2.010  -0.028  0.00  0.00    +0.110 HD
ENDBRANCH   1  12
BRANCH   2  14
ATOM     14  C   LIG    1        6.094  -1.918   0.138  0.00  0.00    +0.150 C 
BRANCH  14  15
ATOM     15  C   LIG    1        7.256  -2.872   0.245  0.00  0.00    -0.028 A 
ATOM     16  C   LIG    1        7.743  -3.231   1.488  0.00  0.00    +0.007 A 
ATOM     17  C   LIG    1        8.808  -4.107   1.586  0.00  0.00    +0.029 A 
ATOM     18  C   LIG    1        9.386  -4.623   0.441  0.00  0.00    +0.105 A 
ATOM     19  C   LIG    1        8.898  -4.265  -0.801  0.00  0.00    +0.029 A 
ATOM     20  C   LIG    1        7.830  -3.393  -0.899  0.00  0.00    +0.007 A 
BRANCH  18  21
ATOM     21  S   LIG    1       10.745  -5.738   0.566  0.00  0.00    +0.056 S 
ATOM     22  O   LIG    1       11.361  -5.488   1.822  0.00  0.00    -0.153 OA
ATOM     23  O   LIG    1       11.454  -5.653  -0.662  0.00  0.00    -0.153 OA
BRANCH  21  24
ATOM     24  N   LIG    1       10.117  -7.269   0.644  0.00  0.00    -0.204 NA
ATOM     25  H   LIG    1       10.709  -8.033   0.718  0.00  0.00    +0.144 HD
ATOM     26  H   LIG    1        9.156  -7.401   0.617  0.00  0.00    +0.144 HD
ENDBRANCH  21  24
ENDBRANCH  18  21
ENDBRANCH  14  15
ENDBRANCH   2  14
TORSDOF 7
