REMARK  Name = ZINC12981580
REMARK                            x       y       z     vdW  Elec       q    Type
REMARK                         _______ _______ _______ _____ _____    ______ ____
ROOT
ATOM      1  C   LIG    1       -3.485   3.480   6.603  0.00  0.00    +0.066 C 
ATOM      2  C   LIG    1       -3.078   3.198   5.179  0.00  0.00    +0.046 A 
ATOM      3  C   LIG    1       -3.812   3.702   4.127  0.00  0.00    +0.095 A 
ATOM      4  C   LIG    1       -3.420   3.430   2.816  0.00  0.00    +0.275 A 
ATOM      5  N   LIG    1       -2.311   2.668   2.582  0.00  0.00    -0.171 N 
ATOM      6  C   LIG    1       -1.642   2.209   3.683  0.00  0.00    +0.199 A 
ATOM      7  S   LIG    1       -0.306   1.281   2.961  0.00  0.00    -0.029 S 
ATOM      8  C   LIG    1       -0.718   1.572   1.248  0.00  0.00    +0.140 A 
ATOM      9  N   LIG    1       -1.785   2.305   1.346  0.00  0.00    -0.156 NA
ATOM     10  O   LIG    1       -4.066   3.874   1.879  0.00  0.00    -0.266 OA
ATOM     11  N   LIG    1       -2.003   2.459   4.916  0.00  0.00    -0.227 NA
ENDROOT
BRANCH   8  12
ATOM     12  C   LIG    1       -0.013   1.086   0.008  0.00  0.00    +0.293 C 
BRANCH  12  13
ATOM     13  O   LIG    1       -0.704   1.559  -1.150  0.00  0.00    -0.484 OA
BRANCH  13  14
ATOM     14  C   LIG    1       -0.194   1.208  -2.360  0.00  0.00    +0.135 A 
ATOM     15  C   LIG    1        0.951   0.428  -2.431  0.00  0.00    +0.047 A 
ATOM     16  C   LIG    1        1.464   0.067  -3.662  0.00  0.00    +0.004 A 
ATOM     17  C   LIG    1        0.844   0.491  -4.822  0.00  0.00    +0.001 A 
ATOM     18  C   LIG    1       -0.294   1.273  -4.755  0.00  0.00    +0.019 A 
ATOM     19  C   LIG    1       -0.815   1.633  -3.526  0.00  0.00    +0.059 A 
ATOM     20 BR   LIG    1       -2.371   2.703  -3.434  0.00  0.00    -0.047 Br
ENDBRANCH  13  14
ENDBRANCH  12  13
ENDBRANCH   8  12
TORSDOF 3
