REMARK  Name = ZINC09627412
REMARK                            x       y       z     vdW  Elec       q    Type
REMARK                         _______ _______ _______ _____ _____    ______ ____
ROOT
ATOM      1  N   LIG    1        1.418  -2.571   1.997  0.00  0.00    -0.214 N 
ATOM      2  C   LIG    1        0.680  -2.129   0.936  0.00  0.00    +0.168 A 
ATOM      3  C   LIG    1        0.697  -0.722   0.995  0.00  0.00    +0.079 A 
ATOM      4  C   LIG    1        0.002  -0.004   0.002  0.00  0.00    +0.135 A 
ATOM      5  N   LIG    1       -0.640  -0.688  -0.939  0.00  0.00    -0.220 NA
ATOM      6  C   LIG    1       -0.623  -2.009  -0.956  0.00  0.00    +0.225 A 
ATOM      7  C   LIG    1        1.467  -0.364   2.123  0.00  0.00    +0.148 A 
ATOM      8  N   LIG    1        0.012  -2.722  -0.051  0.00  0.00    -0.216 NA
ATOM      9  N   LIG    1        1.884  -1.454   2.702  0.00  0.00    -0.172 NA
ENDROOT
BRANCH   1  16
ATOM     10  C   LIG    1       -0.122  -7.238   2.180  0.00  0.00    +0.044 C 
ATOM     11  C   LIG    1        0.936  -6.193   2.423  0.00  0.00    -0.048 A 
ATOM     12  C   LIG    1        2.153  -6.556   2.970  0.00  0.00    +0.006 A 
ATOM     13  C   LIG    1        3.127  -5.600   3.195  0.00  0.00    -0.048 A 
ATOM     14  C   LIG    1        4.452  -6.000   3.791  0.00  0.00    +0.044 C 
ATOM     15  C   LIG    1        2.886  -4.278   2.873  0.00  0.00    +0.031 A 
ATOM     16  C   LIG    1        1.665  -3.910   2.324  0.00  0.00    +0.068 A 
ATOM     17  C   LIG    1        0.688  -4.872   2.105  0.00  0.00    +0.031 A 
ENDBRANCH   1  16
BRANCH   4  18
ATOM     18  N   LIG    1       -0.017   1.377   0.010  0.00  0.00    -0.314 N 
ATOM     19  C   LIG    1        1.347   1.922  -0.001  0.00  0.00    +0.106 C 
ATOM     20  C   LIG    1        1.288   3.445  -0.139  0.00  0.00    +0.019 C 
ATOM     21  C   LIG    1        0.494   4.028   1.033  0.00  0.00    +0.006 C 
ATOM     22  C   LIG    1       -0.906   3.408   1.050  0.00  0.00    +0.003 C 
ATOM     23  C   LIG    1       -1.686   3.941   2.253  0.00  0.00    +0.009 C 
ATOM     24  C   LIG    1       -0.784   1.887   1.153  0.00  0.00    +0.109 C 
ENDBRANCH   4  18
TORSDOF 2
