REMARK  Name = ZINC09310951
REMARK                            x       y       z     vdW  Elec       q    Type
REMARK                         _______ _______ _______ _____ _____    ______ ____
ROOT
ATOM      1  C   LIG    1        3.663   1.615  -0.274  0.00  0.00    +0.048 A 
ATOM      2  C   LIG    1        4.801   0.836  -0.406  0.00  0.00    +0.041 A 
ATOM      3  C   LIG    1        4.710  -0.553  -0.315  0.00  0.00    +0.082 A 
ATOM      4  C   LIG    1        3.466  -1.161  -0.085  0.00  0.00    +0.048 A 
ATOM      5  C   LIG    1        2.329  -0.381   0.051  0.00  0.00    +0.041 A 
ATOM      6  C   LIG    1        2.420   1.007  -0.039  0.00  0.00    +0.082 A 
ENDROOT
BRANCH   1   8
ATOM      7  C   LIG    1        4.889   3.631  -0.004  0.00  0.00    +0.222 C 
ATOM      8  N   LIG    1        3.754   3.003  -0.370  0.00  0.00    -0.284 N 
ATOM      9  H   LIG    1        3.000   3.517  -0.700  0.00  0.00    +0.155 HD
ATOM     10  O   LIG    1        5.853   2.986   0.346  0.00  0.00    -0.275 OA
BRANCH   7  11
ATOM     11  C   LIG    1        4.959   5.137  -0.031  0.00  0.00    +0.131 C 
BRANCH  11  15
ATOM     12  C   LIG    1        8.833   6.404   1.247  0.00  0.00    +0.000 A 
ATOM     13  C   LIG    1        8.592   6.161  -0.092  0.00  0.00    +0.000 A 
ATOM     14  C   LIG    1        7.339   5.750  -0.506  0.00  0.00    +0.004 A 
ATOM     15  C   LIG    1        6.326   5.584   0.420  0.00  0.00    -0.039 A 
ATOM     16  C   LIG    1        6.565   5.833   1.758  0.00  0.00    +0.004 A 
ATOM     17  C   LIG    1        7.820   6.238   2.172  0.00  0.00    +0.000 A 
ENDBRANCH  11  15
ENDBRANCH   7  11
ENDBRANCH   1   8
BRANCH   4  18
ATOM     18  N   LIG    1        3.374  -2.549   0.006  0.00  0.00    -0.284 N 
ATOM     19  H   LIG    1        4.097  -3.058   0.407  0.00  0.00    +0.155 HD
ATOM     20  C   LIG    1        2.282  -3.185  -0.462  0.00  0.00    +0.222 C 
ATOM     21  O   LIG    1        1.417  -2.560  -1.040  0.00  0.00    -0.275 OA
BRANCH  20  22
ATOM     22  C   LIG    1        2.135  -4.672  -0.269  0.00  0.00    +0.131 C 
BRANCH  22  23
ATOM     23  C   LIG    1        0.836  -5.132  -0.880  0.00  0.00    -0.039 A 
ATOM     24  C   LIG    1       -0.316  -5.158  -0.117  0.00  0.00    +0.004 A 
ATOM     25  C   LIG    1       -1.508  -5.575  -0.679  0.00  0.00    +0.000 A 
ATOM     26  C   LIG    1       -1.546  -5.976  -2.002  0.00  0.00    +0.000 A 
ATOM     27  C   LIG    1       -0.392  -5.956  -2.763  0.00  0.00    +0.000 A 
ATOM     28  C   LIG    1        0.799  -5.534  -2.203  0.00  0.00    +0.004 A 
ENDBRANCH  22  23
ENDBRANCH  20  22
ENDBRANCH   4  18
BRANCH   3  29
ATOM     29  C   LIG    1        5.921  -1.384  -0.461  0.00  0.00    +0.339 C 
ATOM     30  O   LIG    1        5.857  -2.586  -0.297  0.00  0.00    -0.245 OA
BRANCH  29  31
ATOM     31  O   LIG    1        7.098  -0.809  -0.776  0.00  0.00    -0.477 OA
ATOM     32  H   LIG    1        7.148   0.118  -0.902  0.00  0.00    +0.295 HD
ENDBRANCH  29  31
ENDBRANCH   3  29
BRANCH   6  33
ATOM     33  C   LIG    1        1.208   1.838   0.106  0.00  0.00    +0.339 C 
ATOM     34  O   LIG    1        1.303   3.048   0.146  0.00  0.00    -0.245 OA
BRANCH  33  35
ATOM     35  O   LIG    1       -0.003   1.254   0.195  0.00  0.00    -0.477 OA
ATOM     36  H   LIG    1       -0.076   0.320   0.164  0.00  0.00    +0.295 HD
ENDBRANCH  33  35
ENDBRANCH   6  33
TORSDOF 10
