REMARK  Name = ZINC09804746
REMARK                            x       y       z     vdW  Elec       q    Type
REMARK                         _______ _______ _______ _____ _____    ______ ____
ROOT
ATOM      1  C   LIG    1        2.462   0.920  -0.017  0.00  0.00    +0.166 C 
ENDROOT
BRANCH   1   4
ATOM      2  N   LIG    1       -0.011   0.966   0.007  0.00  0.00    -0.313 N 
ATOM      3  H   LIG    1        0.002  -0.004   0.002  0.00  0.00    +0.149 HD
ATOM      4  C   LIG    1        1.147   1.655   0.000  0.00  0.00    +0.234 C 
ATOM      5  O   LIG    1        1.130   2.868   0.007  0.00  0.00    -0.274 OA
BRANCH   2   6
ATOM      6  C   LIG    1       -1.290   1.681   0.017  0.00  0.00    +0.109 C 
BRANCH   6   7
ATOM      7  C   LIG    1       -2.439   0.671   0.017  0.00  0.00    +0.054 C 
BRANCH   7  11
ATOM      8  C   LIG    1       -6.167   2.756   0.046  0.00  0.00    +0.000 A 
ATOM      9  C   LIG    1       -5.570   2.425  -1.155  0.00  0.00    +0.000 A 
ATOM     10  C   LIG    1       -4.363   1.751  -1.165  0.00  0.00    +0.004 A 
ATOM     11  C   LIG    1       -3.754   1.407   0.028  0.00  0.00    -0.046 A 
ATOM     12  C   LIG    1       -4.354   1.733   1.229  0.00  0.00    +0.004 A 
ATOM     13  C   LIG    1       -5.558   2.412   1.239  0.00  0.00    +0.000 A 
ENDBRANCH   7  11
ENDBRANCH   6   7
ENDBRANCH   2   6
ENDBRANCH   1   4
BRANCH   1  14
ATOM     14  N   LIG    1        3.562   1.887  -0.022  0.00  0.00    -0.269 N 
ATOM     15  H   LIG    1        3.428   2.777   0.339  0.00  0.00    +0.153 HD
ATOM     16  C   LIG    1        4.762   1.540  -0.528  0.00  0.00    +0.401 C 
ATOM     17  O   LIG    1        4.931   0.425  -0.981  0.00  0.00    -0.226 OA
BRANCH  16  18
ATOM     18  O   LIG    1        5.774   2.429  -0.533  0.00  0.00    -0.446 OA
BRANCH  18  19
ATOM     19  C   LIG    1        7.037   1.986  -1.095  0.00  0.00    +0.269 C 
BRANCH  19  20
ATOM     20  C   LIG    1        8.042   3.106  -1.015  0.00  0.00    -0.010 A 
ATOM     21  C   LIG    1        8.163   4.002  -2.060  0.00  0.00    +0.007 A 
ATOM     22  C   LIG    1        9.081   5.033  -1.985  0.00  0.00    +0.000 A 
ATOM     23  C   LIG    1        9.886   5.161  -0.868  0.00  0.00    +0.000 A 
ATOM     24  C   LIG    1        9.770   4.261   0.175  0.00  0.00    +0.000 A 
ATOM     25  C   LIG    1        8.848   3.234   0.102  0.00  0.00    +0.007 A 
ENDBRANCH  19  20
ENDBRANCH  18  19
ENDBRANCH  16  18
ENDBRANCH   1  14
BRANCH   1  26
ATOM     26  C   LIG    1        2.567   0.035   1.227  0.00  0.00    +0.069 C 
BRANCH  26  27
ATOM     27  C   LIG    1        3.824  -0.792   1.150  0.00  0.00    -0.020 A 
ATOM     28  C   LIG    1        3.927  -2.047   0.684  0.00  0.00    +0.087 A 
ATOM     29  N   LIG    1        5.225  -2.472   0.771  0.00  0.00    -0.360 N 
ATOM     30  C   LIG    1        6.009  -1.475   1.308  0.00  0.00    +0.047 A 
ATOM     31  C   LIG    1        7.364  -1.379   1.607  0.00  0.00    +0.026 A 
ATOM     32  C   LIG    1        7.866  -0.212   2.140  0.00  0.00    +0.002 A 
ATOM     33  C   LIG    1        7.030   0.867   2.393  0.00  0.00    +0.001 A 
ATOM     34  C   LIG    1        5.695   0.793   2.111  0.00  0.00    +0.010 A 
ATOM     35  H   LIG    1        5.545  -3.345   0.495  0.00  0.00    +0.165 HD
ATOM     36  C   LIG    1        5.167  -0.378   1.564  0.00  0.00    +0.003 A 
ENDBRANCH  26  27
ENDBRANCH   1  26
TORSDOF 10
