REMARK  Name = ZINC12375863
REMARK                            x       y       z     vdW  Elec       q    Type
REMARK                         _______ _______ _______ _____ _____    ______ ____
ROOT
ATOM      1  C   LIG    1        3.691  -0.679  -0.038  0.00  0.00    +0.171 C 
ATOM      2  O   LIG    1        4.731  -0.056  -0.045  0.00  0.00    -0.292 OA
ENDROOT
BRANCH   1   6
ATOM      3  C   LIG    1       -0.017   1.380   0.010  0.00  0.00    +0.000 A 
ATOM      4  C   LIG    1        1.168   2.095   0.002  0.00  0.00    +0.001 A 
ATOM      5  C   LIG    1        2.377   1.433  -0.013  0.00  0.00    +0.011 A 
ATOM      6  C   LIG    1        2.405   0.035  -0.021  0.00  0.00    +0.018 A 
ATOM      7  C   LIG    1        1.203  -0.681  -0.013  0.00  0.00    +0.011 A 
ATOM      8  C   LIG    1        0.002  -0.004   0.002  0.00  0.00    +0.001 A 
ENDBRANCH   1   6
BRANCH   1   9
ATOM      9  C   LIG    1        3.716  -2.186  -0.046  0.00  0.00    +0.166 C 
BRANCH   9  10
ATOM     10  C   LIG    1        5.145  -2.665  -0.064  0.00  0.00    +0.246 C 
ATOM     11  O   LIG    1        6.050  -1.865  -0.069  0.00  0.00    -0.285 OA
BRANCH  10  12
ATOM     12  C   LIG    1        5.442  -4.128  -0.074  0.00  0.00    +0.373 C 
ATOM     13  O   LIG    1        6.600  -4.516  -0.088  0.00  0.00    -0.242 OA
BRANCH  12  14
ATOM     14  O   LIG    1        4.528  -4.937  -0.069  0.00  0.00    -0.475 OA
ATOM     15  H   LIG    1        3.640  -4.639  -0.059  0.00  0.00    +0.295 HD
ENDBRANCH  12  14
ENDBRANCH  10  12
ENDBRANCH   9  10
ENDBRANCH   1   9
TORSDOF 5
