REMARK  Name = ZINC08684187
REMARK                            x       y       z     vdW  Elec       q    Type
REMARK                         _______ _______ _______ _____ _____    ______ ____
ROOT
ATOM      1  C   LIG    1       -0.017   1.380   0.010  0.00  0.00    +0.037 A 
ATOM      2  C   LIG    1        1.178   2.099   0.002  0.00  0.00    +0.064 A 
ATOM      3  C   LIG    1        2.398   1.410  -0.013  0.00  0.00    +0.081 A 
ATOM      4  C   LIG    1        2.408   0.006  -0.021  0.00  0.00    +0.121 A 
ATOM      5  N   LIG    1        3.710  -0.381  -0.036  0.00  0.00    -0.234 NA
ATOM      6  C   LIG    1        4.476   0.671  -0.038  0.00  0.00    +0.197 A 
ATOM      7  C   LIG    1        1.198  -0.692  -0.013  0.00  0.00    +0.167 A 
ATOM      8  N   LIG    1        3.717   1.801  -0.024  0.00  0.00    -0.344 N 
ATOM      9  H   LIG    1        4.046   2.714  -0.023  0.00  0.00    +0.167 HD
ATOM     10  C   LIG    1        0.002  -0.004   0.002  0.00  0.00    +0.074 A 
ATOM     11 CL   LIG    1       -1.495  -0.883   0.012  0.00  0.00    -0.081 Cl
ENDROOT
BRANCH   2  12
ATOM     12  C   LIG    1        1.157   3.574   0.010  0.00  0.00    +0.246 C 
ATOM     13  N   LIG    1       -0.019   4.231   0.024  0.00  0.00    -0.310 N 
ATOM     14  H   LIG    1       -0.852   3.735   0.029  0.00  0.00    +0.149 HD
ATOM     15  O   LIG    1        2.202   4.197   0.003  0.00  0.00    -0.270 OA
BRANCH  13  16
ATOM     16  C   LIG    1       -0.040   5.696   0.032  0.00  0.00    +0.060 C 
ATOM     17  C   LIG    1        0.086   6.203   1.470  0.00  0.00    -0.056 C 
ATOM     18  N   LIG    1       -1.093   6.998   1.826  0.00  0.00    +0.381 N 
ATOM     19  H   LIG    1       -0.987   7.316   2.778  0.00  0.00    -0.082 HD
ATOM     20  C   LIG    1       -2.307   6.181   1.753  0.00  0.00    -0.078 C 
ATOM     21  C   LIG    1       -2.511   5.673   0.324  0.00  0.00    -0.014 C 
ATOM     22  C   LIG    1       -1.206   8.170   0.955  0.00  0.00    -0.078 C 
ATOM     23  C   LIG    1       -1.373   7.728  -0.503  0.00  0.00    -0.014 C 
ATOM     24  C   LIG    1       -1.365   6.195  -0.558  0.00  0.00    +0.004 C 
ENDBRANCH  13  16
ENDBRANCH   2  12
BRANCH   7  25
ATOM     25  N   LIG    1        1.199  -2.172  -0.021  0.00  0.00    +0.010 N 
ATOM     26  O   LIG    1        1.209  -2.783   1.023  0.00  0.00    -0.130 OA
BRANCH  25  27
ATOM     27  O   LIG    1        1.189  -2.771  -1.071  0.00  0.00    -0.396 OA
ATOM     28  H   LIG    1        1.181  -2.298  -1.880  0.00  0.00    +0.329 HD
ENDBRANCH  25  27
ENDBRANCH   7  25
TORSDOF 4
