REMARK  Name = ZINC11909404
REMARK                            x       y       z     vdW  Elec       q    Type
REMARK                         _______ _______ _______ _____ _____    ______ ____
ROOT
ATOM      1  C   LIG    1        2.999  -6.643  -1.211  0.00  0.00    +0.034 C 
ENDROOT
BRANCH   1   2
ATOM      2  C   LIG    1        2.014  -6.420  -0.063  0.00  0.00    +0.086 C 
BRANCH   2   6
ATOM      3  N   LIG    1       -0.075  -2.780  -0.013  0.00  0.00    -0.325 N 
ATOM      4  C   LIG    1        0.571  -3.196   1.241  0.00  0.00    +0.120 C 
ATOM      5  C   LIG    1        0.835  -4.704   1.175  0.00  0.00    +0.103 C 
ATOM      6  N   LIG    1        1.591  -5.013  -0.046  0.00  0.00    -0.299 NA
ATOM      7  C   LIG    1        0.818  -4.681  -1.250  0.00  0.00    +0.103 C 
ATOM      8  C   LIG    1        0.549  -3.177  -1.283  0.00  0.00    +0.120 C 
BRANCH   3  14
ATOM      9  C   LIG    1       -1.201  -0.638   0.010  0.00  0.00    +0.141 A 
ATOM     10  C   LIG    1       -2.374   0.099   0.019  0.00  0.00    +0.047 A 
ATOM     11  C   LIG    1       -3.597  -0.547   0.028  0.00  0.00    +0.004 A 
ATOM     12  C   LIG    1       -3.653  -1.928   0.027  0.00  0.00    +0.002 A 
ATOM     13  C   LIG    1       -2.487  -2.671   0.017  0.00  0.00    +0.027 A 
ATOM     14  C   LIG    1       -1.257  -2.030   0.003  0.00  0.00    +0.072 A 
BRANCH   9  16
ATOM     15  C   LIG    1       -0.017   1.425   0.010  0.00  0.00    +0.277 C 
ATOM     16  O   LIG    1        0.002  -0.004   0.002  0.00  0.00    -0.493 OA
ENDBRANCH   9  16
ENDBRANCH   3  14
ENDBRANCH   2   6
ENDBRANCH   1   2
BRANCH   1  17
ATOM     17  C   LIG    1        3.439  -8.108  -1.228  0.00  0.00    +0.106 C 
BRANCH  17  18
ATOM     18  N   LIG    1        4.383  -8.322  -2.328  0.00  0.00    -0.311 N 
ATOM     19  H   LIG    1        4.631  -7.583  -2.905  0.00  0.00    +0.149 HD
ATOM     20  C   LIG    1        4.907  -9.546  -2.538  0.00  0.00    +0.244 C 
ATOM     21  O   LIG    1        4.597 -10.472  -1.815  0.00  0.00    -0.270 OA
BRANCH  20  22
ATOM     22  C   LIG    1        5.859  -9.761  -3.647  0.00  0.00    +0.037 A 
ATOM     23  C   LIG    1        6.220  -8.684  -4.477  0.00  0.00    +0.013 A 
ATOM     24  C   LIG    1        7.092  -8.857  -5.502  0.00  0.00    +0.009 A 
ATOM     25  C   LIG    1        7.649 -10.126  -5.747  0.00  0.00    -0.018 A 
ATOM     26  C   LIG    1        8.554 -10.329  -6.801  0.00  0.00    +0.008 A 
ATOM     27  C   LIG    1        9.076 -11.569  -7.013  0.00  0.00    +0.001 A 
ATOM     28  C   LIG    1        8.727 -12.644  -6.198  0.00  0.00    +0.001 A 
ATOM     29  C   LIG    1        7.854 -12.486  -5.167  0.00  0.00    +0.008 A 
ATOM     30  C   LIG    1        7.294 -11.220  -4.917  0.00  0.00    -0.017 A 
ATOM     31  C   LIG    1        6.395 -11.021  -3.858  0.00  0.00    +0.021 A 
ENDBRANCH  20  22
ENDBRANCH  17  18
ENDBRANCH   1  17
TORSDOF 7
