REMARK  Name = ZINC12502898
REMARK                            x       y       z     vdW  Elec       q    Type
REMARK                         _______ _______ _______ _____ _____    ______ ____
ROOT
ATOM      1  C   LIG    1        1.145   3.085   0.008  0.00  0.00    +0.178 C 
ATOM      2  C   LIG    1        2.528   3.727  -0.127  0.00  0.00    +0.177 C 
ATOM      3  C   LIG    1        2.386   5.251  -0.066  0.00  0.00    +0.179 C 
ATOM      4  C   LIG    1        1.701   5.636   1.250  0.00  0.00    +0.205 C 
ATOM      5  C   LIG    1        0.364   4.908   1.351  0.00  0.00    +0.242 C 
ATOM      6  C   LIG    1       -0.324   5.250   2.652  0.00  0.00    +0.272 C 
ATOM      7  N   LIG    1       -1.482   5.848   2.302  0.00  0.00    -0.264 N 
ATOM      8  H   LIG    1       -2.138   6.180   2.935  0.00  0.00    +0.157 HD
ATOM      9  C   LIG    1       -1.613   5.927   0.972  0.00  0.00    +0.139 C 
ATOM     10  S   LIG    1       -2.964   6.628   0.188  0.00  0.00    -0.018 S 
ATOM     11  O   LIG    1        0.079   5.033   3.775  0.00  0.00    -0.270 OA
ATOM     12  N   LIG    1       -0.562   5.393   0.320  0.00  0.00    -0.289 N 
ATOM     13  H   LIG    1       -0.442   5.339  -0.641  0.00  0.00    +0.151 HD
ATOM     14  O   LIG    1        0.546   3.501   1.238  0.00  0.00    -0.338 OA
ENDROOT
BRANCH   2  15
ATOM     15  O   LIG    1        3.109   3.352  -1.377  0.00  0.00    -0.386 OA
ATOM     16  H   LIG    1        3.226   2.398  -1.486  0.00  0.00    +0.210 HD
ENDBRANCH   2  15
BRANCH   3  17
ATOM     17  O   LIG    1        3.679   5.855  -0.127  0.00  0.00    -0.386 OA
ATOM     18  H   LIG    1        4.170   5.654  -0.935  0.00  0.00    +0.210 HD
ENDBRANCH   3  17
BRANCH   4  19
ATOM     19  O   LIG    1        2.533   5.260   2.349  0.00  0.00    -0.384 OA
ATOM     20  H   LIG    1        3.401   5.686   2.349  0.00  0.00    +0.210 HD
ENDBRANCH   4  19
BRANCH   1  21
ATOM     21  C   LIG    1        1.286   1.562  -0.002  0.00  0.00    +0.190 C 
BRANCH  21  22
ATOM     22  O   LIG    1       -0.011   0.963   0.007  0.00  0.00    -0.392 OA
ATOM     23  H   LIG    1        0.002  -0.004   0.002  0.00  0.00    +0.210 HD
ENDBRANCH  21  22
ENDBRANCH   1  21
TORSDOF 5
