REMARK  Name = ZINC09635673
REMARK                            x       y       z     vdW  Elec       q    Type
REMARK                         _______ _______ _______ _____ _____    ______ ____
ROOT
ATOM      1  N   LIG    1       -4.404  -1.419   4.632  0.00  0.00    -0.327 N 
ATOM      2  C   LIG    1       -3.643  -1.768   3.425  0.00  0.00    +0.124 C 
ATOM      3  C   LIG    1       -2.260  -1.112   3.490  0.00  0.00    +0.127 C 
ATOM      4  N   LIG    1       -2.436   0.330   3.719  0.00  0.00    -0.294 N 
ATOM      5  C   LIG    1       -1.824   1.236   2.931  0.00  0.00    +0.249 C 
ATOM      6  O   LIG    1       -1.174   0.866   1.971  0.00  0.00    -0.270 OA
ATOM      7  C   LIG    1       -3.294   0.757   4.834  0.00  0.00    +0.127 C 
ATOM      8  C   LIG    1       -4.641   0.028   4.713  0.00  0.00    +0.124 C 
ENDROOT
BRANCH   1  12
ATOM      9  C   LIG    1       -7.992  -3.534   4.800  0.00  0.00    +0.120 A 
ATOM     10  C   LIG    1       -7.664  -2.643   5.812  0.00  0.00    +0.047 A 
ATOM     11  C   LIG    1       -6.476  -1.942   5.757  0.00  0.00    +0.027 A 
ATOM     12  C   LIG    1       -5.608  -2.129   4.689  0.00  0.00    +0.030 A 
ATOM     13  C   LIG    1       -5.939  -3.017   3.674  0.00  0.00    +0.027 A 
ATOM     14  C   LIG    1       -7.126  -3.722   3.733  0.00  0.00    +0.047 A 
BRANCH   9  16
ATOM     15  C   LIG    1       -9.436  -5.124   3.780  0.00  0.00    +0.277 C 
ATOM     16  O   LIG    1       -9.163  -4.223   4.855  0.00  0.00    -0.495 OA
ENDBRANCH   9  16
ENDBRANCH   1  12
BRANCH   5  17
ATOM     17  C   LIG    1       -1.941   2.674   3.232  0.00  0.00    +0.060 A 
ATOM     18  C   LIG    1       -3.201   3.271   3.332  0.00  0.00    +0.047 A 
ATOM     19  C   LIG    1       -3.304   4.616   3.607  0.00  0.00    +0.122 A 
ATOM     20  C   LIG    1       -2.164   5.383   3.791  0.00  0.00    +0.034 A 
ATOM     21  C   LIG    1       -0.913   4.808   3.701  0.00  0.00    +0.026 A 
ATOM     22  C   LIG    1       -0.789   3.452   3.423  0.00  0.00    +0.042 A 
BRANCH  22  23
ATOM     23  N   LIG    1        0.469   2.871   3.330  0.00  0.00    -0.325 N 
ATOM     24  C   LIG    1        1.522   3.896   3.307  0.00  0.00    +0.133 C 
ATOM     25  C   LIG    1        2.885   3.217   3.145  0.00  0.00    +0.178 C 
ATOM     26  O   LIG    1        3.070   2.273   4.203  0.00  0.00    -0.377 OA
ATOM     27  C   LIG    1        2.062   1.260   4.255  0.00  0.00    +0.178 C 
ATOM     28  C   LIG    1        0.692   1.919   4.429  0.00  0.00    +0.133 C 
ENDBRANCH  22  23
BRANCH  19  29
ATOM     29  N   LIG    1       -4.640   5.247   3.707  0.00  0.00    +0.006 N 
ATOM     30  O   LIG    1       -4.735   6.437   3.950  0.00  0.00    -0.130 OA
BRANCH  29  31
ATOM     31  O   LIG    1       -5.644   4.576   3.546  0.00  0.00    -0.396 OA
ATOM     32  H   LIG    1       -5.570   3.661   3.359  0.00  0.00    +0.329 HD
ENDBRANCH  29  31
ENDBRANCH  19  29
ENDBRANCH   5  17
TORSDOF 6
