REMARK  Name = ZINC11616926
REMARK                            x       y       z     vdW  Elec       q    Type
REMARK                         _______ _______ _______ _____ _____    ______ ____
ROOT
ATOM      1  C   UNK A  0       -0.733   1.960   1.269  0.00  0.00    +0.032 C 
ENDROOT
BRANCH   1   2
ATOM      2  C   UNK A  0        0.062   1.566   2.486  0.00  0.00    -0.043 A 
ATOM      3  C   UNK A  0        1.362   2.016   2.636  0.00  0.00    +0.004 A 
ATOM      4  C   UNK A  0        2.094   1.663   3.751  0.00  0.00    +0.013 A 
ATOM      5  C   UNK A  0        1.524   0.841   4.724  0.00  0.00    +0.037 A 
ATOM      6  C   UNK A  0        0.214   0.386   4.565  0.00  0.00    +0.013 A 
ATOM      7  C   UNK A  0       -0.509   0.751   3.448  0.00  0.00    +0.004 A 
BRANCH   5   8
ATOM      8  C   UNK A  0        2.304   0.454   5.919  0.00  0.00    +0.245 C 
ATOM      9  N   GLU A  1        3.568   0.895   6.069  0.00  0.00    -0.298 N 
ATOM     10  H   GLU A  1        3.967   1.466   5.394  0.00  0.00    +0.150 HD
ATOM     11  O   UNK A  0        1.805  -0.262   6.765  0.00  0.00    -0.270 OA
BRANCH   9  12
ATOM     12  CA  GLU A  1        4.342   0.512   7.253  0.00  0.00    +0.182 C 
BRANCH  12  13
ATOM     13  C   GLU A  1        4.990  -0.828   7.018  0.00  0.00    +0.325 C 
ATOM     14  O   GLU A  1        4.824  -1.403   5.968  0.00  0.00    -0.249 OA
BRANCH  13  15
ATOM     15  OXT GLU A  1        5.753  -1.382   7.973  0.00  0.00    -0.479 OA
ATOM     16  HXT GLU A  1        5.882  -0.935   8.787  0.00  0.00    +0.295 HD
ENDBRANCH  13  15
ENDBRANCH  12  13
BRANCH  12  17
ATOM     17  CB  GLU A  1        5.422   1.562   7.519  0.00  0.00    +0.045 C 
BRANCH  17  18
ATOM     18  CG  GLU A  1        4.761   2.894   7.881  0.00  0.00    +0.123 C 
BRANCH  18  19
ATOM     19  CD  GLU A  1        5.825   3.928   8.142  0.00  0.00    +0.305 C 
ATOM     20  OE1 GLU A  1        6.993   3.631   8.049  0.00  0.00    -0.251 OA
BRANCH  19  21
ATOM     21  OE2 GLU A  1        5.476   5.180   8.479  0.00  0.00    -0.481 OA
ATOM     22  HE2 GLU A  1        4.571   5.410   8.552  0.00  0.00    +0.295 HD
ENDBRANCH  19  21
ENDBRANCH  18  19
ENDBRANCH  17  18
ENDBRANCH  12  17
ENDBRANCH   9  12
ENDBRANCH   5   8
ENDBRANCH   1   2
BRANCH   1  23
ATOM     23  C   UNK A  0       -0.017   1.467   0.010  0.00  0.00    +0.096 C 
BRANCH  23  25
ATOM     24  C   UNK A  0        0.020  -1.178  -0.004  0.00  0.00    +0.004 C 
ATOM     25  C   UNK A  0        0.004  -0.005   0.002  0.00  0.00    -0.105 C 
ENDBRANCH  23  25
ENDBRANCH   1  23
BRANCH   1  26
ATOM     26  C   UNK A  0       -0.865   3.484   1.217  0.00  0.00    +0.029 C 
BRANCH  26  27
ATOM     27  C   UNK A  0       -1.762   3.872   0.070  0.00  0.00    +0.068 C 
ATOM     28  C   UNK A  0       -3.145   3.884   0.248  0.00  0.00    +0.101 C 
ATOM     29  N   UNK A  0       -3.949   4.224  -0.737  0.00  0.00    -0.298 NA
ATOM     30  H   UNK A  0       -4.488   5.028  -0.417  0.00  0.00    +0.123 HD
ATOM     31  C   UNK A  0       -3.433   4.551  -1.925  0.00  0.00    +0.144 C 
ATOM     32  C   UNK A  0       -2.027   4.532  -2.102  0.00  0.00    +0.117 C 
ATOM     33  C   UNK A  0       -1.499   4.897  -3.418  0.00  0.00    +0.141 C 
ATOM     34  N   UNK A  0       -2.370   5.223  -4.363  0.00  0.00    -0.273 NA
ATOM     35  C   UNK A  0       -3.678   5.220  -4.126  0.00  0.00    +0.194 C 
ATOM     36  H   UNK A  0       -2.026   5.475  -5.267  0.00  0.00    +0.126 HD
ATOM     37  N   UNK A  0       -4.281   4.901  -2.953  0.00  0.00    -0.272 NA
ATOM     38  H   UNK A  0       -4.825   5.708  -2.650  0.00  0.00    +0.126 HD
ATOM     39  N   UNK A  0       -1.233   4.189  -1.093  0.00  0.00    -0.304 NA
ATOM     40  H   UNK A  0       -0.691   3.383  -1.402  0.00  0.00    +0.123 HD
BRANCH  35  41
ATOM     41  N   UNK A  0       -4.530   5.570  -5.156  0.00  0.00    -0.303 NA
ATOM     42  H   UNK A  0       -4.169   5.810  -6.024  0.00  0.00    +0.121 HD
ATOM     43  H   UNK A  0       -5.489   5.576  -5.011  0.00  0.00    +0.121 HD
ENDBRANCH  35  41
BRANCH  33  44
ATOM     44  N   UNK A  0       -0.144   4.901  -3.666  0.00  0.00    -0.314 NA
ATOM     45  H   UNK A  0        0.188   5.145  -4.544  0.00  0.00    +0.120 HD
ATOM     46  H   UNK A  0        0.479   4.659  -2.962  0.00  0.00    +0.120 HD
ENDBRANCH  33  44
ENDBRANCH  26  27
ENDBRANCH   1  26
TORSDOF 15
