REMARK  Name = ZINC08855176
REMARK                            x       y       z     vdW  Elec       q    Type
REMARK                         _______ _______ _______ _____ _____    ______ ____
ROOT
ATOM      1  C   LIG    1        0.739  -2.004  -1.265  0.00  0.00    +0.089 A 
ATOM      2  C   LIG    1        1.746  -2.817  -0.700  0.00  0.00    +0.119 A 
ATOM      3  C   LIG    1        1.370  -4.153  -0.932  0.00  0.00    +0.148 A 
ATOM      4  N   LIG    1        0.181  -4.117  -1.610  0.00  0.00    -0.260 N 
ATOM      5  C   LIG    1       -0.587  -5.278  -2.065  0.00  0.00    +0.173 C 
ATOM      6  C   LIG    1        2.209  -5.174  -0.467  0.00  0.00    +0.242 A 
ATOM      7  N   LIG    1        3.321  -4.843   0.172  0.00  0.00    -0.191 NA
ATOM      8  C   LIG    1        3.645  -3.568   0.374  0.00  0.00    +0.168 A 
ATOM      9  N   LIG    1        2.887  -2.571  -0.047  0.00  0.00    -0.224 NA
ATOM     10  N   LIG    1       -0.173  -2.773  -1.790  0.00  0.00    -0.174 NA
ENDROOT
BRANCH   8  11
ATOM     11  C   LIG    1        4.901  -3.256   1.096  0.00  0.00    +0.061 A 
ATOM     12  C   LIG    1        5.265  -1.930   1.327  0.00  0.00    +0.015 A 
ATOM     13  C   LIG    1        6.435  -1.645   2.000  0.00  0.00    +0.001 A 
ATOM     14  C   LIG    1        7.251  -2.670   2.446  0.00  0.00    +0.004 A 
ATOM     15  C   LIG    1        6.901  -3.988   2.222  0.00  0.00    +0.046 A 
ATOM     16  C   LIG    1        5.725  -4.290   1.553  0.00  0.00    +0.131 A 
BRANCH  16  17
ATOM     17  O   LIG    1        5.376  -5.584   1.338  0.00  0.00    -0.492 OA
BRANCH  17  18
ATOM     18  C   LIG    1        6.266  -6.587   1.833  0.00  0.00    +0.226 C 
ATOM     19  C   LIG    1        5.711  -7.972   1.498  0.00  0.00    +0.048 C 
ENDBRANCH  17  18
ENDBRANCH  16  17
ENDBRANCH   8  11
BRANCH   6  20
ATOM     20  O   LIG    1        1.888  -6.476  -0.666  0.00  0.00    -0.491 OA
ATOM     21  H   LIG    1        1.100  -6.700  -1.119  0.00  0.00    +0.294 HD
ENDBRANCH   6  20
BRANCH   1  22
ATOM     22  C   LIG    1        0.718  -0.497  -1.257  0.00  0.00    +0.059 C 
BRANCH  22  24
ATOM     23  C   LIG    1       -0.019   1.526   0.010  0.00  0.00    +0.004 C 
ATOM     24  C   LIG    1        0.002  -0.004   0.002  0.00  0.00    +0.003 C 
ENDBRANCH  22  24
ENDBRANCH   1  22
TORSDOF 6
