REMARK  Name = ZINC12495255
REMARK                            x       y       z     vdW  Elec       q    Type
REMARK                         _______ _______ _______ _____ _____    ______ ____
ROOT
ATOM      1  C   LIG    1       -2.699  -4.055  -0.259  0.00  0.00    +0.004 C 
ATOM      2  C   LIG    1       -2.118  -4.792   0.950  0.00  0.00    +0.009 C 
ENDROOT
BRANCH   1   3
ATOM      3  C   LIG    1       -2.741  -2.554   0.032  0.00  0.00    +0.088 C 
BRANCH   3   7
ATOM      4  C   LIG    1        1.435  -1.237  -2.215  0.00  0.00    +0.039 C 
ATOM      5  C   LIG    1        0.747  -1.450  -0.865  0.00  0.00    +0.130 C 
ATOM      6  C   LIG    1       -0.692  -1.921  -1.094  0.00  0.00    +0.115 C 
ATOM      7  N   LIG    1       -1.373  -2.049   0.203  0.00  0.00    -0.297 NA
ATOM      8  C   LIG    1       -1.370  -0.767   0.922  0.00  0.00    +0.115 C 
ATOM      9  C   LIG    1        0.076  -0.308   1.131  0.00  0.00    +0.130 C 
ATOM     10  C   LIG    1        0.084   1.064   1.808  0.00  0.00    +0.039 C 
ATOM     11  O   LIG    1        0.731  -0.219  -0.137  0.00  0.00    -0.371 OA
ENDBRANCH   3   7
ENDBRANCH   1   3
BRANCH   1  12
ATOM     12  C   LIG    1       -4.116  -4.562  -0.532  0.00  0.00    +0.039 C 
BRANCH  12  13
ATOM     13  C   LIG    1       -4.062  -6.013  -0.938  0.00  0.00    -0.047 A 
ATOM     14  C   LIG    1       -3.926  -6.353  -2.271  0.00  0.00    +0.004 A 
ATOM     15  C   LIG    1       -3.876  -7.683  -2.643  0.00  0.00    +0.004 A 
ATOM     16  C   LIG    1       -3.961  -8.673  -1.682  0.00  0.00    -0.042 A 
ATOM     17  C   LIG    1       -4.096  -8.333  -0.349  0.00  0.00    +0.004 A 
ATOM     18  C   LIG    1       -4.142  -7.003   0.023  0.00  0.00    +0.004 A 
BRANCH  16  19
ATOM     19  C   LIG    1       -3.907 -10.123  -2.088  0.00  0.00    -0.013 C 
ATOM     20  C   LIG    1       -5.066 -10.430  -3.039  0.00  0.00    +0.015 C 
ATOM     21  C   LIG    1       -4.021 -11.006  -0.844  0.00  0.00    +0.015 C 
ATOM     22  C   LIG    1       -2.580 -10.407  -2.794  0.00  0.00    +0.015 C 
ENDBRANCH  16  19
ENDBRANCH  12  13
ENDBRANCH   1  12
TORSDOF 5
