REMARK  Name = ZINC12143560
REMARK                            x       y       z     vdW  Elec       q    Type
REMARK                         _______ _______ _______ _____ _____    ______ ____
ROOT
ATOM      1  N   LIG    1        4.211  -2.826  -4.180  0.00  0.00    -0.172 NA
ATOM      2  C   LIG    1        5.211  -1.789  -4.481  0.00  0.00    +0.137 C 
ATOM      3  C   LIG    1        6.389  -2.449  -5.207  0.00  0.00    +0.177 C 
ATOM      4  O   LIG    1        6.845  -3.567  -4.442  0.00  0.00    -0.372 OA
ATOM      5  C   LIG    1        5.874  -4.604  -4.285  0.00  0.00    +0.154 C 
ATOM      6  C   LIG    1        4.668  -4.053  -3.508  0.00  0.00    +0.143 C 
ENDROOT
BRANCH   1   7
ATOM      7  S   LIG    1        2.618  -2.616  -4.580  0.00  0.00    +0.061 S 
ATOM      8  O   LIG    1        2.587  -1.683  -5.651  0.00  0.00    -0.153 OA
ATOM      9  O   LIG    1        2.051  -3.915  -4.685  0.00  0.00    -0.153 OA
BRANCH   7  13
ATOM     10  C   LIG    1        0.606  -0.607  -1.056  0.00  0.00    +0.120 A 
ATOM     11  C   LIG    1        1.173   0.161  -2.062  0.00  0.00    +0.047 A 
ATOM     12  C   LIG    1        1.786  -0.455  -3.136  0.00  0.00    +0.032 A 
ATOM     13  C   LIG    1        1.835  -1.835  -3.209  0.00  0.00    +0.106 A 
ATOM     14  C   LIG    1        1.270  -2.602  -2.207  0.00  0.00    +0.032 A 
ATOM     15  C   LIG    1        0.661  -1.992  -1.128  0.00  0.00    +0.047 A 
BRANCH  10  17
ATOM     16  C   LIG    1       -0.017   1.425   0.010  0.00  0.00    +0.277 C 
ATOM     17  O   LIG    1        0.002  -0.004   0.002  0.00  0.00    -0.495 OA
ENDBRANCH  10  17
ENDBRANCH   7  13
ENDBRANCH   1   7
BRANCH   5  18
ATOM     18  C   LIG    1        6.491  -5.770  -3.510  0.00  0.00    +0.155 C 
BRANCH  18  19
ATOM     19  N   LIG    1        7.570  -6.367  -4.302  0.00  0.00    -0.334 N 
ATOM     20  C   LIG    1        7.445  -7.385  -5.208  0.00  0.00    +0.107 A 
ATOM     21  C   LIG    1        8.675  -7.619  -5.703  0.00  0.00    +0.130 A 
ATOM     22  N   LIG    1        9.528  -6.767  -5.115  0.00  0.00    -0.244 NA
ATOM     23  C   LIG    1        8.873  -6.011  -4.278  0.00  0.00    +0.199 A 
ENDBRANCH  18  19
ENDBRANCH   5  18
TORSDOF 5
