REMARK  Name = ZINC10461620
REMARK                            x       y       z     vdW  Elec       q    Type
REMARK                         _______ _______ _______ _____ _____    ______ ____
ROOT
ATOM      1  C   LIG    1        6.055  -0.703  -0.065  0.00  0.00    +0.034 A 
ATOM      2  C   LIG    1        6.173  -1.940  -0.692  0.00  0.00    +0.024 A 
ATOM      3  C   LIG    1        7.346  -2.654  -0.593  0.00  0.00    +0.015 A 
ATOM      4  C   LIG    1        8.414  -2.140   0.148  0.00  0.00    +0.037 A 
ATOM      5  C   LIG    1        8.290  -0.901   0.781  0.00  0.00    +0.015 A 
ATOM      6  C   LIG    1        7.116  -0.189   0.673  0.00  0.00    +0.024 A 
ENDROOT
BRANCH   4   7
ATOM      7  C   LIG    1        9.671  -2.906   0.261  0.00  0.00    +0.251 C 
ATOM      8  N   LIG    1        9.655  -4.248   0.144  0.00  0.00    -0.267 N 
ATOM      9  C   LIG    1        8.381  -4.975   0.053  0.00  0.00    +0.114 C 
ATOM     10  C   LIG    1        8.466  -6.194   0.975  0.00  0.00    +0.024 C 
ATOM     11  C   LIG    1        9.573  -7.121   0.472  0.00  0.00    +0.038 C 
ATOM     12  C   LIG    1       10.852  -6.352   0.270  0.00  0.00    -0.026 A 
ATOM     13  C   LIG    1       12.052  -7.043   0.239  0.00  0.00    +0.005 A 
ATOM     14  C   LIG    1       13.242  -6.367   0.051  0.00  0.00    +0.000 A 
ATOM     15  C   LIG    1       13.242  -4.994  -0.107  0.00  0.00    +0.002 A 
ATOM     16  C   LIG    1       12.051  -4.296  -0.077  0.00  0.00    +0.024 A 
ATOM     17  C   LIG    1       10.853  -4.974   0.114  0.00  0.00    +0.040 A 
ATOM     18  O   LIG    1       10.721  -2.325   0.459  0.00  0.00    -0.270 OA
ENDBRANCH   4   7
BRANCH   1  20
ATOM     19  C   LIG    1        4.139  -0.046  -1.304  0.00  0.00    +0.248 C 
ATOM     20  N   LIG    1        4.868   0.020  -0.173  0.00  0.00    -0.282 N 
ATOM     21  H   LIG    1        4.567   0.571   0.567  0.00  0.00    +0.155 HD
ATOM     22  O   LIG    1        4.563  -0.656  -2.266  0.00  0.00    -0.270 OA
BRANCH  19  26
ATOM     23  C   LIG    1        0.360   1.881  -1.510  0.00  0.00    +0.000 A 
ATOM     24  C   LIG    1        1.106   1.951  -0.347  0.00  0.00    +0.001 A 
ATOM     25  C   LIG    1        2.334   1.327  -0.273  0.00  0.00    +0.013 A 
ATOM     26  C   LIG    1        2.824   0.625  -1.376  0.00  0.00    +0.037 A 
ATOM     27  C   LIG    1        2.066   0.558  -2.546  0.00  0.00    +0.013 A 
ATOM     28  C   LIG    1        0.839   1.186  -2.606  0.00  0.00    +0.001 A 
ENDBRANCH  19  26
ENDBRANCH   1  20
TORSDOF 3
