REMARK  Name = ZINC09061791
REMARK                            x       y       z     vdW  Elec       q    Type
REMARK                         _______ _______ _______ _____ _____    ______ ____
ROOT
ATOM      1  N   LIG    1        1.018   3.612   2.929  0.00  0.00    -0.224 N 
ATOM      2  C   LIG    1        2.252   4.151   2.991  0.00  0.00    +0.314 C 
ATOM      3  N   LIG    1        3.239   3.668   2.210  0.00  0.00    -0.282 N 
ATOM      4  C   LIG    1        2.942   2.709   1.137  0.00  0.00    +0.128 C 
ATOM      5  C   LIG    1        3.489   3.275  -0.184  0.00  0.00    +0.128 C 
ATOM      6  N   LIG    1        4.882   3.694   0.026  0.00  0.00    -0.282 N 
ATOM      7  C   LIG    1        5.869   3.211  -0.755  0.00  0.00    +0.314 C 
ATOM      8  N   LIG    1        7.008   3.914  -0.913  0.00  0.00    -0.224 N 
ATOM      9  O   LIG    1        5.732   2.141  -1.316  0.00  0.00    -0.252 OA
ATOM     10  C   LIG    1        5.179   4.649   1.103  0.00  0.00    +0.128 C 
ATOM     11  C   LIG    1        4.632   4.087   2.421  0.00  0.00    +0.128 C 
ATOM     12  O   LIG    1        2.474   5.073   3.752  0.00  0.00    -0.252 OA
ENDROOT
BRANCH   1  16
ATOM     13  C   LIG    1        0.487  -0.197   1.322  0.00  0.00    +0.000 A 
ATOM     14  C   LIG    1        1.291  -0.023   2.434  0.00  0.00    +0.002 A 
ATOM     15  C   LIG    1        1.474   1.239   2.965  0.00  0.00    +0.024 A 
ATOM     16  C   LIG    1        0.841   2.332   2.389  0.00  0.00    +0.043 A 
ATOM     17  C   LIG    1        0.030   2.153   1.275  0.00  0.00    +0.024 A 
ATOM     18  C   LIG    1       -0.144   0.890   0.745  0.00  0.00    +0.002 A 
ENDBRANCH   1  16
BRANCH   8  19
ATOM     19  C   LIG    1        7.061   5.258  -0.523  0.00  0.00    +0.043 A 
ATOM     20  C   LIG    1        6.495   6.239  -1.327  0.00  0.00    +0.024 A 
ATOM     21  C   LIG    1        6.544   7.563  -0.937  0.00  0.00    +0.002 A 
ATOM     22  C   LIG    1        7.165   7.913   0.247  0.00  0.00    +0.000 A 
ATOM     23  C   LIG    1        7.735   6.940   1.047  0.00  0.00    +0.002 A 
ATOM     24  C   LIG    1        7.684   5.613   0.665  0.00  0.00    +0.024 A 
ENDBRANCH   8  19
BRANCH   8  25
ATOM     25  C   LIG    1        8.138   3.301  -1.468  0.00  0.00    +0.043 A 
ATOM     26  C   LIG    1        9.306   4.029  -1.651  0.00  0.00    +0.024 A 
ATOM     27  C   LIG    1       10.420   3.420  -2.193  0.00  0.00    +0.002 A 
ATOM     28  C   LIG    1       10.371   2.089  -2.563  0.00  0.00    +0.000 A 
ATOM     29  C   LIG    1        9.207   1.362  -2.388  0.00  0.00    +0.002 A 
ATOM     30  C   LIG    1        8.091   1.964  -1.842  0.00  0.00    +0.024 A 
ENDBRANCH   8  25
BRANCH   1  31
ATOM     31  C   LIG    1       -0.085   4.331   3.404  0.00  0.00    +0.043 A 
ATOM     32  C   LIG    1       -1.325   3.715   3.506  0.00  0.00    +0.024 A 
ATOM     33  C   LIG    1       -2.411   4.425   3.980  0.00  0.00    +0.002 A 
ATOM     34  C   LIG    1       -2.265   5.752   4.344  0.00  0.00    +0.000 A 
ATOM     35  C   LIG    1       -1.033   6.370   4.238  0.00  0.00    +0.002 A 
ATOM     36  C   LIG    1        0.058   5.663   3.769  0.00  0.00    +0.024 A 
ENDBRANCH   1  31
TORSDOF 4
