REMARK  Name = ZINC12504088
REMARK                            x       y       z     vdW  Elec       q    Type
REMARK                         _______ _______ _______ _____ _____    ______ ____
ROOT
ATOM      1  C   LIG    1        2.153  -0.700   0.949  0.00  0.00    +0.111 A 
ATOM      2  C   LIG    1        2.900  -1.142   1.984  0.00  0.00    +0.098 A 
ATOM      3 BR   LIG    1        4.755  -1.436   1.770  0.00  0.00    -0.043 Br
ATOM      4  C   LIG    1        2.273  -1.387   3.231  0.00  0.00    +0.268 A 
ATOM      5  N   LIG    1        0.949  -1.169   3.359  0.00  0.00    -0.274 N 
ATOM      6  C   LIG    1        0.229  -0.724   2.313  0.00  0.00    +0.329 A 
ATOM      7  O   LIG    1       -0.965  -0.533   2.444  0.00  0.00    -0.246 OA
ATOM      8  H   LIG    1        0.499  -1.339   4.236  0.00  0.00    +0.173 HD
ATOM      9  O   LIG    1        2.925  -1.790   4.177  0.00  0.00    -0.267 OA
ATOM     10  N   LIG    1        0.812  -0.488   1.123  0.00  0.00    -0.300 N 
ENDROOT
BRANCH  10  11
ATOM     11  C   LIG    1        0.002  -0.004   0.002  0.00  0.00    +0.121 C 
BRANCH  11  12
ATOM     12  CA  LIG    1       -0.019   1.526   0.010  0.00  0.00    +0.056 C 
BRANCH  12  13
ATOM     13  N   LIG    1        1.355   2.059  -0.001  0.00  0.00    +0.388 N 
ATOM     14  H1  LIG    1        1.319   3.085  -0.029  0.00  0.00    -0.089 HD
ATOM     15  H2  LIG    1        1.854   1.722  -0.822  0.00  0.00    -0.089 HD
ATOM     16  H3  LIG    1        1.850   1.767   0.840  0.00  0.00    -0.089 HD
ENDBRANCH  12  13
BRANCH  12  17
ATOM     17  C   LIG    1       -0.748   2.025  -1.210  0.00  0.00    +0.292 C 
ATOM     18  O   LIG    1       -0.124   2.411  -2.171  0.00  0.00    -0.253 OA
BRANCH  17  19
ATOM     19  OXT LIG    1       -2.090   2.040  -1.231  0.00  0.00    -0.482 OA
ATOM     20  HXT LIG    1       -2.573   1.741  -0.487  0.00  0.00    +0.295 HD
ENDBRANCH  17  19
ENDBRANCH  12  17
ENDBRANCH  11  12
ENDBRANCH  10  11
TORSDOF 5
