REMARK  Name = ZINC09521630
REMARK                            x       y       z     vdW  Elec       q    Type
REMARK                         _______ _______ _______ _____ _____    ______ ____
ROOT
ATOM      1  C   LIG    1        1.715  -2.638  -0.028  0.00  0.00    +0.222 C 
ATOM      2  N   LIG    1        2.397  -1.476  -0.028  0.00  0.00    -0.279 N 
ATOM      3  H   LIG    1        3.367  -1.483  -0.037  0.00  0.00    +0.155 HD
ATOM      4  O   LIG    1        0.502  -2.629  -0.016  0.00  0.00    -0.275 OA
ENDROOT
BRANCH   2   5
ATOM      5  C   LIG    1        1.713  -0.270  -0.016  0.00  0.00    +0.084 A 
ATOM      6  C   LIG    1        2.234   1.018  -0.014  0.00  0.00    +0.065 A 
ATOM      7  C   LIG    1        1.283   2.104   0.001  0.00  0.00    +0.022 A 
ATOM      8  C   LIG    1       -0.022   1.776   0.012  0.00  0.00    +0.048 A 
ATOM      9  S   LIG    1        0.002  -0.004   0.002  0.00  0.00    -0.081 S 
BRANCH   6  10
ATOM     10  C   LIG    1        3.680   1.263  -0.027  0.00  0.00    +0.244 C 
ATOM     11  N   LIG    1        4.149   2.527  -0.024  0.00  0.00    -0.325 N 
ATOM     12  H   LIG    1        5.106   2.689  -0.033  0.00  0.00    +0.145 HD
ATOM     13  H   LIG    1        3.531   3.274  -0.014  0.00  0.00    +0.145 HD
ATOM     14  O   LIG    1        4.456   0.326  -0.040  0.00  0.00    -0.270 OA
ENDBRANCH   6  10
ENDBRANCH   2   5
BRANCH   1  15
ATOM     15  C   LIG    1        2.458  -3.949  -0.041  0.00  0.00    +0.131 C 
BRANCH  15  24
ATOM     16  C   LIG    1        1.034  -5.617   1.162  0.00  0.00    +0.008 A 
ATOM     17  C   LIG    1        0.124  -6.658   1.170  0.00  0.00    +0.050 A 
ATOM     18  C   LIG    1       -0.344  -7.179  -0.025  0.00  0.00    +0.166 A 
ATOM     19  C   LIG    1        0.100  -6.648  -1.234  0.00  0.00    +0.166 A 
ATOM     20  O   LIG    1       -0.501  -7.326  -2.255  0.00  0.00    -0.453 OA
ATOM     21  C   LIG    1       -1.002  -8.542  -1.667  0.00  0.00    +0.466 C 
ATOM     22  C   LIG    1        1.007  -5.602  -1.234  0.00  0.00    +0.053 A 
ATOM     23  O   LIG    1       -1.224  -8.190  -0.289  0.00  0.00    -0.453 OA
ATOM     24  C   LIG    1        1.470  -5.087  -0.037  0.00  0.00    -0.035 A 
ENDBRANCH  15  24
ENDBRANCH   1  15
TORSDOF 4
