REMARK  Name = ZINC12652747
REMARK                            x       y       z     vdW  Elec       q    Type
REMARK                         _______ _______ _______ _____ _____    ______ ____
ROOT
ATOM      1  C   LIG    1       -5.919   4.143   2.249  0.00  0.00    +0.064 C 
ATOM      2  C   LIG    1       -5.637   4.941   1.002  0.00  0.00    +0.034 A 
ATOM      3  C   LIG    1       -4.443   4.786   0.346  0.00  0.00    +0.085 A 
ATOM      4  C   LIG    1       -4.186   5.572  -0.870  0.00  0.00    +0.075 A 
ATOM      5  N   LIG    1       -2.930   5.224  -1.304  0.00  0.00    -0.289 N 
ATOM      6  N   LIG    1       -2.381   4.264  -0.450  0.00  0.00    -0.217 N 
ATOM      7  H   LIG    1       -2.491   5.589  -2.088  0.00  0.00    +0.187 HD
ATOM      8  C   LIG    1       -5.163   6.440  -1.305  0.00  0.00    +0.098 A 
ATOM      9  C   LIG    1       -6.355   6.537  -0.576  0.00  0.00    +0.254 A 
ATOM     10  O   LIG    1       -7.226   7.303  -0.954  0.00  0.00    -0.268 OA
ATOM     11  C   LIG    1       -3.237   3.970   0.549  0.00  0.00    +0.281 A 
ATOM     12  O   LIG    1       -3.047   3.178   1.452  0.00  0.00    -0.265 OA
ATOM     13  N   LIG    1       -6.560   5.804   0.531  0.00  0.00    -0.306 N 
ENDROOT
BRANCH   6  14
ATOM     14  C   LIG    1       -1.115   3.690  -0.607  0.00  0.00    +0.085 A 
ATOM     15  C   LIG    1       -0.980   2.309  -0.671  0.00  0.00    +0.029 A 
ATOM     16  C   LIG    1        0.272   1.746  -0.820  0.00  0.00    +0.002 A 
ATOM     17  C   LIG    1        1.390   2.554  -0.918  0.00  0.00    +0.002 A 
ATOM     18  C   LIG    1        1.259   3.930  -0.861  0.00  0.00    +0.022 A 
ATOM     19  C   LIG    1        0.009   4.500  -0.705  0.00  0.00    +0.066 A 
ATOM     20 CL   LIG    1       -0.155   6.227  -0.634  0.00  0.00    -0.081 Cl
ENDBRANCH   6  14
BRANCH  13  21
ATOM     21  C   LIG    1       -7.827   5.949   1.252  0.00  0.00    +0.180 C 
BRANCH  21  22
ATOM     22  C   LIG    1       -7.660   6.949   2.367  0.00  0.00    +0.061 A 
ATOM     23  C   LIG    1       -8.001   8.271   2.155  0.00  0.00    +0.025 A 
ATOM     24  C   LIG    1       -7.844   9.183   3.188  0.00  0.00    +0.003 A 
ATOM     25  C   LIG    1       -7.347   8.728   4.400  0.00  0.00    +0.020 A 
ATOM     26  C   LIG    1       -7.028   7.391   4.538  0.00  0.00    +0.111 A 
ATOM     27  N   LIG    1       -7.195   6.551   3.535  0.00  0.00    -0.258 NA
ENDBRANCH  21  22
ENDBRANCH  13  21
TORSDOF 3
