REMARK  Name = ZINC11680893
REMARK                            x       y       z     vdW  Elec       q    Type
REMARK                         _______ _______ _______ _____ _____    ______ ____
ROOT
ATOM      1  C   LIG    1        1.151   3.592   0.010  0.00  0.00    +0.031 C 
ATOM      2  C   LIG    1        1.888   4.112   1.249  0.00  0.00    +0.014 C 
ATOM      3  C   LIG    1        1.647   5.616   1.358  0.00  0.00    +0.036 C 
ATOM      4  C   LIG    1        1.960   6.299   0.052  0.00  0.00    -0.040 A 
ATOM      5  C   LIG    1        2.152   7.674   0.073  0.00  0.00    +0.049 A 
ATOM      6  C   LIG    1        2.430   8.362  -1.096  0.00  0.00    +0.117 A 
ATOM      7  C   LIG    1        2.517   7.671  -2.296  0.00  0.00    +0.046 A 
ATOM      8  C   LIG    1        2.329   6.305  -2.312  0.00  0.00    +0.008 A 
ATOM      9  C   LIG    1        2.051   5.615  -1.139  0.00  0.00    -0.036 A 
ATOM     10  C   LIG    1        1.862   4.123  -1.233  0.00  0.00    +0.057 C 
ENDROOT
BRANCH   1  14
ATOM     11  C   LIG    1        1.208  -0.679  -0.013  0.00  0.00    +0.000 A 
ATOM     12  C   LIG    1        0.002  -0.004   0.002  0.00  0.00    +0.000 A 
ATOM     13  C   LIG    1       -0.017   1.378   0.010  0.00  0.00    +0.004 A 
ATOM     14  C   LIG    1        1.171   2.086   0.002  0.00  0.00    -0.043 A 
ATOM     15  C   LIG    1        2.377   1.411  -0.015  0.00  0.00    +0.004 A 
ATOM     16  C   LIG    1        2.396   0.029  -0.022  0.00  0.00    +0.000 A 
ENDBRANCH   1  14
BRANCH  10  17
ATOM     17  C   LIG    1        1.037   3.802  -2.453  0.00  0.00    -0.039 A 
ATOM     18  C   LIG    1       -0.252   4.290  -2.562  0.00  0.00    +0.008 A 
ATOM     19  C   LIG    1       -1.008   4.002  -3.681  0.00  0.00    +0.046 A 
ATOM     20  C   LIG    1       -0.477   3.214  -4.692  0.00  0.00    +0.120 A 
ATOM     21  C   LIG    1        0.815   2.721  -4.577  0.00  0.00    +0.046 A 
ATOM     22  C   LIG    1        1.569   3.016  -3.458  0.00  0.00    +0.008 A 
BRANCH  20  23
ATOM     23  O   LIG    1       -1.221   2.925  -5.792  0.00  0.00    -0.494 OA
BRANCH  23  24
ATOM     24  C   LIG    1       -2.543   3.466  -5.842  0.00  0.00    +0.210 C 
BRANCH  24  25
ATOM     25  C   LIG    1       -3.221   3.037  -7.144  0.00  0.00    -0.037 C 
BRANCH  25  26
ATOM     26  N   LIG    1       -3.413   1.556  -7.147  0.00  0.00    +0.382 N 
ATOM     27  H   LIG    1       -2.497   1.097  -7.219  0.00  0.00    -0.082 HD
ATOM     28  C   LIG    1       -4.257   1.151  -8.272  0.00  0.00    -0.079 C 
ATOM     29  C   LIG    1       -5.073  -0.060  -7.782  0.00  0.00    -0.020 C 
ATOM     30  C   LIG    1       -4.645  -0.266  -6.311  0.00  0.00    -0.020 C 
ATOM     31  C   LIG    1       -4.089   1.124  -5.913  0.00  0.00    -0.079 C 
ENDBRANCH  25  26
ENDBRANCH  24  25
ENDBRANCH  23  24
ENDBRANCH  20  23
ENDBRANCH  10  17
BRANCH   6  32
ATOM     32  O   LIG    1        2.617   9.708  -1.068  0.00  0.00    -0.507 OA
ATOM     33  H   LIG    1        1.807  10.220  -1.194  0.00  0.00    +0.292 HD
ENDBRANCH   6  32
TORSDOF 7
