REMARK  Name = ZINC12403124
REMARK                            x       y       z     vdW  Elec       q    Type
REMARK                         _______ _______ _______ _____ _____    ______ ____
ROOT
ATOM      1  C   LIG    1       -0.017   1.367   0.010  0.00  0.00    +0.010 A 
ATOM      2  C   LIG    1        1.183   2.082   0.002  0.00  0.00    -0.018 A 
ATOM      3  C   LIG    1        2.402   1.403  -0.014  0.00  0.00    +0.010 A 
ATOM      4  C   LIG    1        2.424   0.032  -0.021  0.00  0.00    +0.030 A 
ATOM      5  C   LIG    1        1.223  -0.686  -0.013  0.00  0.00    +0.086 A 
ATOM      6  C   LIG    1        0.002  -0.004   0.002  0.00  0.00    +0.030 A 
ENDROOT
BRANCH   2   7
ATOM      7  C   LIG    1        1.161   3.563   0.010  0.00  0.00    -0.018 A 
ATOM      8  C   LIG    1       -0.059   4.242   0.031  0.00  0.00    +0.010 A 
ATOM      9  C   LIG    1       -0.081   5.613   0.038  0.00  0.00    +0.030 A 
ATOM     10  C   LIG    1        1.120   6.331   0.025  0.00  0.00    +0.086 A 
ATOM     11  C   LIG    1        2.341   5.649   0.004  0.00  0.00    +0.030 A 
ATOM     12  C   LIG    1        2.360   4.278   0.002  0.00  0.00    +0.010 A 
BRANCH  10  13
ATOM     13  N   LIG    1        1.100   7.696   0.031  0.00  0.00    -0.149 NA
ATOM     14  N   LIG    1        2.207   8.358   0.019  0.00  0.00    -0.149 NA
BRANCH  14  15
ATOM     15  C   LIG    1        2.187   9.723   0.026  0.00  0.00    +0.087 A 
ATOM     16  C   LIG    1        3.384  10.438   0.006  0.00  0.00    +0.048 A 
ATOM     17  C   LIG    1        3.357  11.832   0.013  0.00  0.00    +0.102 A 
ATOM     18  C   LIG    1        2.123  12.505   0.038  0.00  0.00    +0.131 A 
ATOM     19  C   LIG    1        0.938  11.782   0.057  0.00  0.00    +0.048 A 
ATOM     20  C   LIG    1        0.964  10.405   0.046  0.00  0.00    +0.033 A 
BRANCH  17  21
ATOM     21  C   LIG    1        4.615  12.596  -0.007  0.00  0.00    +0.340 C 
ATOM     22  O   LIG    1        5.687  12.008  -0.029  0.00  0.00    -0.245 OA
BRANCH  21  23
ATOM     23  O   LIG    1        4.588  13.819  -0.001  0.00  0.00    -0.477 OA
ATOM     24  H   LIG    1        3.767  14.270   0.016  0.00  0.00    +0.295 HD
ENDBRANCH  21  23
ENDBRANCH  17  21
BRANCH  18  25
ATOM     25  O   LIG    1        2.091  13.860   0.045  0.00  0.00    -0.506 OA
ATOM     26  H   LIG    1        2.065  14.257  -0.836  0.00  0.00    +0.292 HD
ENDBRANCH  18  25
ENDBRANCH  14  15
ENDBRANCH  10  13
ENDBRANCH   2   7
BRANCH   5  27
ATOM     27  N   LIG    1        1.244  -2.051  -0.021  0.00  0.00    -0.149 NA
ATOM     28  N   LIG    1        0.136  -2.713  -0.014  0.00  0.00    -0.149 NA
BRANCH  28  29
ATOM     29  C   LIG    1        0.156  -4.078  -0.022  0.00  0.00    +0.087 A 
ATOM     30  C   LIG    1       -1.041  -4.793  -0.019  0.00  0.00    +0.048 A 
ATOM     31  C   LIG    1       -1.014  -6.187  -0.028  0.00  0.00    +0.102 A 
ATOM     32  C   LIG    1        0.220  -6.860  -0.039  0.00  0.00    +0.131 A 
ATOM     33  C   LIG    1        1.406  -6.137  -0.041  0.00  0.00    +0.048 A 
ATOM     34  C   LIG    1        1.379  -4.761  -0.038  0.00  0.00    +0.033 A 
BRANCH  31  35
ATOM     35  C   LIG    1       -2.272  -6.951  -0.025  0.00  0.00    +0.340 C 
ATOM     36  O   LIG    1       -3.345  -6.363  -0.015  0.00  0.00    -0.245 OA
BRANCH  35  37
ATOM     37  O   LIG    1       -2.245  -8.174  -0.033  0.00  0.00    -0.477 OA
ATOM     38  H   LIG    1       -1.424  -8.625  -0.040  0.00  0.00    +0.295 HD
ENDBRANCH  35  37
ENDBRANCH  31  35
BRANCH  32  39
ATOM     39  O   LIG    1        0.253  -8.215  -0.047  0.00  0.00    -0.506 OA
ATOM     40  H   LIG    1        0.257  -8.603  -0.932  0.00  0.00    +0.292 HD
ENDBRANCH  32  39
ENDBRANCH  28  29
ENDBRANCH   5  27
TORSDOF 11
