REMARK  Name = ZINC08793749
REMARK                            x       y       z     vdW  Elec       q    Type
REMARK                         _______ _______ _______ _____ _____    ______ ____
ROOT
ATOM      1  C   LIG    1       -0.013   1.086   0.008  0.00  0.00    +0.086 C 
ATOM      2  C   LIG    1       -0.742   1.585  -1.213  0.00  0.00    +0.107 A 
ATOM      3  N   LIG    1       -0.871   2.927  -1.383  0.00  0.00    -0.311 N 
ATOM      4  C   LIG    1       -1.512   3.426  -2.465  0.00  0.00    +0.259 A 
ATOM      5  O   LIG    1       -1.631   4.626  -2.632  0.00  0.00    -0.267 OA
ATOM      6  C   LIG    1       -2.065   2.462  -3.428  0.00  0.00    +0.065 A 
ATOM      7  C   LIG    1       -2.746   2.872  -4.573  0.00  0.00    +0.015 A 
ATOM      8  C   LIG    1       -3.243   1.925  -5.442  0.00  0.00    +0.001 A 
ATOM      9  C   LIG    1       -3.070   0.571  -5.187  0.00  0.00    +0.002 A 
ATOM     10  C   LIG    1       -2.399   0.146  -4.062  0.00  0.00    +0.028 A 
ATOM     11  C   LIG    1       -1.886   1.086  -3.166  0.00  0.00    +0.078 A 
ATOM     12  H   LIG    1       -0.496   3.533  -0.724  0.00  0.00    +0.170 HD
ATOM     13  N   LIG    1       -1.218   0.711  -2.046  0.00  0.00    -0.234 NA
ENDROOT
TORSDOF 0
