REMARK  Name = ZINC11678458
REMARK                            x       y       z     vdW  Elec       q    Type
REMARK                         _______ _______ _______ _____ _____    ______ ____
ROOT
ATOM      1  C   LIG    1       -0.727   6.149  -1.260  0.00  0.00    +0.279 C 
ATOM      2  C   LIG    1       -0.074   5.628   0.032  0.00  0.00    +0.131 C 
ATOM      3  S   LIG    1       -1.078   6.227   1.432  0.00  0.00    -0.111 S 
ATOM      4  C   LIG    1       -1.464   7.885   0.972  0.00  0.00    +0.031 A 
ATOM      5  C   LIG    1       -0.864   8.954   1.616  0.00  0.00    +0.036 A 
ATOM      6  C   LIG    1       -1.185  10.248   1.240  0.00  0.00    +0.042 A 
ATOM      7 CL   LIG    1       -0.437  11.593   2.043  0.00  0.00    -0.084 Cl
ATOM      8  C   LIG    1       -2.099  10.472   0.225  0.00  0.00    +0.022 A 
ATOM      9  C   LIG    1       -2.700   9.406  -0.422  0.00  0.00    +0.026 A 
ATOM     10  C   LIG    1       -2.384   8.110  -0.051  0.00  0.00    +0.050 A 
ATOM     11  N   LIG    1       -2.978   7.015  -0.697  0.00  0.00    -0.269 N 
ATOM     12  C   LIG    1       -2.221   6.022  -1.179  0.00  0.00    +0.262 C 
ATOM     13  O   LIG    1       -2.752   4.999  -1.557  0.00  0.00    -0.271 OA
ENDROOT
BRANCH   2  14
ATOM     14  C   LIG    1       -0.054   4.121   0.024  0.00  0.00    -0.030 A 
ATOM     15  C   LIG    1       -1.233   3.414   0.173  0.00  0.00    +0.008 A 
ATOM     16  C   LIG    1       -1.217   2.033   0.166  0.00  0.00    +0.046 A 
ATOM     17  C   LIG    1       -0.017   1.355   0.008  0.00  0.00    +0.120 A 
ATOM     18  C   LIG    1        1.166   2.067  -0.137  0.00  0.00    +0.046 A 
ATOM     19  C   LIG    1        1.143   3.448  -0.134  0.00  0.00    +0.008 A 
BRANCH  17  20
ATOM     20  O   LIG    1        0.002  -0.004   0.000  0.00  0.00    -0.495 OA
ATOM     21  C   LIG    1        1.273  -0.635  -0.167  0.00  0.00    +0.277 C 
ENDBRANCH  17  20
ENDBRANCH   2  14
BRANCH   1  22
ATOM     22  O   LIG    1       -0.374   7.545  -1.446  0.00  0.00    -0.451 OA
BRANCH  22  24
ATOM     23  C   LIG    1        0.065   9.427  -2.982  0.00  0.00    +0.136 C 
ATOM     24  C   LIG    1       -0.296   7.990  -2.711  0.00  0.00    +0.305 C 
ATOM     25  O   LIG    1       -0.516   7.238  -3.630  0.00  0.00    -0.251 OA
ENDBRANCH  22  24
ENDBRANCH   1  22
BRANCH  11  26
ATOM     26  C   LIG    1       -4.435   6.959  -0.845  0.00  0.00    +0.095 C 
BRANCH  26  27
ATOM     27  C   LIG    1       -4.840   7.630  -2.159  0.00  0.00    -0.060 C 
BRANCH  27  28
ATOM     28  N   LIG    1       -6.312   7.584  -2.284  0.00  0.00    +0.377 N 
ATOM     29  H   LIG    1       -6.731   7.960  -1.425  0.00  0.00    -0.083 HD
ATOM     30  C   LIG    1       -6.761   6.188  -2.466  0.00  0.00    -0.097 C 
ATOM     31  C   LIG    1       -6.748   8.408  -3.431  0.00  0.00    -0.097 C 
ENDBRANCH  27  28
ENDBRANCH  26  27
ENDBRANCH  11  26
TORSDOF 7
