REMARK  Name = ZINC12405693
REMARK                            x       y       z     vdW  Elec       q    Type
REMARK                         _______ _______ _______ _____ _____    ______ ____
ROOT
ATOM      1  N   LIG    1        1.369   4.327   0.010  0.00  0.00    -0.278 N 
ATOM      2  C   LIG    1        0.676   3.127   0.012  0.00  0.00    +0.145 A 
ATOM      3  N   LIG    1        1.049   1.843   0.002  0.00  0.00    -0.332 N 
ATOM      4  H   LIG    1        2.020   1.509  -0.009  0.00  0.00    +0.168 HD
ATOM      5  C   LIG    1       -0.013   1.076   0.008  0.00  0.00    +0.173 A 
ATOM      6  N   LIG    1       -1.125   1.836   0.017  0.00  0.00    -0.340 N 
ATOM      7  H   LIG    1       -2.070   1.509   0.018  0.00  0.00    +0.167 HD
ATOM      8  C   LIG    1       -0.712   3.154   0.025  0.00  0.00    +0.147 A 
ATOM      9  C   LIG    1       -1.376   4.400   0.036  0.00  0.00    +0.282 A 
ATOM     10  N   LIG    1       -0.646   5.535   0.034  0.00  0.00    -0.259 N 
ATOM     11  O   LIG    1       -2.593   4.450   0.048  0.00  0.00    -0.265 OA
ATOM     12  C   LIG    1        0.697   5.494   0.021  0.00  0.00    +0.334 A 
ATOM     13  O   LIG    1        1.322   6.537   0.021  0.00  0.00    -0.246 OA
ENDROOT
BRANCH   1  14
ATOM     14  C   LIG    1        2.834   4.326  -0.004  0.00  0.00    +0.128 C 
BRANCH  14  15
ATOM     15  C   LIG    1        3.330   4.332  -1.451  0.00  0.00    +0.021 C 
BRANCH  15  17
ATOM     16  C   LIG    1        5.356   4.338  -2.913  0.00  0.00    +0.004 C 
ATOM     17  C   LIG    1        4.860   4.331  -1.465  0.00  0.00    -0.002 C 
ENDBRANCH  15  17
ENDBRANCH  14  15
ENDBRANCH   1  14
BRANCH  10  18
ATOM     18  C   LIG    1       -1.328   6.831   0.046  0.00  0.00    +0.130 C 
BRANCH  18  19
ATOM     19  C   LIG    1       -1.579   7.289  -1.392  0.00  0.00    +0.022 C 
BRANCH  19  20
ATOM     20  C   LIG    1       -2.291   8.643  -1.380  0.00  0.00    -0.002 C 
ATOM     21  C   LIG    1       -2.542   9.100  -2.818  0.00  0.00    +0.004 C 
ENDBRANCH  19  20
ENDBRANCH  18  19
ENDBRANCH  10  18
TORSDOF 6
