REMARK  Name = ZINC12365474
REMARK                            x       y       z     vdW  Elec       q    Type
REMARK                         _______ _______ _______ _____ _____    ______ ____
ROOT
ATOM      1  N   LIG    1       -6.905  -0.401  -1.220  0.00  0.00    -0.295 NA
ATOM      2  C   LIG    1       -5.889  -1.460  -1.259  0.00  0.00    +0.103 C 
ATOM      3  C   LIG    1       -4.948  -1.306  -0.059  0.00  0.00    +0.123 C 
ATOM      4  N   LIG    1       -4.417   0.066  -0.055  0.00  0.00    -0.295 N 
ATOM      5  C   LIG    1       -3.091   0.294   0.035  0.00  0.00    +0.247 C 
ATOM      6  O   LIG    1       -2.674   1.434   0.109  0.00  0.00    -0.270 OA
ATOM      7  C   LIG    1       -5.370   1.181  -0.147  0.00  0.00    +0.123 C 
ATOM      8  C   LIG    1       -6.294   0.929  -1.349  0.00  0.00    +0.103 C 
ENDROOT
BRANCH   5   9
ATOM      9  C   LIG    1       -2.148  -0.838   0.044  0.00  0.00    +0.046 A 
ATOM     10  C   LIG    1       -2.315  -1.887   0.945  0.00  0.00    +0.014 A 
ATOM     11  C   LIG    1       -1.428  -2.948   0.951  0.00  0.00    +0.003 A 
ATOM     12  C   LIG    1       -0.367  -2.988   0.069  0.00  0.00    +0.026 A 
ATOM     13  C   LIG    1       -0.172  -1.957  -0.842  0.00  0.00    +0.047 A 
ATOM     14  N   LIG    1        0.770  -1.722  -1.819  0.00  0.00    -0.361 N 
ATOM     15  H   LIG    1        1.579  -2.447  -1.988  0.00  0.00    +0.165 HD
ATOM     16  C   LIG    1        0.504  -0.538  -2.445  0.00  0.00    +0.083 A 
ATOM     17  C   LIG    1       -0.594   0.026  -1.910  0.00  0.00    +0.028 A 
ATOM     18  C   LIG    1       -1.062  -0.867  -0.855  0.00  0.00    +0.012 A 
ENDBRANCH   5   9
BRANCH   1  19
ATOM     19  C   LIG    1       -7.927  -0.613  -2.253  0.00  0.00    +0.119 C 
BRANCH  19  23
ATOM     20  C   LIG    1      -10.421   2.845  -2.522  0.00  0.00    +0.000 A 
ATOM     21  C   LIG    1       -9.283   2.751  -3.301  0.00  0.00    +0.000 A 
ATOM     22  C   LIG    1       -8.476   1.632  -3.214  0.00  0.00    +0.005 A 
ATOM     23  C   LIG    1       -8.807   0.607  -2.348  0.00  0.00    -0.033 A 
ATOM     24  C   LIG    1       -9.948   0.698  -1.573  0.00  0.00    +0.005 A 
ATOM     25  C   LIG    1      -10.752   1.819  -1.657  0.00  0.00    +0.000 A 
ENDBRANCH  19  23
ENDBRANCH   1  19
TORSDOF 3
