REMARK  Name = ZINC12358883
REMARK                            x       y       z     vdW  Elec       q    Type
REMARK                         _______ _______ _______ _____ _____    ______ ____
ROOT
ATOM      1  C   LIG    1        5.310  -1.600   1.465  0.00  0.00    +0.332 C 
ATOM      2  O   LIG    1        5.946  -1.957   0.492  0.00  0.00    -0.246 OA
ENDROOT
BRANCH   1   3
ATOM      3  C   LIG    1        5.812  -1.880   2.810  0.00  0.00    +0.092 C 
ATOM      4  C   LIG    1        6.981  -2.534   2.971  0.00  0.00    +0.015 C 
BRANCH   4   5
ATOM      5  C   LIG    1        7.486  -2.815   4.325  0.00  0.00    -0.025 A 
ATOM      6  C   LIG    1        6.754  -2.411   5.446  0.00  0.00    +0.008 A 
ATOM      7  C   LIG    1        7.234  -2.679   6.711  0.00  0.00    +0.001 A 
ATOM      8  C   LIG    1        8.437  -3.345   6.872  0.00  0.00    +0.000 A 
ATOM      9  C   LIG    1        9.167  -3.748   5.767  0.00  0.00    +0.001 A 
ATOM     10  C   LIG    1        8.698  -3.492   4.496  0.00  0.00    +0.008 A 
ENDBRANCH   4   5
ENDBRANCH   1   3
BRANCH   1  11
ATOM     11  O   LIG    1        4.141  -0.946   1.304  0.00  0.00    -0.457 OA
BRANCH  11  12
ATOM     12  C   LIG    1        3.711  -0.707  -0.038  0.00  0.00    +0.268 C 
BRANCH  12  16
ATOM     13  C   LIG    1       -0.017   1.378   0.010  0.00  0.00    +0.000 A 
ATOM     14  C   LIG    1        1.171   2.086   0.002  0.00  0.00    +0.000 A 
ATOM     15  C   LIG    1        2.377   1.411  -0.013  0.00  0.00    +0.007 A 
ATOM     16  C   LIG    1        2.396   0.029  -0.020  0.00  0.00    -0.010 A 
ATOM     17  C   LIG    1        1.208  -0.679  -0.012  0.00  0.00    +0.007 A 
ATOM     18  C   LIG    1        0.002  -0.004   0.002  0.00  0.00    +0.000 A 
ENDBRANCH  12  16
ENDBRANCH  11  12
ENDBRANCH   1  11
TORSDOF 5
