REMARK  Name = ZINC12878439
REMARK                            x       y       z     vdW  Elec       q    Type
REMARK                         _______ _______ _______ _____ _____    ______ ____
ROOT
ATOM      1  N   LIG    1       -0.801   1.635   5.973  0.00  0.00    -0.281 N 
ATOM      2  H   LIG    1       -1.554   2.246   5.950  0.00  0.00    +0.155 HD
ATOM      3  C   LIG    1       -0.330   1.190   7.154  0.00  0.00    +0.248 C 
ATOM      4  O   LIG    1        0.672   0.501   7.189  0.00  0.00    -0.270 OA
ENDROOT
BRANCH   1   9
ATOM      5  C   LIG    1        0.922  -0.473   3.497  0.00  0.00    +0.122 A 
ATOM      6  C   LIG    1        0.976   0.392   2.412  0.00  0.00    +0.046 A 
ATOM      7  C   LIG    1        0.442   1.662   2.512  0.00  0.00    +0.005 A 
ATOM      8  C   LIG    1       -0.147   2.076   3.691  0.00  0.00    +0.023 A 
ATOM      9  C   LIG    1       -0.204   1.216   4.779  0.00  0.00    +0.037 A 
ATOM     10  C   LIG    1        0.327  -0.063   4.679  0.00  0.00    +0.069 A 
BRANCH   5  12
ATOM     11  C   LIG    1        2.040  -2.079   2.147  0.00  0.00    +0.277 C 
ATOM     12  O   LIG    1        1.447  -1.722   3.397  0.00  0.00    -0.495 OA
ENDBRANCH   5  12
ENDBRANCH   1   9
BRANCH   3  13
ATOM     13  C   LIG    1       -1.031   1.538   8.408  0.00  0.00    +0.039 A 
ATOM     14  C   LIG    1       -2.181   2.328   8.371  0.00  0.00    +0.013 A 
ATOM     15  C   LIG    1       -2.831   2.650   9.545  0.00  0.00    +0.003 A 
ATOM     16  C   LIG    1       -2.345   2.191  10.757  0.00  0.00    +0.027 A 
ATOM     17  C   LIG    1       -1.205   1.407  10.800  0.00  0.00    +0.089 A 
ATOM     18  C   LIG    1       -0.549   1.074   9.633  0.00  0.00    +0.040 A 
BRANCH  17  19
ATOM     19  S   LIG    1       -0.595   0.828  12.348  0.00  0.00    -0.006 S 
ATOM     20  C   LIG    1       -1.419  -0.768  12.606  0.00  0.00    +0.200 C 
ATOM     21  O   LIG    1       -1.058   1.777  13.299  0.00  0.00    -0.170 OA
ATOM     22  O   LIG    1        0.797   0.631  12.139  0.00  0.00    -0.170 OA
ENDBRANCH  17  19
ENDBRANCH   3  13
TORSDOF 4
