REMARK  Name = ZINC11325690
REMARK                            x       y       z     vdW  Elec       q    Type
REMARK                         _______ _______ _______ _____ _____    ______ ____
ROOT
ATOM      1  C   LIG    1        6.367  -3.610  -0.383  0.00  0.00    +0.328 C 
ATOM      2  O   LIG    1        6.632  -2.602   0.229  0.00  0.00    -0.249 OA
ENDROOT
BRANCH   1   9
ATOM      3  C   LIG    1        8.656  -4.591   0.603  0.00  0.00    +0.283 C 
ATOM      4  N   LIG    1        7.551  -5.305   0.897  0.00  0.00    -0.282 N 
ATOM      5  C   LIG    1        7.632  -6.482   1.773  0.00  0.00    +0.109 C 
ATOM      6  C   LIG    1        6.618  -6.319   2.910  0.00  0.00    +0.019 C 
ATOM      7  C   LIG    1        5.229  -6.070   2.319  0.00  0.00    +0.004 C 
ATOM      8  C   LIG    1        5.243  -4.779   1.497  0.00  0.00    +0.034 C 
ATOM      9  C   LIG    1        6.244  -4.923   0.346  0.00  0.00    +0.185 C 
ATOM     10  O   LIG    1        8.559  -3.552  -0.017  0.00  0.00    -0.267 OA
BRANCH   3  11
ATOM     11  C   LIG    1        9.996  -5.076   1.040  0.00  0.00    +0.223 C 
ATOM     12  O   LIG    1       10.111  -6.178   1.521  0.00  0.00    -0.287 OA
BRANCH  11  13
ATOM     13  C   LIG    1       11.206  -4.192   0.882  0.00  0.00    +0.032 C 
ATOM     14  C   LIG    1       11.002  -2.902   1.679  0.00  0.00    +0.019 C 
ATOM     15  C   LIG    1       11.400  -3.853  -0.597  0.00  0.00    +0.019 C 
BRANCH  13  17
ATOM     16  C   LIG    1       13.672  -4.027   1.244  0.00  0.00    +0.005 C 
ATOM     17  C   LIG    1       12.444  -4.924   1.404  0.00  0.00    +0.011 C 
ENDBRANCH  13  17
ENDBRANCH  11  13
ENDBRANCH   3  11
ENDBRANCH   1   9
BRANCH   1  18
ATOM     18  O   LIG    1        6.183  -3.560  -1.712  0.00  0.00    -0.455 OA
BRANCH  18  19
ATOM     19  C   LIG    1        6.318  -2.261  -2.348  0.00  0.00    +0.207 C 
BRANCH  19  20
ATOM     20  C   LIG    1        7.750  -2.054  -2.768  0.00  0.00    -0.007 A 
ATOM     21  C   LIG    1        8.472  -3.104  -3.304  0.00  0.00    +0.007 A 
ATOM     22  C   LIG    1        9.784  -2.912  -3.695  0.00  0.00    +0.000 A 
ATOM     23  C   LIG    1       10.377  -1.673  -3.540  0.00  0.00    +0.000 A 
ATOM     24  C   LIG    1        9.657  -0.625  -2.999  0.00  0.00    +0.000 A 
ATOM     25  C   LIG    1        8.343  -0.815  -2.614  0.00  0.00    +0.007 A 
ENDBRANCH  19  20
BRANCH  19  26
ATOM     26  C   LIG    1        5.411  -2.199  -3.578  0.00  0.00    +0.054 C 
BRANCH  26  27
ATOM     27  C   LIG    1        3.948  -2.285  -3.138  0.00  0.00    +0.039 C 
BRANCH  27  28
ATOM     28  C   LIG    1        3.054  -2.224  -4.350  0.00  0.00    -0.047 A 
ATOM     29  C   LIG    1        2.687  -3.389  -4.997  0.00  0.00    +0.003 A 
ATOM     30  C   LIG    1        1.867  -3.333  -6.108  0.00  0.00    +0.000 A 
ATOM     31  C   LIG    1        1.414  -2.112  -6.573  0.00  0.00    +0.000 A 
ATOM     32  C   LIG    1        1.782  -0.947  -5.926  0.00  0.00    +0.000 A 
ATOM     33  C   LIG    1        2.602  -1.003  -4.815  0.00  0.00    +0.003 A 
ENDBRANCH  27  28
ENDBRANCH  26  27
ENDBRANCH  19  26
ENDBRANCH  18  19
ENDBRANCH   1  18
TORSDOF 10
