REMARK  Name = ZINC12355964
REMARK                            x       y       z     vdW  Elec       q    Type
REMARK                         _______ _______ _______ _____ _____    ______ ____
ROOT
ATOM      1  C   LIG    1       -0.017   1.381   0.010  0.00  0.00    +0.000 A 
ATOM      2  C   LIG    1        1.169   2.088   0.002  0.00  0.00    +0.004 A 
ATOM      3  C   LIG    1        2.388   1.422   0.000  0.00  0.00    -0.039 A 
ATOM      4  C   LIG    1        2.404   0.051   0.020  0.00  0.00    -0.037 A 
ATOM      5  C   LIG    1        1.209  -0.661  -0.002  0.00  0.00    -0.060 A 
ATOM      6  C   LIG    1        1.316  -2.162  -0.053  0.00  0.00    -0.046 C 
ATOM      7  N   LIG    1        2.244  -2.632   0.968  0.00  0.00    +0.382 N 
ATOM      8  H   LIG    1        2.443  -3.605   0.791  0.00  0.00    -0.085 HD
ATOM      9  H   LIG    1        1.788  -2.565   1.866  0.00  0.00    -0.085 HD
ATOM     10  C   LIG    1        3.502  -1.918   1.044  0.00  0.00    -0.069 C 
ATOM     11  C   LIG    1        3.660  -0.770   0.052  0.00  0.00    +0.033 C 
ATOM     12  C   LIG    1        4.850   0.060   0.459  0.00  0.00    -0.035 A 
ATOM     13  C   LIG    1        5.988  -0.615   0.885  0.00  0.00    +0.008 A 
ATOM     14  C   LIG    1        7.114   0.079   1.275  0.00  0.00    +0.049 A 
ATOM     15  C   LIG    1        7.114   1.464   1.242  0.00  0.00    +0.159 A 
ATOM     16  C   LIG    1        5.978   2.140   0.816  0.00  0.00    +0.162 A 
ATOM     17  C   LIG    1        4.843   1.434   0.421  0.00  0.00    +0.006 A 
ATOM     18  C   LIG    1        3.653   2.227  -0.036  0.00  0.00    +0.074 C 
ATOM     19  C   LIG    1        0.002  -0.004   0.002  0.00  0.00    +0.002 A 
ENDROOT
BRANCH  15  20
ATOM     20  O   LIG    1        8.218   2.158   1.627  0.00  0.00    -0.503 OA
ATOM     21  H   LIG    1        8.839   2.339   0.907  0.00  0.00    +0.292 HD
ENDBRANCH  15  20
BRANCH  16  22
ATOM     22  O   LIG    1        5.974   3.499   0.782  0.00  0.00    -0.503 OA
ATOM     23  H   LIG    1        6.273   3.873  -0.058  0.00  0.00    +0.292 HD
ENDBRANCH  16  22
TORSDOF 2
