REMARK  Name = ZINC11885008
REMARK                            x       y       z     vdW  Elec       q    Type
REMARK                         _______ _______ _______ _____ _____    ______ ____
ROOT
ATOM      1  C   LIG    1       -2.514  -0.058   0.016  0.00  0.00    -0.019 C 
ATOM      2  C   LIG    1       -2.673   0.700   1.336  0.00  0.00    +0.010 C 
ATOM      3  C   LIG    1       -4.032   1.404   1.359  0.00  0.00    +0.001 C 
ATOM      4  C   LIG    1       -5.147   0.364   1.231  0.00  0.00    +0.000 C 
ATOM      5  C   LIG    1       -4.988  -0.394  -0.089  0.00  0.00    +0.001 C 
ATOM      6  C   LIG    1       -3.629  -1.097  -0.112  0.00  0.00    +0.010 C 
ENDROOT
BRANCH   1  15
ATOM      7  C   LIG    1       -0.001  -3.038  -3.300  0.00  0.00    +0.001 A 
ATOM      8  C   LIG    1       -1.242  -2.404  -3.297  0.00  0.00    +0.001 A 
ATOM      9  C   LIG    1       -1.644  -1.655  -2.235  0.00  0.00    +0.009 A 
ATOM     10  C   LIG    1       -0.796  -1.516  -1.122  0.00  0.00    -0.014 A 
ATOM     11  C   LIG    1        0.466  -2.160  -1.125  0.00  0.00    -0.018 A 
ATOM     12  C   LIG    1        1.313  -2.022  -0.013  0.00  0.00    +0.008 A 
ATOM     13  C   LIG    1        0.912  -1.272   1.050  0.00  0.00    +0.001 A 
ATOM     14  C   LIG    1       -0.329  -0.638   1.053  0.00  0.00    +0.005 A 
ATOM     15  C   LIG    1       -1.176  -0.750  -0.007  0.00  0.00    -0.035 A 
ATOM     16  C   LIG    1        0.846  -2.926  -2.241  0.00  0.00    +0.008 A 
ENDBRANCH   1  15
BRANCH   1  17
ATOM     17  C   LIG    1       -2.599   0.928  -1.151  0.00  0.00    -0.075 C 
BRANCH  17  18
ATOM     18  N   LIG    1       -1.434   1.829  -1.106  0.00  0.00    +0.379 N 
ATOM     19  H   LIG    1       -0.580   1.287  -1.283  0.00  0.00    -0.090 HD
ATOM     20  H   LIG    1       -1.366   2.266  -0.188  0.00  0.00    -0.090 HD
ATOM     21  H   LIG    1       -1.523   2.551  -1.819  0.00  0.00    -0.090 HD
ENDBRANCH  17  18
ENDBRANCH   1  17
TORSDOF 3
