REMARK  Name = ZINC12959493
REMARK                            x       y       z     vdW  Elec       q    Type
REMARK                         _______ _______ _______ _____ _____    ______ ____
ROOT
ATOM      1  C   LIG    1        4.812  -2.581  -0.025  0.00  0.00    +0.130 A 
ATOM      2  C   LIG    1        6.025  -1.881  -0.029  0.00  0.00    +0.146 A 
ATOM      3  N   LIG    1        7.157  -2.559  -0.076  0.00  0.00    -0.221 NA
ATOM      4  C   LIG    1        7.162  -3.885  -0.119  0.00  0.00    +0.213 A 
ATOM      5  N   LIG    1        6.043  -4.593  -0.118  0.00  0.00    -0.212 NA
ATOM      6  C   LIG    1        4.857  -3.993  -0.066  0.00  0.00    +0.105 A 
ENDROOT
BRANCH   6   7
ATOM      7  C   LIG    1        3.610  -4.788  -0.058  0.00  0.00    +0.021 A 
ATOM      8  C   LIG    1        2.609  -4.512   0.874  0.00  0.00    +0.013 A 
ATOM      9  C   LIG    1        1.448  -5.256   0.877  0.00  0.00    +0.021 A 
ATOM     10  C   LIG    1        1.273  -6.277  -0.043  0.00  0.00    +0.042 A 
ATOM     11 CL   LIG    1       -0.192  -7.209  -0.033  0.00  0.00    -0.083 Cl
ATOM     12  C   LIG    1        2.261  -6.556  -0.971  0.00  0.00    +0.040 A 
ATOM     13  C   LIG    1        3.426  -5.815  -0.987  0.00  0.00    +0.052 A 
ATOM     14 CL   LIG    1        4.663  -6.162  -2.155  0.00  0.00    -0.083 Cl
ENDBRANCH   6   7
BRANCH   4  15
ATOM     15  N   LIG    1        8.373  -4.548  -0.168  0.00  0.00    -0.327 N 
ATOM     16  H   LIG    1        8.394  -5.518  -0.200  0.00  0.00    +0.145 HD
ATOM     17  H   LIG    1        9.201  -4.045  -0.170  0.00  0.00    +0.145 HD
ENDBRANCH   4  15
BRANCH   1  19
ATOM     18  N   LIG    1        3.601  -0.631   0.061  0.00  0.00    -0.149 NA
ATOM     19  N   LIG    1        3.622  -1.920   0.023  0.00  0.00    -0.146 NA
BRANCH  18  23
ATOM     20  C   LIG    1       -0.013   1.376   0.206  0.00  0.00    +0.000 A 
ATOM     21  C   LIG    1        1.172   2.091   0.198  0.00  0.00    +0.002 A 
ATOM     22  C   LIG    1        2.380   1.429   0.150  0.00  0.00    +0.029 A 
ATOM     23  C   LIG    1        2.407   0.032   0.109  0.00  0.00    +0.086 A 
ATOM     24  C   LIG    1        1.206  -0.683   0.118  0.00  0.00    +0.029 A 
ATOM     25  C   LIG    1        0.005  -0.007   0.166  0.00  0.00    +0.002 A 
ENDBRANCH  18  23
ENDBRANCH   1  19
TORSDOF 4
