REMARK  Name = ZINC09781788
REMARK                            x       y       z     vdW  Elec       q    Type
REMARK                         _______ _______ _______ _____ _____    ______ ____
ROOT
ATOM      1  N   LIG    1        4.893   7.990   0.097  0.00  0.00    +0.381 N 
ATOM      2  H   LIG    1        5.384   7.631  -0.730  0.00  0.00    -0.082 HD
ATOM      3  C   LIG    1        4.821   9.464   0.010  0.00  0.00    -0.078 C 
ATOM      4  C   LIG    1        6.237  10.023  -0.144  0.00  0.00    -0.014 C 
ATOM      5  C   LIG    1        7.075   9.618   1.072  0.00  0.00    +0.005 C 
ATOM      6  C   LIG    1        7.080   8.092   1.193  0.00  0.00    -0.014 C 
ATOM      7  C   LIG    1        5.639   7.589   1.309  0.00  0.00    -0.078 C 
ENDROOT
BRANCH   1   8
ATOM      8  C   LIG    1        3.531   7.419   0.132  0.00  0.00    -0.044 C 
BRANCH   8   9
ATOM      9  C   LIG    1        3.630   5.898  -0.003  0.00  0.00    +0.135 C 
BRANCH   9  10
ATOM     10  O   LIG    1        4.281   5.570  -1.232  0.00  0.00    -0.390 OA
ATOM     11  H   LIG    1        3.824   5.897  -2.019  0.00  0.00    +0.210 HD
ENDBRANCH   9  10
BRANCH   9  12
ATOM     12  C   LIG    1        2.226   5.292   0.008  0.00  0.00    +0.258 C 
BRANCH  12  13
ATOM     13  O   LIG    1        2.322   3.866  -0.000  0.00  0.00    -0.489 OA
BRANCH  13  19
ATOM     14  C   LIG    1       -2.559   3.865   0.045  0.00  0.00    +0.044 C 
ATOM     15  C   LIG    1       -1.242   3.133   0.030  0.00  0.00    -0.047 A 
ATOM     16  C   LIG    1       -1.219   1.750   0.017  0.00  0.00    +0.004 A 
ATOM     17  C   LIG    1       -0.013   1.076   0.008  0.00  0.00    +0.008 A 
ATOM     18  C   LIG    1        1.175   1.782   0.000  0.00  0.00    -0.003 A 
ATOM     19  C   LIG    1        1.155   3.169   0.008  0.00  0.00    +0.124 A 
ATOM     20  C   LIG    1       -0.057   3.844   0.022  0.00  0.00    +0.049 A 
BRANCH  18  21
ATOM     21  C   LIG    1        2.490   1.047  -0.015  0.00  0.00    +0.016 C 
ATOM     22  C   LIG    1        2.571   0.174  -1.269  0.00  0.00    +0.012 C 
ATOM     23  C   LIG    1        2.594   0.162   1.229  0.00  0.00    +0.012 C 
ENDBRANCH  18  21
ENDBRANCH  13  19
ENDBRANCH  12  13
ENDBRANCH   9  12
ENDBRANCH   8   9
ENDBRANCH   1   8
BRANCH   5  24
ATOM     24  C   LIG    1        8.509  10.122   0.895  0.00  0.00    +0.132 C 
BRANCH  24  25
ATOM     25  N   LIG    1        9.279   9.839   2.109  0.00  0.00    -0.275 N 
ATOM     26  C   LIG    1        9.310  10.765   3.087  0.00  0.00    +0.262 A 
ATOM     27  C   LIG    1       10.069  10.516   4.322  0.00  0.00    +0.048 A 
ATOM     28  C   LIG    1       10.123  11.438   5.356  0.00  0.00    +0.014 A 
ATOM     29  C   LIG    1       10.857  11.158   6.503  0.00  0.00    +0.001 A 
ATOM     30  C   LIG    1       11.538   9.984   6.648  0.00  0.00    +0.008 A 
ATOM     31  C   LIG    1       11.508   9.022   5.623  0.00  0.00    -0.016 A 
ATOM     32  C   LIG    1       12.192   7.798   5.725  0.00  0.00    +0.008 A 
ATOM     33  C   LIG    1       12.132   6.895   4.703  0.00  0.00    +0.001 A 
ATOM     34  C   LIG    1       11.405   7.151   3.546  0.00  0.00    +0.014 A 
ATOM     35  C   LIG    1       10.717   8.347   3.406  0.00  0.00    +0.048 A 
ATOM     36  C   LIG    1       10.767   9.294   4.454  0.00  0.00    +0.007 A 
ATOM     37  O   LIG    1        8.705  11.810   2.950  0.00  0.00    -0.267 OA
ATOM     38  C   LIG    1        9.933   8.666   2.204  0.00  0.00    +0.262 A 
ATOM     39  O   LIG    1        9.876   7.867   1.289  0.00  0.00    -0.267 OA
ENDBRANCH  24  25
ENDBRANCH   5  24
TORSDOF 9
