REMARK  Name = ZINC12370063
REMARK                            x       y       z     vdW  Elec       q    Type
REMARK                         _______ _______ _______ _____ _____    ______ ____
ROOT
ATOM      1  N   LIG    1       -1.137   2.272   0.019  0.00  0.00    -0.268 N 
ATOM      2  C   LIG    1       -0.018   1.466   0.010  0.00  0.00    +0.205 A 
ATOM      3  N   LIG    1        1.029   2.264   0.004  0.00  0.00    -0.125 NA
ATOM      4  N   LIG    1        0.647   3.490   0.015  0.00  0.00    -0.122 NA
ATOM      5  C   LIG    1       -0.666   3.557   0.028  0.00  0.00    +0.197 A 
ENDROOT
BRANCH   1   9
ATOM      6  C   LIG    1       -5.125   1.048   0.028  0.00  0.00    +0.121 A 
ATOM      7  C   LIG    1       -4.607   1.731   1.118  0.00  0.00    +0.047 A 
ATOM      8  C   LIG    1       -3.287   2.136   1.116  0.00  0.00    +0.030 A 
ATOM      9  C   LIG    1       -2.479   1.861   0.022  0.00  0.00    +0.051 A 
ATOM     10  C   LIG    1       -2.999   1.183  -1.072  0.00  0.00    +0.030 A 
ATOM     11  C   LIG    1       -4.318   0.773  -1.066  0.00  0.00    +0.047 A 
BRANCH   6  12
ATOM     12  O   LIG    1       -6.425   0.649   0.030  0.00  0.00    -0.487 OA
BRANCH  12  13
ATOM     13  C   LIG    1       -6.892  -0.049  -1.125  0.00  0.00    +0.264 C 
BRANCH  13  17
ATOM     14  C   LIG    1      -11.008  -1.069  -0.608  0.00  0.00    +0.000 A 
ATOM     15  C   LIG    1      -10.662   0.136  -1.191  0.00  0.00    +0.000 A 
ATOM     16  C   LIG    1       -9.330   0.466  -1.358  0.00  0.00    +0.007 A 
ATOM     17  C   LIG    1       -8.344  -0.409  -0.943  0.00  0.00    -0.010 A 
ATOM     18  C   LIG    1       -8.689  -1.617  -0.365  0.00  0.00    +0.007 A 
ATOM     19  C   LIG    1      -10.021  -1.944  -0.193  0.00  0.00    +0.000 A 
ENDBRANCH  13  17
ENDBRANCH  12  13
ENDBRANCH   6  12
ENDBRANCH   1   9
BRANCH   2  20
ATOM     20  C   LIG    1        0.002  -0.004   0.002  0.00  0.00    +0.172 A 
ATOM     21  C   LIG    1        1.082  -0.791   0.268  0.00  0.00    +0.053 A 
ATOM     22  C   LIG    1        0.650  -2.126   0.149  0.00  0.00    +0.042 A 
ATOM     23  C   LIG    1       -0.655  -2.091  -0.188  0.00  0.00    +0.196 A 
ATOM     24  O   LIG    1       -1.043  -0.808  -0.276  0.00  0.00    -0.460 OA
ENDBRANCH   2  20
BRANCH   5  25
ATOM     25  S   LIG    1       -1.637   5.027   0.045  0.00  0.00    -0.081 S 
BRANCH  25  26
ATOM     26  C   LIG    1       -0.323   6.272   0.040  0.00  0.00    +0.116 C 
BRANCH  26  27
ATOM     27  C   LIG    1       -0.936   7.649   0.053  0.00  0.00    +0.016 A 
ATOM     28  C   LIG    1       -1.207   8.275   1.258  0.00  0.00    +0.129 A 
ATOM     29  F   LIG    1       -0.922   7.652   2.422  0.00  0.00    -0.205 F 
ATOM     30  C   LIG    1       -1.770   9.540   1.269  0.00  0.00    +0.039 A 
ATOM     31  C   LIG    1       -2.061  10.177   0.077  0.00  0.00    +0.004 A 
ATOM     32  C   LIG    1       -1.791   9.552  -1.125  0.00  0.00    +0.020 A 
ATOM     33  C   LIG    1       -1.223   8.290  -1.138  0.00  0.00    +0.048 A 
ATOM     34 CL   LIG    1       -0.878   7.509  -2.650  0.00  0.00    -0.083 Cl
ENDBRANCH  26  27
ENDBRANCH  25  26
ENDBRANCH   5  25
TORSDOF 8
