REMARK  Name = ZINC09781793
REMARK                            x       y       z     vdW  Elec       q    Type
REMARK                         _______ _______ _______ _____ _____    ______ ____
ROOT
ATOM      1  N   LIG    1       -4.374  -4.210   2.928  0.00  0.00    +0.381 N 
ATOM      2  H   LIG    1       -4.631  -3.506   3.631  0.00  0.00    -0.082 HD
ATOM      3  C   LIG    1       -5.298  -5.358   3.038  0.00  0.00    -0.078 C 
ATOM      4  C   LIG    1       -5.259  -5.891   4.472  0.00  0.00    -0.014 C 
ATOM      5  C   LIG    1       -3.834  -6.343   4.804  0.00  0.00    +0.005 C 
ATOM      6  C   LIG    1       -2.876  -5.163   4.614  0.00  0.00    -0.014 C 
ATOM      7  C   LIG    1       -2.985  -4.651   3.176  0.00  0.00    -0.078 C 
ENDROOT
BRANCH   1   8
ATOM      8  C   LIG    1       -4.478  -3.605   1.584  0.00  0.00    -0.044 C 
BRANCH   8   9
ATOM      9  C   LIG    1       -3.685  -2.296   1.569  0.00  0.00    +0.135 C 
BRANCH   9  10
ATOM     10  O   LIG    1       -4.208  -1.411   2.561  0.00  0.00    -0.390 OA
ATOM     11  H   LIG    1       -5.139  -1.182   2.432  0.00  0.00    +0.210 HD
ENDBRANCH   9  10
BRANCH   9  12
ATOM     12  C   LIG    1       -3.802  -1.645   0.190  0.00  0.00    +0.258 C 
BRANCH  12  13
ATOM     13  O   LIG    1       -2.968  -0.485   0.139  0.00  0.00    -0.489 OA
BRANCH  13  19
ATOM     14  C   LIG    1       -2.170   1.352  -1.144  0.00  0.00    -0.002 A 
ATOM     15  C   LIG    1       -2.163   2.065  -2.328  0.00  0.00    +0.007 A 
ATOM     16  C   LIG    1       -2.931   1.641  -3.396  0.00  0.00    +0.001 A 
ATOM     17  C   LIG    1       -3.716   0.509  -3.280  0.00  0.00    +0.004 A 
ATOM     18  C   LIG    1       -3.731  -0.205  -2.097  0.00  0.00    +0.046 A 
ATOM     19  C   LIG    1       -2.956   0.216  -1.025  0.00  0.00    +0.124 A 
BRANCH  14  20
ATOM     20  C   LIG    1       -1.328   1.812   0.018  0.00  0.00    +0.065 C 
BRANCH  20  22
ATOM     21  C   LIG    1        1.113   1.746   0.001  0.00  0.00    +0.004 C 
ATOM     22  C   LIG    1       -0.013   1.076   0.008  0.00  0.00    -0.030 C 
ENDBRANCH  20  22
ENDBRANCH  14  20
ENDBRANCH  13  19
ENDBRANCH  12  13
ENDBRANCH   9  12
ENDBRANCH   8   9
ENDBRANCH   1   8
BRANCH   5  23
ATOM     23  C   LIG    1       -3.774  -6.821   6.256  0.00  0.00    +0.132 C 
BRANCH  23  24
ATOM     24  N   LIG    1       -2.443  -7.363   6.538  0.00  0.00    -0.275 N 
ATOM     25  C   LIG    1       -2.220  -8.675   6.330  0.00  0.00    +0.262 A 
ATOM     26  C   LIG    1       -0.895  -9.254   6.597  0.00  0.00    +0.048 A 
ATOM     27  C   LIG    1       -0.620 -10.598   6.391  0.00  0.00    +0.014 A 
ATOM     28  C   LIG    1        0.648 -11.101   6.662  0.00  0.00    +0.001 A 
ATOM     29  C   LIG    1        1.649 -10.300   7.133  0.00  0.00    +0.008 A 
ATOM     30  C   LIG    1        1.411  -8.933   7.354  0.00  0.00    -0.016 A 
ATOM     31  C   LIG    1        2.409  -8.068   7.836  0.00  0.00    +0.008 A 
ATOM     32  C   LIG    1        2.131  -6.746   8.035  0.00  0.00    +0.001 A 
ATOM     33  C   LIG    1        0.871  -6.220   7.771  0.00  0.00    +0.014 A 
ATOM     34  C   LIG    1       -0.141  -7.040   7.295  0.00  0.00    +0.048 A 
ATOM     35  C   LIG    1        0.130  -8.411   7.083  0.00  0.00    +0.007 A 
ATOM     36  O   LIG    1       -3.117  -9.383   5.916  0.00  0.00    -0.267 OA
ATOM     37  C   LIG    1       -1.489  -6.532   7.000  0.00  0.00    +0.262 A 
ATOM     38  O   LIG    1       -1.744  -5.356   7.175  0.00  0.00    -0.267 OA
ENDBRANCH  23  24
ENDBRANCH   5  23
TORSDOF 10
