REMARK  Name = ZINC12397616
REMARK                            x       y       z     vdW  Elec       q    Type
REMARK                         _______ _______ _______ _____ _____    ______ ____
ROOT
ATOM      1  C   LIG    1       -0.742   1.585  -1.213  0.00  0.00    +0.084 A 
ATOM      2  C   LIG    1       -0.193   2.332  -2.281  0.00  0.00    +0.069 A 
ATOM      3  C   LIG    1       -1.241   2.529  -3.115  0.00  0.00    +0.124 A 
ATOM      4  O   LIG    1       -2.297   1.931  -2.546  0.00  0.00    -0.361 OA
ATOM      5  N   LIG    1       -2.000   1.409  -1.496  0.00  0.00    -0.083 NA
ENDROOT
BRANCH   3   6
ATOM      6  C   LIG    1       -1.224   3.273  -4.425  0.00  0.00    -0.002 C 
ATOM      7  N   LIG    1       -2.137   2.669  -5.396  0.00  0.00    +0.386 N 
ATOM      8  H   LIG    1       -1.687   1.870  -5.857  0.00  0.00    -0.085 HD
ATOM      9  H   LIG    1       -2.996   2.356  -4.928  0.00  0.00    -0.085 HD
ATOM     10  C   LIG    1       -2.447   3.710  -6.378  0.00  0.00    -0.082 C 
ATOM     11  C   LIG    1       -2.583   4.989  -5.525  0.00  0.00    -0.020 C 
ATOM     12  C   LIG    1       -1.779   4.702  -4.240  0.00  0.00    -0.010 C 
ENDBRANCH   3   6
BRANCH   1  14
ATOM     13  C   LIG    1       -0.729   1.579   1.267  0.00  0.00    +0.010 C 
ATOM     14  C   LIG    1       -0.013   1.086   0.008  0.00  0.00    +0.055 C 
ENDBRANCH   1  14
TORSDOF 2
