REMARK  Name = ZINC12496555
REMARK                            x       y       z     vdW  Elec       q    Type
REMARK                         _______ _______ _______ _____ _____    ______ ____
ROOT
ATOM      1  C   LIG    1       -0.776  -3.553   6.872  0.00  0.00    +0.004 C 
ATOM      2  C   LIG    1       -0.531  -2.774   5.818  0.00  0.00    -0.002 C 
ENDROOT
BRANCH   2   3
ATOM      3  C   LIG    1       -0.880  -1.352   5.861  0.00  0.00    -0.000 C 
ATOM      4  C   LIG    1       -0.632  -0.565   4.794  0.00  0.00    -0.000 C 
BRANCH   4   5
ATOM      5  C   LIG    1       -0.981   0.857   4.837  0.00  0.00    -0.002 C 
ATOM      6  C   LIG    1       -0.649   1.656   3.822  0.00  0.00    +0.004 C 
BRANCH   6   7
ATOM      7  C   LIG    1       -0.039   1.073   2.574  0.00  0.00    +0.137 C 
BRANCH   7   8
ATOM      8  O   LIG    1       -0.812   1.466   1.438  0.00  0.00    -0.388 OA
ATOM      9  H   LIG    1       -0.928   2.422   1.353  0.00  0.00    +0.210 HD
ENDBRANCH   7   8
BRANCH   7  10
ATOM     10  C   LIG    1        1.394   1.588   2.418  0.00  0.00    +0.036 C 
BRANCH  10  11
ATOM     11  C   LIG    1        2.055   0.902   1.222  0.00  0.00    +0.014 C 
BRANCH  11  12
ATOM     12  C   LIG    1        3.488   1.416   1.066  0.00  0.00    +0.120 C 
BRANCH  12  13
ATOM     13  C   LIG    1        4.140   0.740  -0.112  0.00  0.00    +0.305 C 
ATOM     14  O   LIG    1        3.522  -0.070  -0.761  0.00  0.00    -0.251 OA
BRANCH  13  15
ATOM     15  O   LIG    1        5.406   1.038  -0.441  0.00  0.00    -0.481 OA
ATOM     16  H   LIG    1        5.886   1.667   0.063  0.00  0.00    +0.295 HD
ENDBRANCH  13  15
ENDBRANCH  12  13
ENDBRANCH  11  12
ENDBRANCH  10  11
ENDBRANCH   7  10
ENDBRANCH   6   7
ENDBRANCH   4   5
ENDBRANCH   2   3
BRANCH   1  17
ATOM     17  C   LIG    1       -0.417  -5.016   6.828  0.00  0.00    +0.141 C 
BRANCH  17  18
ATOM     18  O   LIG    1       -1.597  -5.801   7.013  0.00  0.00    -0.387 OA
ATOM     19  H   LIG    1       -2.047  -5.643   7.854  0.00  0.00    +0.210 HD
ENDBRANCH  17  18
BRANCH  17  20
ATOM     20  C   LIG    1        0.584  -5.329   7.942  0.00  0.00    +0.062 C 
BRANCH  20  22
ATOM     21  C   LIG    1        2.315  -7.043   7.782  0.00  0.00    -0.031 C 
ATOM     22  C   LIG    1        1.036  -6.761   7.823  0.00  0.00    -0.028 C 
BRANCH  21  23
ATOM     23  C   LIG    1        3.333  -5.959   8.026  0.00  0.00    +0.027 C 
BRANCH  23  24
ATOM     24  C   LIG    1        4.304  -6.408   9.120  0.00  0.00    +0.004 C 
BRANCH  24  25
ATOM     25  C   LIG    1        5.338  -5.308   9.367  0.00  0.00    +0.009 C 
BRANCH  25  26
ATOM     26  C   LIG    1        6.309  -5.756  10.461  0.00  0.00    +0.113 C 
BRANCH  26  27
ATOM     27  C   LIG    1        7.343  -4.656  10.708  0.00  0.00    +0.390 C 
ATOM     28  F   LIG    1        8.052  -4.410   9.528  0.00  0.00    -0.171 F 
ATOM     29  F   LIG    1        8.230  -5.066  11.709  0.00  0.00    -0.171 F 
ATOM     30  F   LIG    1        6.691  -3.486  11.114  0.00  0.00    -0.171 F 
ENDBRANCH  26  27
ENDBRANCH  25  26
ENDBRANCH  24  25
ENDBRANCH  23  24
ENDBRANCH  21  23
ENDBRANCH  20  22
ENDBRANCH  17  20
ENDBRANCH   1  17
TORSDOF 18
