REMARK  Name = ZINC09404848
REMARK                            x       y       z     vdW  Elec       q    Type
REMARK                         _______ _______ _______ _____ _____    ______ ____
ROOT
ATOM      1  C   LIG    1       -1.123   7.541   1.855  0.00  0.00    +0.248 C 
ATOM      2  N   LIG    1       -0.161   8.219   2.512  0.00  0.00    -0.281 N 
ATOM      3  H   LIG    1        0.570   7.738   2.932  0.00  0.00    +0.155 HD
ATOM      4  O   LIG    1       -2.083   8.134   1.401  0.00  0.00    -0.270 OA
ENDROOT
BRANCH   1   7
ATOM      5  C   LIG    1        0.189   4.026   2.051  0.00  0.00    +0.166 A 
ATOM      6  C   LIG    1        0.090   5.396   2.207  0.00  0.00    +0.062 A 
ATOM      7  C   LIG    1       -1.012   6.079   1.686  0.00  0.00    +0.044 A 
ATOM      8  C   LIG    1       -2.010   5.376   1.006  0.00  0.00    +0.062 A 
ATOM      9  C   LIG    1       -1.903   4.007   0.849  0.00  0.00    +0.166 A 
ATOM     10  C   LIG    1       -0.803   3.329   1.368  0.00  0.00    +0.204 A 
BRANCH   5  11
ATOM     11  O   LIG    1        1.259   3.360   2.562  0.00  0.00    -0.488 OA
BRANCH  11  13
ATOM     12  C   LIG    1        3.359   3.223   3.750  0.00  0.00    +0.048 C 
ATOM     13  C   LIG    1        2.239   4.139   3.251  0.00  0.00    +0.226 C 
ENDBRANCH  11  13
ENDBRANCH   5  11
BRANCH   9  14
ATOM     14  O   LIG    1       -2.873   3.321   0.186  0.00  0.00    -0.488 OA
BRANCH  14  15
ATOM     15  C   LIG    1       -3.973   4.080  -0.320  0.00  0.00    +0.226 C 
ATOM     16  C   LIG    1       -4.955   3.145  -1.029  0.00  0.00    +0.048 C 
ENDBRANCH  14  15
ENDBRANCH   9  14
BRANCH  10  17
ATOM     17  O   LIG    1       -0.701   1.982   1.212  0.00  0.00    -0.485 OA
BRANCH  17  18
ATOM     18  C   LIG    1       -0.028   1.514   0.042  0.00  0.00    +0.226 C 
ATOM     19  C   LIG    1       -0.012  -0.016   0.041  0.00  0.00    +0.048 C 
ENDBRANCH  17  18
ENDBRANCH  10  17
ENDBRANCH   1   7
BRANCH   2  20
ATOM     20  C   LIG    1       -0.216   9.614   2.588  0.00  0.00    +0.034 A 
ATOM     21  C   LIG    1        0.958  10.358   2.570  0.00  0.00    +0.023 A 
ATOM     22  C   LIG    1        0.908  11.738   2.639  0.00  0.00    +0.002 A 
ATOM     23  C   LIG    1       -0.307  12.385   2.739  0.00  0.00    +0.011 A 
ATOM     24  C   LIG    1       -1.490  11.646   2.764  0.00  0.00    +0.019 A 
ATOM     25  C   LIG    1       -1.441  10.255   2.688  0.00  0.00    +0.034 A 
BRANCH  24  26
ATOM     26  C   LIG    1       -2.794  12.338   2.870  0.00  0.00    +0.139 A 
ATOM     27  N   LIG    1       -2.961  13.694   2.956  0.00  0.00    -0.338 N 
ATOM     28  C   LIG    1       -4.319  13.933   3.038  0.00  0.00    +0.066 A 
ATOM     29  C   LIG    1       -5.090  15.083   3.140  0.00  0.00    +0.028 A 
ATOM     30  C   LIG    1       -6.463  14.981   3.209  0.00  0.00    +0.002 A 
ATOM     31  C   LIG    1       -7.079  13.738   3.177  0.00  0.00    +0.002 A 
ATOM     32  C   LIG    1       -6.337  12.595   3.076  0.00  0.00    +0.030 A 
ATOM     33  C   LIG    1       -4.942  12.674   3.005  0.00  0.00    +0.089 A 
ATOM     34  H   LIG    1       -2.236  14.382   2.960  0.00  0.00    +0.167 HD
ATOM     35  N   LIG    1       -3.962  11.744   2.902  0.00  0.00    -0.228 NA
ENDBRANCH  24  26
ENDBRANCH   2  20
TORSDOF 9
