REMARK  Name = ZINC09329507
REMARK                            x       y       z     vdW  Elec       q    Type
REMARK                         _______ _______ _______ _____ _____    ______ ____
ROOT
ATOM      1  C   LIG    1       -1.254  -0.758   0.010  0.00  0.00    +0.026 C 
ATOM      2  C   LIG    1       -2.410  -0.181  -0.481  0.00  0.00    +0.096 C 
ATOM      3  C   LIG    1       -3.712  -0.862  -0.385  0.00  0.00    +0.218 C 
ATOM      4  N   LIG    1       -4.778  -0.255  -0.875  0.00  0.00    -0.127 NA
ATOM      5  C   LIG    1       -4.709   0.945  -1.448  0.00  0.00    +0.333 C 
ATOM      6  N   LIG    1       -3.570   1.640  -1.580  0.00  0.00    -0.234 N 
ATOM      7  H   LIG    1       -3.589   2.510  -2.008  0.00  0.00    +0.159 HD
ATOM      8  O   LIG    1       -5.737   1.439  -1.875  0.00  0.00    -0.250 OA
ATOM      9  C   LIG    1       -2.397   1.151  -1.122  0.00  0.00    +0.256 C 
ATOM     10  O   LIG    1       -1.364   1.784  -1.236  0.00  0.00    -0.270 OA
ENDROOT
BRANCH   1  16
ATOM     11  C   LIG    1       -0.057   1.328   0.638  0.00  0.00    +0.010 A 
ATOM     12  C   LIG    1        1.105   2.063   0.724  0.00  0.00    +0.033 A 
ATOM     13  C   LIG    1        2.303   1.526   0.285  0.00  0.00    +0.122 A 
ATOM     14  C   LIG    1        2.346   0.247  -0.244  0.00  0.00    +0.033 A 
ATOM     15  C   LIG    1        1.194  -0.503  -0.337  0.00  0.00    +0.010 A 
ATOM     16  C   LIG    1       -0.024   0.032   0.105  0.00  0.00    -0.024 A 
BRANCH  13  17
ATOM     17  N   LIG    1        3.546   2.325   0.380  0.00  0.00    +0.006 N 
ATOM     18  O   LIG    1        3.513   3.442   0.841  0.00  0.00    -0.130 OA
BRANCH  17  19
ATOM     19  O   LIG    1        4.594   1.859  -0.002  0.00  0.00    -0.396 OA
ATOM     20  H   LIG    1        4.620   0.993  -0.359  0.00  0.00    +0.329 HD
ENDBRANCH  17  19
ENDBRANCH  13  17
ENDBRANCH   1  16
BRANCH   3  21
ATOM     21  O   LIG    1       -3.814  -2.079   0.191  0.00  0.00    -0.493 OA
ATOM     22  H   LIG    1       -3.051  -2.499   0.535  0.00  0.00    +0.294 HD
ENDBRANCH   3  21
TORSDOF 4
