REMARK  Name = ZINC11330186
REMARK                            x       y       z     vdW  Elec       q    Type
REMARK                         _______ _______ _______ _____ _____    ______ ____
ROOT
ATOM      1  C   LIG    1       -1.356  -0.728   0.098  0.00  0.00    +0.050 A 
ATOM      2  C   LIG    1       -1.880  -1.236  -1.074  0.00  0.00    +0.008 A 
ATOM      3  C   LIG    1       -3.247  -1.512  -1.145  0.00  0.00    -0.002 A 
ATOM      4  C   LIG    1       -4.035  -1.256  -0.004  0.00  0.00    +0.004 A 
ATOM      5  C   LIG    1       -3.418  -0.743   1.136  0.00  0.00    +0.052 A 
ATOM      6  N   LIG    1       -2.122  -0.506   1.149  0.00  0.00    -0.255 NA
ENDROOT
BRANCH   3   7
ATOM      7  C   LIG    1       -3.852  -2.057  -2.382  0.00  0.00    -0.017 A 
ATOM      8  C   LIG    1       -3.862  -1.295  -3.550  0.00  0.00    +0.011 A 
ATOM      9  C   LIG    1       -4.426  -1.807  -4.700  0.00  0.00    +0.039 A 
ATOM     10  C   LIG    1       -4.982  -3.076  -4.696  0.00  0.00    +0.123 A 
ATOM     11  F   LIG    1       -5.534  -3.573  -5.825  0.00  0.00    -0.205 F 
ATOM     12  C   LIG    1       -4.974  -3.837  -3.538  0.00  0.00    +0.039 A 
ATOM     13  C   LIG    1       -4.408  -3.336  -2.385  0.00  0.00    +0.011 A 
ENDBRANCH   3   7
BRANCH   1  15
ATOM     14  C   LIG    1        0.325   1.081   0.327  0.00  0.00    +0.014 C 
ATOM     15  C   LIG    1        0.118  -0.428   0.180  0.00  0.00    +0.032 C 
ATOM     16  C   LIG    1        0.718  -1.145   1.391  0.00  0.00    +0.014 C 
ENDBRANCH   1  15
BRANCH   5  17
ATOM     17  C   LIG    1       -4.240  -0.462   2.367  0.00  0.00    +0.032 C 
ATOM     18  C   LIG    1       -4.140   1.024   2.719  0.00  0.00    +0.014 C 
ATOM     19  C   LIG    1       -3.713  -1.299   3.534  0.00  0.00    +0.014 C 
ENDBRANCH   5  17
BRANCH   4  20
ATOM     20  C   LIG    1       -5.486  -1.527  -0.016  0.00  0.00    +0.008 C 
ATOM     21  C   LIG    1       -6.038  -2.231   0.964  0.00  0.00    +0.005 C 
BRANCH  21  22
ATOM     22  C   LIG    1       -7.519  -2.507   0.952  0.00  0.00    +0.140 C 
BRANCH  22  23
ATOM     23  O   LIG    1       -8.086  -2.012  -0.263  0.00  0.00    -0.388 OA
ATOM     24  H   LIG    1       -7.715  -2.412  -1.062  0.00  0.00    +0.210 HD
ENDBRANCH  22  23
BRANCH  22  25
ATOM     25  C   LIG    1       -7.758  -4.015   1.049  0.00  0.00    +0.067 C 
BRANCH  25  26
ATOM     26  C   LIG    1       -9.259  -4.287   1.162  0.00  0.00    +0.128 C 
BRANCH  26  27
ATOM     27  O   LIG    1       -9.910  -3.879  -0.043  0.00  0.00    -0.391 OA
ATOM     28  H   LIG    1       -9.595  -4.337  -0.834  0.00  0.00    +0.210 HD
ENDBRANCH  26  27
BRANCH  26  29
ATOM     29  C   LIG    1       -9.491  -5.784   1.385  0.00  0.00    +0.151 C 
BRANCH  29  30
ATOM     30  C   LIG    1      -10.958  -6.035   1.619  0.00  0.00    +0.307 C 
ATOM     31  O   LIG    1      -11.746  -5.105   1.608  0.00  0.00    -0.251 OA
BRANCH  30  32
ATOM     32  O   LIG    1      -11.357  -7.170   1.818  0.00  0.00    -0.481 OA
ATOM     33  H   LIG    1      -10.752  -7.885   1.826  0.00  0.00    +0.295 HD
ENDBRANCH  30  32
ENDBRANCH  29  30
ENDBRANCH  26  29
ENDBRANCH  25  26
ENDBRANCH  22  25
ENDBRANCH  21  22
ENDBRANCH   4  20
BRANCH   2  34
ATOM     34  C   LIG    1       -0.988  -1.489  -2.262  0.00  0.00    +0.197 C 
BRANCH  34  35
ATOM     35  O   LIG    1       -0.367  -2.769  -2.128  0.00  0.00    -0.378 OA
ATOM     36  C   LIG    1        0.504  -3.108  -3.209  0.00  0.00    +0.194 C 
ENDBRANCH  34  35
ENDBRANCH   2  34
TORSDOF 14
