REMARK  Name = ZINC09673198
REMARK                            x       y       z     vdW  Elec       q    Type
REMARK                         _______ _______ _______ _____ _____    ______ ____
ROOT
ATOM      1  C   LIG    1       -0.018   1.503   0.010  0.00  0.00    +0.048 C 
ATOM      2  C   LIG    1        0.002  -0.004   0.002  0.00  0.00    +0.008 A 
ATOM      3  C   LIG    1        0.009  -0.877  -1.171  0.00  0.00    +0.026 A 
ATOM      4  C   LIG    1       -0.001  -0.654  -2.551  0.00  0.00    +0.040 A 
ATOM      5  C   LIG    1        0.009  -1.718  -3.408  0.00  0.00    +0.106 A 
ATOM      6  C   LIG    1        0.029  -3.017  -2.918  0.00  0.00    +0.032 A 
ATOM      7  C   LIG    1        0.039  -3.257  -1.561  0.00  0.00    +0.049 A 
ATOM      8  C   LIG    1        0.030  -2.191  -0.669  0.00  0.00    +0.136 A 
ATOM      9  O   LIG    1        0.035  -2.113   0.676  0.00  0.00    -0.450 OA
ATOM     10  C   LIG    1        0.024  -0.826   1.083  0.00  0.00    +0.193 A 
ENDROOT
BRANCH  10  11
ATOM     11  C   LIG    1        0.031  -0.382   2.484  0.00  0.00    +0.280 C 
ATOM     12  N   LIG    1        0.053  -1.291   3.479  0.00  0.00    -0.305 N 
ATOM     13  H   LIG    1        0.065  -2.238   3.270  0.00  0.00    +0.149 HD
ATOM     14  O   LIG    1        0.017   0.806   2.745  0.00  0.00    -0.267 OA
BRANCH  12  15
ATOM     15  C   LIG    1        0.060  -0.848   4.875  0.00  0.00    +0.143 C 
BRANCH  15  16
ATOM     16  C   LIG    1        0.086  -2.050   5.783  0.00  0.00    +0.011 A 
ATOM     17  C   LIG    1       -1.081  -2.497   6.373  0.00  0.00    +0.009 A 
ATOM     18  C   LIG    1       -1.058  -3.599   7.206  0.00  0.00    +0.001 A 
ATOM     19  C   LIG    1        0.132  -4.258   7.452  0.00  0.00    +0.004 A 
ATOM     20  C   LIG    1        1.302  -3.816   6.865  0.00  0.00    +0.046 A 
ATOM     21  C   LIG    1        1.280  -2.713   6.024  0.00  0.00    +0.125 A 
BRANCH  21  22
ATOM     22  O   LIG    1        2.429  -2.279   5.441  0.00  0.00    -0.495 OA
ATOM     23  C   LIG    1        3.621  -3.010   5.734  0.00  0.00    +0.277 C 
ENDBRANCH  21  22
ENDBRANCH  15  16
ENDBRANCH  12  15
ENDBRANCH  10  11
BRANCH   5  24
ATOM     24  S   LIG    1       -0.004  -1.440  -5.148  0.00  0.00    +0.061 S 
ATOM     25  O   LIG    1       -0.574  -0.154  -5.349  0.00  0.00    -0.153 OA
ATOM     26  O   LIG    1       -0.541  -2.613  -5.743  0.00  0.00    -0.153 OA
BRANCH  24  27
ATOM     27  N   LIG    1        1.575  -1.340  -5.639  0.00  0.00    -0.176 NA
ATOM     28  C   LIG    1        2.273  -0.048  -5.656  0.00  0.00    +0.112 C 
ATOM     29  C   LIG    1        3.572  -0.179  -4.854  0.00  0.00    +0.002 C 
ATOM     30  C   LIG    1        4.378   1.116  -4.972  0.00  0.00    +0.009 C 
ATOM     31  C   LIG    1        4.394  -1.345  -5.409  0.00  0.00    +0.009 C 
ATOM     32  C   LIG    1        3.601  -2.646  -5.261  0.00  0.00    +0.002 C 
ATOM     33  C   LIG    1        4.436  -3.816  -5.785  0.00  0.00    +0.009 C 
ATOM     34  C   LIG    1        2.304  -2.543  -6.061  0.00  0.00    +0.112 C 
ENDBRANCH  24  27
ENDBRANCH   5  24
TORSDOF 6
