REMARK  Name = ZINC08652571
REMARK                            x       y       z     vdW  Elec       q    Type
REMARK                         _______ _______ _______ _____ _____    ______ ____
ROOT
ATOM      1  C   LIG    1        0.485  -3.062  -0.042  0.00  0.00    +0.224 C 
ATOM      2  N   LIG    1        1.483  -2.216   0.281  0.00  0.00    -0.257 N 
ATOM      3  C   LIG    1        1.312  -0.878   0.651  0.00  0.00    +0.040 A 
ATOM      4  C   LIG    1        0.134  -0.136   0.768  0.00  0.00    +0.024 A 
ATOM      5  C   LIG    1        0.182   1.187   1.151  0.00  0.00    +0.002 A 
ATOM      6  C   LIG    1        1.397   1.790   1.423  0.00  0.00    +0.000 A 
ATOM      7  C   LIG    1        2.566   1.062   1.309  0.00  0.00    +0.005 A 
ATOM      8  C   LIG    1        2.523  -0.265   0.925  0.00  0.00    -0.024 A 
ATOM      9  C   LIG    1        3.630  -1.275   0.725  0.00  0.00    +0.071 C 
ATOM     10  C   LIG    1        2.907  -2.563   0.298  0.00  0.00    +0.194 C 
ATOM     11  O   LIG    1        0.742  -4.173  -0.456  0.00  0.00    -0.275 OA
ENDROOT
BRANCH   1  13
ATOM     12  C   LIG    1       -1.373  -1.821  -1.117  0.00  0.00    +0.018 C 
ATOM     13  C   LIG    1       -0.950  -2.629   0.112  0.00  0.00    +0.082 C 
BRANCH  13  14
ATOM     14  C   LIG    1       -1.844  -3.863   0.244  0.00  0.00    +0.078 C 
BRANCH  14  15
ATOM     15  S   LIG    1       -3.550  -3.341   0.576  0.00  0.00    -0.178 S 
ATOM     16  H   LIG    1       -4.231  -4.497   0.670  0.00  0.00    +0.102 HD
ENDBRANCH  14  15
ENDBRANCH  13  14
ENDBRANCH   1  13
BRANCH  10  17
ATOM     17  C   LIG    1        3.167  -3.664   1.293  0.00  0.00    +0.326 C 
ATOM     18  O   LIG    1        2.248  -4.159   1.900  0.00  0.00    -0.249 OA
BRANCH  17  19
ATOM     19  O   LIG    1        4.421  -4.095   1.504  0.00  0.00    -0.479 OA
ATOM     20  H   LIG    1        5.134  -3.711   1.033  0.00  0.00    +0.295 HD
ENDBRANCH  17  19
ENDBRANCH  10  17
TORSDOF 5
