REMARK  Name = ZINC12402859
REMARK                            x       y       z     vdW  Elec       q    Type
REMARK                         _______ _______ _______ _____ _____    ______ ____
ROOT
ATOM      1  C   LIG    1       -0.838   1.973  -1.185  0.00  0.00    +0.270 C 
ATOM      2  C   LIG    1       -0.017   1.425   0.010  0.00  0.00    +0.196 C 
ATOM      3  C   LIG    1       -0.814   1.960   1.225  0.00  0.00    +0.178 C 
ATOM      4  C   LIG    1       -1.623   3.141   0.655  0.00  0.00    +0.178 C 
ATOM      5  O   LIG    1       -1.264   3.276  -0.731  0.00  0.00    -0.344 OA
ENDROOT
BRANCH   1  10
ATOM      6  C   LIG    1       -0.250   1.538  -3.578  0.00  0.00    +0.223 A 
ATOM      7  N   LIG    1        0.728   1.869  -4.382  0.00  0.00    -0.211 NA
ATOM      8  C   LIG    1        1.586   2.629  -3.676  0.00  0.00    +0.236 A 
ATOM      9  N   LIG    1        1.109   2.750  -2.457  0.00  0.00    -0.142 NA
ATOM     10  N   LIG    1        0.004   2.092  -2.378  0.00  0.00    -0.220 N 
BRANCH   8  11
ATOM     11  C   LIG    1        2.838   3.228  -4.185  0.00  0.00    +0.281 C 
ATOM     12  N   LIG    1        3.209   3.030  -5.465  0.00  0.00    -0.323 N 
ATOM     13  H   LIG    1        4.031   3.422  -5.798  0.00  0.00    +0.145 HD
ATOM     14  H   LIG    1        2.654   2.494  -6.053  0.00  0.00    +0.145 HD
ATOM     15  O   LIG    1        3.534   3.899  -3.447  0.00  0.00    -0.267 OA
ENDBRANCH   8  11
ENDBRANCH   1  10
BRANCH   2  16
ATOM     16  O   LIG    1        0.002  -0.004   0.002  0.00  0.00    -0.385 OA
ATOM     17  H   LIG    1        0.451  -0.387  -0.764  0.00  0.00    +0.210 HD
ENDBRANCH   2  16
BRANCH   3  18
ATOM     18  O   LIG    1       -1.689   0.951   1.733  0.00  0.00    -0.386 OA
ATOM     19  H   LIG    1       -1.233   0.159   2.052  0.00  0.00    +0.210 HD
ENDBRANCH   3  18
BRANCH   4  20
ATOM     20  C   LIG    1       -1.274   4.424   1.413  0.00  0.00    +0.206 C 
BRANCH  20  21
ATOM     21  O   LIG    1       -2.111   5.489   0.958  0.00  0.00    -0.284 OA
BRANCH  21  22
ATOM     22  P   LIG    1       -2.019   6.987   1.540  0.00  0.00    +0.472 P 
ATOM     23  O   LIG    1       -2.173   6.955   3.012  0.00  0.00    -0.228 OA
BRANCH  22  24
ATOM     24  O   LIG    1       -3.190   7.886   0.897  0.00  0.00    -0.303 OA
ATOM     25  H   LIG    1       -4.052   7.503   1.124  0.00  0.00    +0.222 HD
ENDBRANCH  22  24
BRANCH  22  26
ATOM     26  O   LIG    1       -0.588   7.622   1.164  0.00  0.00    -0.303 OA
ATOM     27  H   LIG    1        0.118   7.080   1.551  0.00  0.00    +0.222 HD
ENDBRANCH  22  26
ENDBRANCH  21  22
ENDBRANCH  20  21
ENDBRANCH   4  20
TORSDOF 9
