REMARK  Name = ZINC12690557
REMARK                            x       y       z     vdW  Elec       q    Type
REMARK                         _______ _______ _______ _____ _____    ______ ____
ROOT
ATOM      1  C   LIG    1       -2.099   4.466  -0.190  0.00  0.00    +0.162 A 
ATOM      2  C   LIG    1       -1.000   3.632  -0.129  0.00  0.00    +0.057 A 
ATOM      3  C   LIG    1       -1.181   2.246  -0.051  0.00  0.00    -0.020 A 
ATOM      4  C   LIG    1       -2.476   1.714  -0.025  0.00  0.00    +0.012 A 
ATOM      5  C   LIG    1       -3.566   2.554  -0.082  0.00  0.00    +0.050 A 
ATOM      6  C   LIG    1       -3.385   3.928  -0.164  0.00  0.00    +0.162 A 
ENDROOT
BRANCH   3   7
ATOM      7  C   LIG    1       -0.016   1.353   0.009  0.00  0.00    +0.028 C 
ATOM      8  C   LIG    1        1.231   1.851  -0.188  0.00  0.00    +0.077 C 
ATOM      9  C   LIG    1        2.543   1.194  -0.022  0.00  0.00    +0.256 C 
ATOM     10  N   LIG    1        3.611   1.928  -0.290  0.00  0.00    -0.270 N 
ATOM     11  H   LIG    1        4.492   1.534  -0.194  0.00  0.00    +0.156 HD
ATOM     12  C   LIG    1        3.502   3.210  -0.693  0.00  0.00    +0.118 C 
ATOM     13  S   LIG    1        4.753   4.311  -1.084  0.00  0.00    -0.027 S 
ATOM     14  O   LIG    1        2.638   0.037   0.342  0.00  0.00    -0.269 OA
ATOM     15  S   LIG    1        1.737   3.478  -0.728  0.00  0.00    -0.061 S 
ENDBRANCH   3   7
BRANCH   6  16
ATOM     16  O   LIG    1       -4.464   4.751  -0.220  0.00  0.00    -0.491 OA
ATOM     17  C   LIG    1       -5.753   4.134  -0.189  0.00  0.00    +0.277 C 
ENDBRANCH   6  16
BRANCH   1  18
ATOM     18  O   LIG    1       -1.927   5.812  -0.272  0.00  0.00    -0.489 OA
BRANCH  18  20
ATOM     19  C   LIG    1       -0.589   7.822  -0.387  0.00  0.00    +0.048 C 
ATOM     20  C   LIG    1       -0.582   6.295  -0.294  0.00  0.00    +0.226 C 
ENDBRANCH  18  20
ENDBRANCH   1  18
TORSDOF 4
