REMARK  Name = ZINC12732678
REMARK                            x       y       z     vdW  Elec       q    Type
REMARK                         _______ _______ _______ _____ _____    ______ ____
ROOT
ATOM      1  C   LIG    1        0.150  -6.144   1.228  0.00  0.00    +0.100 C 
ATOM      2  C   LIG    1        0.049  -6.711   2.505  0.00  0.00    +0.074 C 
ENDROOT
BRANCH   2   3
ATOM      3  C   LIG    1        0.038  -5.896   3.627  0.00  0.00    +0.131 A 
ATOM      4  C   LIG    1        0.078  -4.426   3.637  0.00  0.00    +0.050 A 
ATOM      5  C   LIG    1        0.049  -4.052   4.941  0.00  0.00    +0.050 A 
ATOM      6  C   LIG    1       -0.007  -5.233   5.723  0.00  0.00    +0.136 A 
ATOM      7  O   LIG    1       -0.018  -6.306   4.913  0.00  0.00    -0.455 OA
BRANCH   6   8
ATOM      8  C   LIG    1       -0.050  -5.277   7.139  0.00  0.00    +0.019 A 
ATOM      9  C   LIG    1       -0.153  -4.085   7.882  0.00  0.00    +0.012 A 
ATOM     10  C   LIG    1       -0.195  -4.138   9.246  0.00  0.00    +0.003 A 
ATOM     11  C   LIG    1       -0.136  -5.361   9.900  0.00  0.00    +0.032 A 
ATOM     12  C   LIG    1       -0.034  -6.541   9.178  0.00  0.00    +0.122 A 
ATOM     13  C   LIG    1        0.004  -6.512   7.813  0.00  0.00    +0.044 A 
BRANCH  12  14
ATOM     14  N   LIG    1        0.029  -7.837   9.890  0.00  0.00    +0.006 N 
ATOM     15  O   LIG    1       -0.112  -7.878  11.198  0.00  0.00    -0.130 OA
BRANCH  14  16
ATOM     16  O   LIG    1        0.227  -8.950   9.214  0.00  0.00    -0.396 OA
ATOM     17  H   LIG    1        0.328  -8.922   8.283  0.00  0.00    +0.329 HD
ENDBRANCH  14  16
ENDBRANCH  12  14
ENDBRANCH   6   8
ENDBRANCH   2   3
BRANCH   1  19
ATOM     18  C   LIG    1        1.166  -4.157   0.531  0.00  0.00    +0.248 C 
ATOM     19  N   LIG    1        0.117  -4.801   1.081  0.00  0.00    -0.277 N 
ATOM     20  H   LIG    1       -0.662  -4.300   1.370  0.00  0.00    +0.155 HD
ATOM     21  O   LIG    1        2.102  -4.790   0.087  0.00  0.00    -0.270 OA
BRANCH  18  26
ATOM     22  C   LIG    1        1.208   1.592   0.291  0.00  0.00    +0.044 C 
ATOM     23  C   LIG    1        1.197   0.086   0.354  0.00  0.00    -0.050 A 
ATOM     24  C   LIG    1        2.311  -0.628  -0.049  0.00  0.00    +0.004 A 
ATOM     25  C   LIG    1        2.308  -2.006   0.006  0.00  0.00    +0.013 A 
ATOM     26  C   LIG    1        1.177  -2.681   0.470  0.00  0.00    +0.037 A 
ATOM     27  C   LIG    1        0.055  -1.954   0.875  0.00  0.00    +0.013 A 
ATOM     28  C   LIG    1        0.074  -0.576   0.820  0.00  0.00    +0.004 A 
ENDBRANCH  18  26
ENDBRANCH   1  19
BRANCH   1  29
ATOM     29  C   LIG    1        0.293  -7.020   0.032  0.00  0.00    +0.258 C 
ATOM     30  N   LIG    1        0.374  -6.475  -1.197  0.00  0.00    -0.310 N 
ATOM     31  H   LIG    1        0.411  -5.511  -1.299  0.00  0.00    +0.149 HD
ATOM     32  O   LIG    1        0.338  -8.226   0.166  0.00  0.00    -0.269 OA
BRANCH  30  33
ATOM     33  C   LIG    1        0.404  -7.338  -2.381  0.00  0.00    +0.103 C 
BRANCH  33  34
ATOM     34  C   LIG    1        0.497  -6.473  -3.640  0.00  0.00    +0.000 C 
BRANCH  34  35
ATOM     35  C   LIG    1        0.529  -7.375  -4.876  0.00  0.00    -0.078 C 
BRANCH  35  36
ATOM     36  N   LIG    1        0.618  -6.545  -6.085  0.00  0.00    +0.376 N 
ATOM     37  H   LIG    1        1.415  -5.931  -6.014  0.00  0.00    -0.083 HD
ATOM     38  C   LIG    1       -0.606  -5.743  -6.220  0.00  0.00    -0.097 C 
ATOM     39  C   LIG    1        0.769  -7.410  -7.263  0.00  0.00    -0.097 C 
ENDBRANCH  35  36
ENDBRANCH  34  35
ENDBRANCH  33  34
ENDBRANCH  30  33
ENDBRANCH   1  29
TORSDOF 11
