REMARK  Name = ZINC12428587
REMARK                            x       y       z     vdW  Elec       q    Type
REMARK                         _______ _______ _______ _____ _____    ______ ____
ROOT
ATOM      1  C   LIG    1        0.060  -4.261  -0.005  0.00  0.00    +0.136 A 
ATOM      2  C   LIG    1        0.088  -5.053   1.108  0.00  0.00    +0.050 A 
ATOM      3  C   LIG    1        0.096  -6.380   0.669  0.00  0.00    +0.050 A 
ATOM      4  C   LIG    1        0.083  -6.343  -0.714  0.00  0.00    +0.130 A 
ATOM      5  O   LIG    1        0.061  -5.049  -1.096  0.00  0.00    -0.455 OA
ENDROOT
BRANCH   4   6
ATOM      6  C   LIG    1        0.091  -7.462  -1.573  0.00  0.00    +0.066 C 
ATOM      7  C   LIG    1        0.075  -7.284  -2.926  0.00  0.00    +0.081 C 
ATOM      8  C   LIG    1        0.079  -8.260  -3.965  0.00  0.00    +0.265 C 
ATOM      9  N   LIG    1        0.061  -7.845  -5.220  0.00  0.00    -0.192 N 
ATOM     10  C   LIG    1        0.039  -6.487  -5.498  0.00  0.00    +0.167 C 
ATOM     11  N   LIG    1        0.019  -5.890  -6.658  0.00  0.00    -0.279 NA
ATOM     12  H   LIG    1        0.005  -4.922  -6.705  0.00  0.00    +0.189 HD
ATOM     13  O   LIG    1        0.099  -9.450  -3.703  0.00  0.00    -0.269 OA
ATOM     14  S   LIG    1        0.037  -5.764  -3.865  0.00  0.00    -0.049 S 
BRANCH   9  15
ATOM     15  C   LIG    1        0.065  -8.769  -6.260  0.00  0.00    +0.173 A 
ATOM     16  N   LIG    1        0.049  -8.553  -7.561  0.00  0.00    -0.233 NA
ATOM     17  C   LIG    1        0.056  -9.553  -8.420  0.00  0.00    +0.120 A 
ATOM     18  C   LIG    1        0.079 -10.820  -7.937  0.00  0.00    +0.068 A 
ATOM     19  S   LIG    1        0.099 -10.504  -6.178  0.00  0.00    -0.060 S 
ENDBRANCH   9  15
ENDBRANCH   4   6
BRANCH   1  25
ATOM     20  C   LIG    1        0.042  -2.082   1.199  0.00  0.00    +0.015 A 
ATOM     21  C   LIG    1        0.023  -0.705   1.201  0.00  0.00    +0.047 A 
ATOM     22  C   LIG    1        0.002  -0.004   0.002  0.00  0.00    +0.131 A 
ATOM     23  C   LIG    1       -0.006  -0.699  -1.217  0.00  0.00    +0.101 A 
ATOM     24  C   LIG    1        0.019  -2.093  -1.219  0.00  0.00    +0.030 A 
ATOM     25  C   LIG    1        0.040  -2.786  -0.010  0.00  0.00    +0.018 A 
BRANCH  22  26
ATOM     26  O   LIG    1       -0.016   1.352   0.009  0.00  0.00    -0.506 OA
ATOM     27  H   LIG    1        0.862   1.757   0.003  0.00  0.00    +0.292 HD
ENDBRANCH  22  26
BRANCH  23  28
ATOM     28  C   LIG    1       -0.034   0.042  -2.491  0.00  0.00    +0.340 C 
ATOM     29  O   LIG    1       -0.051   1.257  -2.487  0.00  0.00    -0.245 OA
BRANCH  28  30
ATOM     30  O   LIG    1       -0.042  -0.628  -3.661  0.00  0.00    -0.477 OA
ATOM     31  H   LIG    1       -0.029  -1.565  -3.664  0.00  0.00    +0.295 HD
ENDBRANCH  28  30
ENDBRANCH  23  28
ENDBRANCH   1  25
TORSDOF 6
