REMARK  Name = ZINC12354826
REMARK                            x       y       z     vdW  Elec       q    Type
REMARK                         _______ _______ _______ _____ _____    ______ ____
ROOT
ATOM      1  N   LIG    1       -0.602  -2.995   0.094  0.00  0.00    -0.320 N 
ATOM      2  H   LIG    1       -0.965  -2.095   0.102  0.00  0.00    +0.152 HD
ENDROOT
BRANCH   1  11
ATOM      3  C   LIG    1       -0.099   1.263  -0.962  0.00  0.00    +0.001 A 
ATOM      4  C   LIG    1        1.077   1.982  -1.103  0.00  0.00    +0.002 A 
ATOM      5  C   LIG    1        2.301   1.361  -0.962  0.00  0.00    +0.024 A 
ATOM      6  C   LIG    1        2.365   0.001  -0.676  0.00  0.00    +0.042 A 
ATOM      7  C   LIG    1        1.173  -0.722  -0.535  0.00  0.00    +0.010 A 
ATOM      8  C   LIG    1        1.566  -2.119  -0.238  0.00  0.00    +0.060 C 
ATOM      9  C   LIG    1        3.033  -2.109  -0.228  0.00  0.00    +0.250 C 
ATOM     10  O   LIG    1        3.754  -3.069  -0.020  0.00  0.00    -0.270 OA
ATOM     11  C   LIG    1        0.741  -3.185  -0.022  0.00  0.00    +0.085 C 
ATOM     12  N   LIG    1        3.442  -0.856  -0.487  0.00  0.00    -0.281 N 
ATOM     13  H   LIG    1        4.372  -0.583  -0.537  0.00  0.00    +0.155 HD
ATOM     14  C   LIG    1       -0.055  -0.087  -0.679  0.00  0.00    +0.010 A 
ENDBRANCH   1  11
BRANCH   1  15
ATOM     15  C   LIG    1       -1.457  -4.095   0.202  0.00  0.00    +0.031 A 
ATOM     16  C   LIG    1       -0.938  -5.383   0.196  0.00  0.00    +0.025 A 
ATOM     17  C   LIG    1       -1.786  -6.468   0.302  0.00  0.00    +0.030 A 
ATOM     18  C   LIG    1       -3.150  -6.273   0.414  0.00  0.00    +0.105 A 
ATOM     19  C   LIG    1       -3.671  -4.991   0.420  0.00  0.00    +0.030 A 
ATOM     20  C   LIG    1       -2.828  -3.902   0.320  0.00  0.00    +0.025 A 
BRANCH  18  21
ATOM     21  S   LIG    1       -4.229  -7.660   0.548  0.00  0.00    +0.056 S 
ATOM     22  O   LIG    1       -3.545  -8.763  -0.031  0.00  0.00    -0.153 OA
ATOM     23  O   LIG    1       -5.504  -7.229   0.092  0.00  0.00    -0.153 OA
BRANCH  21  24
ATOM     24  N   LIG    1       -4.393  -7.998   2.161  0.00  0.00    -0.204 NA
ATOM     25  H   LIG    1       -4.953  -8.736   2.447  0.00  0.00    +0.144 HD
ATOM     26  H   LIG    1       -3.929  -7.458   2.819  0.00  0.00    +0.144 HD
ENDBRANCH  21  24
ENDBRANCH  18  21
ENDBRANCH   1  15
TORSDOF 4
