REMARK  Name = ZINC11422302
REMARK                            x       y       z     vdW  Elec       q    Type
REMARK                         _______ _______ _______ _____ _____    ______ ____
ROOT
ATOM      1  C   LIG    1       -2.130   1.503   1.227  0.00  0.00    +0.010 A 
ATOM      2  C   LIG    1       -2.861   1.922   2.320  0.00  0.00    +0.049 A 
ATOM      3  C   LIG    1       -2.207   2.411   3.439  0.00  0.00    +0.159 A 
ATOM      4  C   LIG    1       -0.819   2.476   3.449  0.00  0.00    +0.162 A 
ATOM      5  C   LIG    1       -0.086   2.054   2.344  0.00  0.00    +0.003 A 
ATOM      6  C   LIG    1        1.415   2.157   2.418  0.00  0.00    +0.038 C 
ATOM      7  C   LIG    1        2.066   1.281   1.349  0.00  0.00    -0.009 C 
ATOM      8  C   LIG    1        1.422   1.609  -0.003  0.00  0.00    -0.041 C 
ATOM      9  C   LIG    1       -0.013   1.086   0.008  0.00  0.00    +0.130 C 
ATOM     10  C   LIG    1       -0.743   1.566   1.236  0.00  0.00    -0.014 A 
ENDROOT
BRANCH   8  11
ATOM     11  N   LIG    1        2.164   0.967  -1.102  0.00  0.00    +0.382 N 
ATOM     12  H   LIG    1        1.724   1.213  -1.996  0.00  0.00    -0.090 HD
ATOM     13  H   LIG    1        2.147  -0.046  -0.990  0.00  0.00    -0.090 HD
ATOM     14  H   LIG    1        3.130   1.290  -1.107  0.00  0.00    -0.090 HD
ENDBRANCH   8  11
BRANCH   3  15
ATOM     15  O   LIG    1       -2.919   2.825   4.521  0.00  0.00    -0.503 OA
ATOM     16  H   LIG    1       -3.161   3.760   4.499  0.00  0.00    +0.292 HD
ENDBRANCH   3  15
BRANCH   4  17
ATOM     17  O   LIG    1       -0.173   2.956   4.545  0.00  0.00    -0.503 OA
ATOM     18  H   LIG    1       -0.023   3.911   4.526  0.00  0.00    +0.292 HD
ENDBRANCH   4  17
BRANCH   9  19
ATOM     19  O   LIG    1       -0.694   1.554  -1.158  0.00  0.00    -0.389 OA
ATOM     20  H   LIG    1       -1.611   1.255  -1.224  0.00  0.00    +0.210 HD
ENDBRANCH   9  19
TORSDOF 4
