REMARK  Name = ZINC08701365
REMARK                            x       y       z     vdW  Elec       q    Type
REMARK                         _______ _______ _______ _____ _____    ______ ____
ROOT
ATOM      1  C   LIG    1       -1.216   1.751   0.017  0.00  0.00    +0.002 A 
ATOM      2  C   LIG    1       -1.243   3.138   0.030  0.00  0.00    +0.002 A 
ATOM      3  C   LIG    1       -0.071   3.860   0.023  0.00  0.00    +0.030 A 
ATOM      4  C   LIG    1        1.156   3.191   0.008  0.00  0.00    +0.091 A 
ATOM      5  C   LIG    1        1.178   1.787   0.000  0.00  0.00    +0.067 A 
ATOM      6  N   LIG    1        2.514   1.423  -0.014  0.00  0.00    -0.326 N 
ATOM      7  C   LIG    1        3.248   2.574  -0.015  0.00  0.00    +0.194 A 
ATOM      8  H   LIG    1        2.875   0.490  -0.022  0.00  0.00    +0.169 HD
ATOM      9  N   LIG    1        2.448   3.611  -0.002  0.00  0.00    -0.215 NA
ATOM     10  C   LIG    1       -0.013   1.076   0.008  0.00  0.00    +0.028 A 
ENDROOT
BRANCH   7  11
ATOM     11  N   LIG    1        4.625   2.636  -0.028  0.00  0.00    -0.311 N 
ATOM     12  H   LIG    1        5.072   3.497  -0.027  0.00  0.00    +0.149 HD
BRANCH  11  13
ATOM     13  C   LIG    1        5.414   1.401  -0.042  0.00  0.00    +0.139 C 
BRANCH  13  14
ATOM     14  C   LIG    1        6.882   1.743  -0.055  0.00  0.00    -0.030 A 
ATOM     15  C   LIG    1        7.544   1.901  -1.258  0.00  0.00    +0.006 A 
ATOM     16  C   LIG    1        8.889   2.220  -1.270  0.00  0.00    +0.020 A 
ATOM     17  C   LIG    1        9.575   2.370  -0.077  0.00  0.00    +0.041 A 
ATOM     18 CL   LIG    1       11.265   2.764  -0.092  0.00  0.00    -0.084 Cl
ATOM     19  C   LIG    1        8.912   2.206   1.126  0.00  0.00    +0.020 A 
ATOM     20  C   LIG    1        7.566   1.893   1.137  0.00  0.00    +0.006 A 
ENDBRANCH  13  14
ENDBRANCH  11  13
ENDBRANCH   7  11
TORSDOF 3
