REMARK  Name = ZINC12602060
REMARK                            x       y       z     vdW  Elec       q    Type
REMARK                         _______ _______ _______ _____ _____    ______ ____
ROOT
ATOM      1  N   LIG    1       -1.697   7.142   0.060  0.00  0.00    -0.323 N 
ATOM      2  H   LIG    1       -0.992   7.808   0.058  0.00  0.00    +0.148 HD
ENDROOT
BRANCH   1   9
ATOM      3  C   LIG    1        1.175   1.793   0.001  0.00  0.00    +0.002 A 
ATOM      4  C   LIG    1       -0.013   1.076   0.008  0.00  0.00    +0.001 A 
ATOM      5  C   LIG    1       -1.216   1.758   0.017  0.00  0.00    +0.017 A 
ATOM      6  C   LIG    1       -1.216   3.130   0.031  0.00  0.00    +0.041 A 
ATOM      7  C   LIG    1       -0.027   3.894   0.024  0.00  0.00    +0.080 A 
ATOM      8  N   LIG    1       -0.192   5.235   0.034  0.00  0.00    -0.225 NA
ATOM      9  C   LIG    1       -1.377   5.799   0.049  0.00  0.00    +0.159 A 
ATOM     10  S   LIG    1       -2.472   4.387   0.051  0.00  0.00    -0.052 S 
ATOM     11  C   LIG    1        1.184   3.163   0.008  0.00  0.00    +0.029 A 
ENDBRANCH   1   9
BRANCH   1  12
ATOM     12  C   LIG    1       -3.101   7.561   0.077  0.00  0.00    +0.105 C 
BRANCH  12  13
ATOM     13  C   LIG    1       -3.177   9.089   0.087  0.00  0.00    +0.040 C 
BRANCH  13  14
ATOM     14  C   LIG    1       -4.643   9.526   0.104  0.00  0.00    +0.124 C 
BRANCH  14  15
ATOM     15  N   LIG    1       -4.716  10.989   0.114  0.00  0.00    -0.337 N 
ATOM     16  C   LIG    1       -4.751  11.793   1.222  0.00  0.00    +0.106 A 
ATOM     17  C   LIG    1       -4.813  13.063   0.779  0.00  0.00    +0.130 A 
ATOM     18  N   LIG    1       -4.825  13.036  -0.562  0.00  0.00    -0.244 NA
ATOM     19  C   LIG    1       -4.767  11.796  -0.967  0.00  0.00    +0.199 A 
ENDBRANCH  14  15
ENDBRANCH  13  14
ENDBRANCH  12  13
ENDBRANCH   1  12
TORSDOF 5
