REMARK  Name = ZINC12481420
REMARK                            x       y       z     vdW  Elec       q    Type
REMARK                         _______ _______ _______ _____ _____    ______ ____
ROOT
ATOM      1  C   LIG    1       -0.018   1.503   0.010  0.00  0.00    +0.044 C 
ATOM      2  C   LIG    1        0.002  -0.004   0.002  0.00  0.00    -0.048 A 
ATOM      3  C   LIG    1        0.006  -0.686  -1.207  0.00  0.00    +0.005 A 
ATOM      4  C   LIG    1        0.024  -2.052  -1.236  0.00  0.00    +0.030 A 
ATOM      5  C   LIG    1        0.040  -2.775  -0.039  0.00  0.00    +0.090 A 
ATOM      6  C   LIG    1        0.037  -2.083   1.186  0.00  0.00    +0.067 A 
ATOM      7  N   LIG    1        0.055  -3.048   2.173  0.00  0.00    -0.337 N 
ATOM      8  C   LIG    1        0.068  -4.266   1.549  0.00  0.00    +0.158 A 
ATOM      9  H   LIG    1        0.057  -2.892   3.130  0.00  0.00    +0.167 HD
ATOM     10  N   LIG    1        0.059  -4.098   0.249  0.00  0.00    -0.226 NA
ATOM     11  C   LIG    1        0.023  -0.695   1.195  0.00  0.00    +0.031 A 
ENDROOT
BRANCH   8  12
ATOM     12  C   LIG    1        0.091  -5.575   2.238  0.00  0.00    +0.106 A 
ATOM     13  C   LIG    1        0.108  -6.751   1.488  0.00  0.00    +0.031 A 
ATOM     14  C   LIG    1        0.130  -7.968   2.147  0.00  0.00    +0.004 A 
ATOM     15  C   LIG    1        0.132  -7.970   3.535  0.00  0.00    +0.020 A 
ATOM     16  C   LIG    1        0.114  -6.765   4.215  0.00  0.00    +0.111 A 
ATOM     17  N   LIG    1        0.099  -5.621   3.564  0.00  0.00    -0.252 NA
ENDBRANCH   8  12
TORSDOF 1
