REMARK  Name = ZINC12427841
REMARK                            x       y       z     vdW  Elec       q    Type
REMARK                         _______ _______ _______ _____ _____    ______ ____
ROOT
ATOM      1  C   LIG    1        0.036  -4.203  -0.470  0.00  0.00    +0.155 C 
ATOM      2  N   LIG    1       -0.748  -3.006  -0.158  0.00  0.00    -0.280 N 
ATOM      3  C   LIG    1       -0.135  -1.762  -0.139  0.00  0.00    +0.170 A 
ATOM      4  C   LIG    1       -0.906  -0.639   0.162  0.00  0.00    +0.157 A 
ATOM      5  N   LIG    1       -0.047   0.449   0.109  0.00  0.00    -0.277 N 
ATOM      6  C   LIG    1        0.047   1.818   0.254  0.00  0.00    +0.121 A 
ATOM      7  C   LIG    1        1.321   2.180   0.024  0.00  0.00    +0.068 A 
ATOM      8  N   LIG    1        2.044   1.031  -0.269  0.00  0.00    -0.309 N 
ATOM      9  C   LIG    1        1.183  -0.033  -0.212  0.00  0.00    +0.218 A 
ATOM     10  C   LIG    1       -2.274  -0.801   0.435  0.00  0.00    +0.280 A 
ATOM     11  N   LIG    1       -2.813  -2.037   0.401  0.00  0.00    -0.273 N 
ATOM     12  H   LIG    1       -3.787  -2.154   0.595  0.00  0.00    +0.173 HD
ATOM     13  O   LIG    1       -2.967   0.167   0.699  0.00  0.00    -0.265 OA
ATOM     14  N   LIG    1        1.111  -1.348  -0.355  0.00  0.00    -0.193 NA
ATOM     15  C   LIG    1       -2.063  -3.113   0.110  0.00  0.00    +0.331 A 
ATOM     16  O   LIG    1       -2.584  -4.211   0.089  0.00  0.00    -0.246 OA
ENDROOT
BRANCH   7  17
ATOM     17  C   LIG    1        1.858   3.558   0.075  0.00  0.00    -0.000 A 
ATOM     18  C   LIG    1        3.029   3.879  -0.612  0.00  0.00    +0.010 A 
ATOM     19  C   LIG    1        3.521   5.167  -0.564  0.00  0.00    +0.001 A 
ATOM     20  C   LIG    1        2.862   6.136   0.171  0.00  0.00    +0.000 A 
ATOM     21  C   LIG    1        1.704   5.822   0.858  0.00  0.00    +0.001 A 
ATOM     22  C   LIG    1        1.198   4.540   0.815  0.00  0.00    +0.010 A 
ENDBRANCH   7  17
BRANCH   8  23
ATOM     23  C   LIG    1        3.474   0.969  -0.583  0.00  0.00    +0.125 C 
BRANCH  23  24
ATOM     24  C   LIG    1        3.664   0.983  -2.101  0.00  0.00    +0.024 C 
BRANCH  24  25
ATOM     25  C   LIG    1        5.158   1.021  -2.428  0.00  0.00    +0.029 C 
BRANCH  25  26
ATOM     26  C   LIG    1        5.348   1.035  -3.946  0.00  0.00    +0.156 C 
BRANCH  26  27
ATOM     27  O   LIG    1        6.743   1.071  -4.251  0.00  0.00    -0.395 OA
ATOM     28  H   LIG    1        6.939   1.081  -5.198  0.00  0.00    +0.209 HD
ENDBRANCH  26  27
ENDBRANCH  25  26
ENDBRANCH  24  25
ENDBRANCH  23  24
ENDBRANCH   8  23
TORSDOF 6
