REMARK  Name = ZINC08981465
REMARK                            x       y       z     vdW  Elec       q    Type
REMARK                         _______ _______ _______ _____ _____    ______ ____
ROOT
ATOM      1  C   LIG    1        2.904   6.354   0.010  0.00  0.00    +0.017 A 
ATOM      2  C   LIG    1        2.179   7.481   0.023  0.00  0.00    +0.048 A 
ATOM      3  S   LIG    1        0.498   6.888   0.036  0.00  0.00    -0.079 S 
ATOM      4  C   LIG    1        0.820   5.143   0.023  0.00  0.00    +0.085 A 
ATOM      5  N   LIG    1        0.301   3.893   0.021  0.00  0.00    -0.344 N 
ATOM      6  H   LIG    1       -0.643   3.670   0.028  0.00  0.00    +0.167 HD
ATOM      7  CA  LIG    1        1.347   2.985   0.005  0.00  0.00    +0.126 A 
ATOM      8  C   LIG    1        2.521   3.676   0.003  0.00  0.00    +0.043 A 
ATOM      9  C   LIG    1        2.217   5.069   0.009  0.00  0.00    +0.008 A 
ENDROOT
BRANCH   7  10
ATOM     10  C   LIG    1        1.214   1.528  -0.001  0.00  0.00    +0.353 C 
ATOM     11  O   LIG    1        2.208   0.827  -0.015  0.00  0.00    -0.243 OA
BRANCH  10  12
ATOM     12  OXT LIG    1       -0.011   0.963   0.007  0.00  0.00    -0.476 OA
ATOM     13  HXT LIG    1       -0.776   1.503   0.018  0.00  0.00    +0.295 HD
ENDBRANCH  10  12
ENDBRANCH   7  10
TORSDOF 2
