REMARK  Name = ZINC12526516
REMARK                            x       y       z     vdW  Elec       q    Type
REMARK                         _______ _______ _______ _____ _____    ______ ____
ROOT
ATOM      1  C   LIG    1        0.411   3.331   6.887  0.00  0.00    +0.037 A 
ATOM      2  C   LIG    1        1.778   3.042   6.857  0.00  0.00    +0.016 A 
ATOM      3  C   LIG    1        2.570   3.353   7.940  0.00  0.00    +0.047 A 
ATOM      4  C   LIG    1        2.008   3.944   9.066  0.00  0.00    +0.128 A 
ATOM      5  C   LIG    1        0.648   4.228   9.102  0.00  0.00    +0.047 A 
ATOM      6  C   LIG    1       -0.149   3.925   8.021  0.00  0.00    +0.016 A 
ENDROOT
BRANCH   1   9
ATOM      7  N   LIG    1        0.103   2.432   4.633  0.00  0.00    -0.266 N 
ATOM      8  H   LIG    1        1.034   2.162   4.639  0.00  0.00    +0.157 HD
ATOM      9  C   LIG    1       -0.439   3.005   5.726  0.00  0.00    +0.249 C 
ATOM     10  O   LIG    1       -1.629   3.253   5.755  0.00  0.00    -0.270 OA
BRANCH   7  16
ATOM     11  C   LIG    1       -4.211   2.646   2.563  0.00  0.00    +0.065 C 
ATOM     12  C   LIG    1       -2.742   2.321   2.474  0.00  0.00    +0.040 A 
ATOM     13  C   LIG    1       -2.222   1.835   1.290  0.00  0.00    +0.023 A 
ATOM     14  C   LIG    1       -0.868   1.542   1.212  0.00  0.00    +0.005 A 
ATOM     15  C   LIG    1       -0.083   1.740   2.335  0.00  0.00    +0.044 A 
ATOM     16  C   LIG    1       -0.675   2.228   3.495  0.00  0.00    +0.125 A 
ATOM     17  N   LIG    1       -1.970   2.500   3.528  0.00  0.00    -0.237 NA
ENDBRANCH   7  16
ENDBRANCH   1   9
BRANCH   4  18
ATOM     18  O   LIG    1        2.791   4.244  10.134  0.00  0.00    -0.456 OA
BRANCH  18  19
ATOM     19  C   LIG    1        2.734   3.425  11.216  0.00  0.00    +0.128 A 
ATOM     20  C   LIG    1        1.827   2.375  11.247  0.00  0.00    +0.046 A 
ATOM     21  C   LIG    1        1.776   1.540  12.347  0.00  0.00    +0.004 A 
ATOM     22  C   LIG    1        2.620   1.756  13.420  0.00  0.00    +0.000 A 
ATOM     23  C   LIG    1        3.520   2.805  13.395  0.00  0.00    +0.004 A 
ATOM     24  C   LIG    1        3.580   3.640  12.296  0.00  0.00    +0.046 A 
ENDBRANCH  18  19
ENDBRANCH   4  18
TORSDOF 4
