REMARK  Name = ZINC12377202
REMARK                            x       y       z     vdW  Elec       q    Type
REMARK                         _______ _______ _______ _____ _____    ______ ____
ROOT
ATOM      1  C   LIG    1       -0.017   1.376   0.010  0.00  0.00    +0.001 A 
ATOM      2  C   LIG    1        1.172   2.086   0.002  0.00  0.00    +0.002 A 
ATOM      3  C   LIG    1        2.386   1.427  -0.013  0.00  0.00    +0.024 A 
ATOM      4  C   LIG    1        2.426   0.038  -0.021  0.00  0.00    +0.043 A 
ATOM      5  C   LIG    1        1.220  -0.678  -0.013  0.00  0.00    +0.027 A 
ATOM      6  C   LIG    1        1.583  -2.111  -0.024  0.00  0.00    +0.135 C 
ATOM      7  C   LIG    1        3.068  -2.129  -0.039  0.00  0.00    +0.267 C 
ATOM      8  O   LIG    1        3.772  -3.120  -0.052  0.00  0.00    -0.268 OA
ATOM      9  N   LIG    1        0.771  -3.141  -0.022  0.00  0.00    -0.242 NA
ATOM     10  N   LIG    1        3.493  -0.854  -0.037  0.00  0.00    -0.280 N 
ATOM     11  H   LIG    1        4.426  -0.590  -0.045  0.00  0.00    +0.155 HD
ATOM     12  C   LIG    1        0.002  -0.004   0.002  0.00  0.00    +0.012 A 
ENDROOT
BRANCH   9  13
ATOM     13  C   LIG    1        1.275  -4.404  -0.034  0.00  0.00    +0.065 A 
ATOM     14  C   LIG    1        2.328  -4.735  -0.898  0.00  0.00    +0.028 A 
ATOM     15  C   LIG    1        2.832  -6.017  -0.903  0.00  0.00    +0.003 A 
ATOM     16  C   LIG    1        2.303  -6.977  -0.057  0.00  0.00    +0.012 A 
ATOM     17  C   LIG    1        1.263  -6.659   0.800  0.00  0.00    +0.057 A 
ATOM     18  C   LIG    1        0.750  -5.380   0.822  0.00  0.00    +0.040 A 
BRANCH  17  19
ATOM     19  C   LIG    1        0.695  -7.713   1.715  0.00  0.00    +0.417 C 
ATOM     20  F   LIG    1       -0.663  -7.893   1.433  0.00  0.00    -0.166 F 
ATOM     21  F   LIG    1        0.845  -7.305   3.045  0.00  0.00    -0.166 F 
ATOM     22  F   LIG    1        1.376  -8.919   1.518  0.00  0.00    -0.166 F 
ENDBRANCH  17  19
ENDBRANCH   9  13
TORSDOF 2
