REMARK  Name = ZINC12381020
REMARK                            x       y       z     vdW  Elec       q    Type
REMARK                         _______ _______ _______ _____ _____    ______ ____
ROOT
ATOM      1  CA  LIG    1       -3.296  -0.994   1.167  0.00  0.00    +0.100 C 
ATOM      2  C   LIG    1       -3.842  -1.280  -0.044  0.00  0.00    +0.074 C 
ENDROOT
BRANCH   2   3
ATOM      3  C   LIG    1       -3.040  -1.234  -1.211  0.00  0.00    +0.130 A 
ATOM      4  C   LIG    1       -3.481  -1.397  -2.507  0.00  0.00    +0.049 A 
ATOM      5  C   LIG    1       -2.351  -1.275  -3.332  0.00  0.00    +0.042 A 
ATOM      6  C   LIG    1       -1.291  -1.048  -2.527  0.00  0.00    +0.195 A 
ATOM      7  O   LIG    1       -1.709  -1.019  -1.252  0.00  0.00    -0.463 OA
ENDBRANCH   2   3
BRANCH   1  10
ATOM      8  N   LIG    1       -1.627   0.780   1.097  0.00  0.00    -0.297 N 
ATOM      9  H   LIG    1       -2.346   1.423   0.999  0.00  0.00    +0.150 HD
ATOM     10  C   LIG    1       -1.910  -0.529   1.255  0.00  0.00    +0.259 C 
ATOM     11  O   LIG    1       -1.013  -1.324   1.470  0.00  0.00    -0.269 OA
BRANCH   8  13
ATOM     12  CB  LIG    1        0.291   1.339   2.507  0.00  0.00    +0.040 C 
ATOM     13  CA  LIG    1       -0.233   1.230   1.074  0.00  0.00    +0.179 C 
BRANCH  13  14
ATOM     14  C   LIG    1       -0.152   2.578   0.406  0.00  0.00    +0.325 C 
ATOM     15  O   LIG    1        0.934   3.092   0.200  0.00  0.00    -0.249 OA
BRANCH  14  16
ATOM     16  OXT LIG    1       -1.173   3.155   0.071  0.00  0.00    -0.479 OA
ATOM     17  HXT LIG    1       -2.007   2.760   0.230  0.00  0.00    +0.295 HD
ENDBRANCH  14  16
ENDBRANCH  13  14
ENDBRANCH   8  13
ENDBRANCH   1  10
BRANCH   1  18
ATOM     18  N   LIG    1       -4.059  -1.145   2.331  0.00  0.00    -0.275 N 
ATOM     19  H   LIG    1       -4.949  -1.527   2.282  0.00  0.00    +0.155 HD
ATOM     20  C   LIG    1       -3.557  -0.758   3.521  0.00  0.00    +0.284 C 
ATOM     21  O   LIG    1       -2.482  -0.189   3.572  0.00  0.00    -0.266 OA
BRANCH  20  22
ATOM     22  C   LIG    1       -4.304  -1.024   4.754  0.00  0.00    +0.189 A 
ATOM     23  C   LIG    1       -3.915  -0.683   6.018  0.00  0.00    +0.054 A 
ATOM     24  C   LIG    1       -4.926  -1.127   6.885  0.00  0.00    +0.042 A 
ATOM     25  C   LIG    1       -5.876  -1.712   6.122  0.00  0.00    +0.196 A 
ATOM     26  O   LIG    1       -5.500  -1.643   4.838  0.00  0.00    -0.458 OA
ENDBRANCH  20  22
ENDBRANCH   1  18
TORSDOF 7
