REMARK  Name = ZINC08699907
REMARK                            x       y       z     vdW  Elec       q    Type
REMARK                         _______ _______ _______ _____ _____    ______ ____
ROOT
ATOM      1  O   LIG    1       -1.715  -1.012  -1.334  0.00  0.00    -0.375 OA
ENDROOT
BRANCH   1   2
ATOM      2  C   LIG    1       -1.293  -0.775   0.010  0.00  0.00    +0.195 C 
BRANCH   2   9
ATOM      3  C   LIG    1       -0.017   1.378   0.010  0.00  0.00    +0.007 A 
ATOM      4  C   LIG    1        1.171   2.086   0.002  0.00  0.00    +0.015 A 
ATOM      5  C   LIG    1        2.378   1.411  -0.013  0.00  0.00    +0.018 A 
ATOM      6 BR   LIG    1        4.003   2.378  -0.024  0.00  0.00    -0.050 Br
ATOM      7  C   LIG    1        2.396   0.027  -0.021  0.00  0.00    +0.015 A 
ATOM      8  C   LIG    1        1.208  -0.679  -0.013  0.00  0.00    +0.007 A 
ATOM      9  C   LIG    1        0.002  -0.004   0.002  0.00  0.00    -0.022 A 
ENDBRANCH   2   9
ENDBRANCH   1   2
BRANCH   1  10
ATOM     10  C   LIG    1       -2.940  -1.740  -1.439  0.00  0.00    +0.160 C 
BRANCH  10  11
ATOM     11  C   LIG    1       -3.293  -1.933  -2.915  0.00  0.00    +0.034 C 
BRANCH  11  12
ATOM     12  C   LIG    1       -4.605  -2.713  -3.028  0.00  0.00    +0.059 C 
BRANCH  12  13
ATOM     13  C   LIG    1       -4.953  -2.904  -4.482  0.00  0.00    +0.059 A 
ATOM     14  C   LIG    1       -5.201  -4.081  -5.088  0.00  0.00    +0.107 A 
ATOM     15  N   LIG    1       -5.473  -3.800  -6.400  0.00  0.00    -0.351 N 
ATOM     16  H   LIG    1       -5.691  -4.444  -7.093  0.00  0.00    +0.166 HD
ATOM     17  C   LIG    1       -5.381  -2.462  -6.550  0.00  0.00    +0.196 A 
ATOM     18  N   LIG    1       -5.074  -1.932  -5.397  0.00  0.00    -0.241 NA
ENDBRANCH  12  13
ENDBRANCH  11  12
ENDBRANCH  10  11
ENDBRANCH   1  10
TORSDOF 6
