REMARK  Name = ZINC12341811
REMARK                            x       y       z     vdW  Elec       q    Type
REMARK                         _______ _______ _______ _____ _____    ______ ____
ROOT
ATOM      1  C   LIG    1        5.072   3.309  -0.029  0.00  0.00    +0.028 C 
ATOM      2  C   LIG    1        5.470   4.050  -1.094  0.00  0.00    +0.077 C 
ATOM      3  C   LIG    1        6.778   4.678  -1.367  0.00  0.00    +0.256 C 
ATOM      4  N   LIG    1        6.888   5.347  -2.503  0.00  0.00    -0.270 N 
ATOM      5  H   LIG    1        7.732   5.772  -2.723  0.00  0.00    +0.156 HD
ATOM      6  C   LIG    1        5.851   5.458  -3.358  0.00  0.00    +0.118 C 
ATOM      7  S   LIG    1        5.795   6.281  -4.859  0.00  0.00    -0.027 S 
ATOM      8  O   LIG    1        7.709   4.581  -0.590  0.00  0.00    -0.269 OA
ATOM      9  S   LIG    1        4.553   4.540  -2.548  0.00  0.00    -0.061 S 
ENDROOT
BRANCH   1  15
ATOM     10  C   LIG    1        2.998   2.625  -1.218  0.00  0.00    +0.011 A 
ATOM     11  C   LIG    1        1.771   2.001  -1.227  0.00  0.00    +0.046 A 
ATOM     12  C   LIG    1        1.290   1.391  -0.074  0.00  0.00    +0.117 A 
ATOM     13  C   LIG    1        2.041   1.413   1.095  0.00  0.00    +0.046 A 
ATOM     14  C   LIG    1        3.272   2.030   1.114  0.00  0.00    +0.011 A 
ATOM     15  C   LIG    1        3.762   2.645  -0.044  0.00  0.00    -0.024 A 
BRANCH  12  16
ATOM     16  O   LIG    1        0.079   0.777  -0.088  0.00  0.00    -0.507 OA
ATOM     17  H   LIG    1        0.115  -0.158  -0.331  0.00  0.00    +0.292 HD
ENDBRANCH  12  16
ENDBRANCH   1  15
TORSDOF 2
