REMARK  Name = ZINC08773073
REMARK                            x       y       z     vdW  Elec       q    Type
REMARK                         _______ _______ _______ _____ _____    ______ ____
ROOT
ATOM      1  C   LIG    1       -0.017   1.376   0.010  0.00  0.00    +0.001 A 
ATOM      2  C   LIG    1        1.171   2.088   0.002  0.00  0.00    +0.002 A 
ATOM      3  C   LIG    1        2.385   1.431  -0.013  0.00  0.00    +0.026 A 
ATOM      4  C   LIG    1        2.422   0.041  -0.021  0.00  0.00    +0.055 A 
ATOM      5  C   LIG    1        1.218  -0.676  -0.013  0.00  0.00    +0.032 A 
ATOM      6  C   LIG    1        1.596  -2.108  -0.024  0.00  0.00    +0.176 A 
ATOM      7  C   LIG    1        3.013  -2.131  -0.037  0.00  0.00    +0.224 A 
ATOM      8  N   LIG    1        3.470  -0.868  -0.035  0.00  0.00    -0.306 N 
ATOM      9  C   LIG    1        0.002  -0.004   0.002  0.00  0.00    +0.012 A 
ENDROOT
BRANCH   6  10
ATOM     10  N   LIG    1        0.784  -3.145  -0.021  0.00  0.00    -0.025 NA
ATOM     11  O   LIG    1        1.238  -4.274  -0.031  0.00  0.00    -0.143 OA
ENDBRANCH   6  10
BRANCH   7  12
ATOM     12  O   LIG    1        3.776  -3.238  -0.050  0.00  0.00    -0.492 OA
ATOM     13  H   LIG    1        3.992  -3.558  -0.937  0.00  0.00    +0.294 HD
ENDBRANCH   7  12
BRANCH   8  14
ATOM     14  C   LIG    1        4.888  -0.500  -0.047  0.00  0.00    +0.160 C 
BRANCH  14  15
ATOM     15  C   LIG    1        5.388  -0.380   1.370  0.00  0.00    -0.026 A 
ATOM     16  C   LIG    1        5.311   0.832   2.031  0.00  0.00    +0.005 A 
ATOM     17  C   LIG    1        5.768   0.942   3.330  0.00  0.00    +0.002 A 
ATOM     18  C   LIG    1        6.304  -0.160   3.970  0.00  0.00    +0.020 A 
ATOM     19  C   LIG    1        6.382  -1.373   3.310  0.00  0.00    +0.041 A 
ATOM     20 CL   LIG    1        7.055  -2.757   4.113  0.00  0.00    -0.084 Cl
ATOM     21  C   LIG    1        5.918  -1.484   2.011  0.00  0.00    +0.025 A 
ENDBRANCH  14  15
ENDBRANCH   8  14
TORSDOF 4
