REMARK  Name = ZINC12502951
REMARK                            x       y       z     vdW  Elec       q    Type
REMARK                         _______ _______ _______ _____ _____    ______ ____
ROOT
ATOM      1  C   LIG    1        2.338  -0.013  -0.020  0.00  0.00    +0.102 A 
ATOM      2  C   LIG    1        1.148  -0.681  -0.013  0.00  0.00    +0.151 A 
ATOM      3  N   LIG    1        0.002  -0.004   0.002  0.00  0.00    -0.219 NA
ATOM      4  C   LIG    1       -0.016   1.315   0.009  0.00  0.00    +0.170 A 
ATOM      5  N   LIG    1        1.140   2.034   0.002  0.00  0.00    -0.302 N 
ATOM      6  H   LIG    1        1.104   3.134   0.008  0.00  0.00    +0.171 HD
ATOM      7  C   LIG    1        2.329   1.393  -0.012  0.00  0.00    +0.253 A 
ATOM      8  O   LIG    1        3.374   2.022  -0.019  0.00  0.00    -0.268 OA
ENDROOT
BRANCH   2   9
ATOM      9  C   LIG    1        1.131  -2.188  -0.021  0.00  0.00    +0.434 C 
ATOM     10  F   LIG    1        0.456  -2.640  -1.159  0.00  0.00    -0.164 F 
ATOM     11  F   LIG    1        0.477  -2.653   1.126  0.00  0.00    -0.164 F 
ATOM     12  F   LIG    1        2.445  -2.668  -0.036  0.00  0.00    -0.164 F 
ENDBRANCH   2   9
BRANCH   4  13
ATOM     13  S   LIG    1       -1.562   2.160   0.021  0.00  0.00    -0.078 S 
BRANCH  13  14
ATOM     14  C   LIG    1       -2.693   0.747   0.019  0.00  0.00    +0.173 C 
BRANCH  14  15
ATOM     15  C   LIG    1       -4.116   1.242   0.028  0.00  0.00    +0.226 C 
ATOM     16  N   LIG    1       -5.136   0.362   0.028  0.00  0.00    -0.301 N 
ATOM     17  C   LIG    1       -4.877  -1.085   0.013  0.00  0.00    +0.108 C 
ATOM     18  C   LIG    1       -5.631  -1.729   1.186  0.00  0.00    +0.019 C 
ATOM     19  C   LIG    1       -7.113  -1.355   1.098  0.00  0.00    +0.003 C 
ATOM     20  C   LIG    1       -7.265   0.164   1.204  0.00  0.00    +0.019 C 
ATOM     21  C   LIG    1       -6.529   0.829   0.037  0.00  0.00    +0.108 C 
ATOM     22  O   LIG    1       -4.343   2.434   0.036  0.00  0.00    -0.275 OA
ENDBRANCH  14  15
ENDBRANCH  13  14
ENDBRANCH   4  13
TORSDOF 4
