REMARK  Name = ZINC12502869
REMARK                            x       y       z     vdW  Elec       q    Type
REMARK                         _______ _______ _______ _____ _____    ______ ____
ROOT
ATOM      1  C   LIG    1       -2.881   0.603   1.456  0.00  0.00    +0.111 C 
ENDROOT
BRANCH   1   2
ATOM      2  C   LIG    1       -3.280   1.843   2.214  0.00  0.00    +0.309 C 
ATOM      3  O   LIG    1       -3.359   2.903   1.640  0.00  0.00    -0.251 OA
BRANCH   2   4
ATOM      4  O   LIG    1       -3.547   1.769   3.527  0.00  0.00    -0.480 OA
ATOM      5  H   LIG    1       -3.486   0.947   3.973  0.00  0.00    +0.295 HD
ENDBRANCH   2   4
ENDBRANCH   1   2
BRANCH   1   6
ATOM      6  C   LIG    1       -1.796   0.955   0.436  0.00  0.00    +0.050 C 
BRANCH   6  10
ATOM      7  C   LIG    1        1.753   2.146   2.494  0.00  0.00    +0.000 A 
ATOM      8  C   LIG    1        0.858   3.101   2.051  0.00  0.00    +0.000 A 
ATOM      9  C   LIG    1       -0.289   2.716   1.381  0.00  0.00    +0.003 A 
ATOM     10  C   LIG    1       -0.543   1.375   1.161  0.00  0.00    -0.047 A 
ATOM     11  C   LIG    1        0.354   0.420   1.600  0.00  0.00    +0.003 A 
ATOM     12  C   LIG    1        1.501   0.805   2.269  0.00  0.00    +0.000 A 
ENDBRANCH   6  10
ENDBRANCH   1   6
BRANCH   1  13
ATOM     13  C   LIG    1       -4.101   0.036   0.728  0.00  0.00    +0.080 C 
BRANCH  13  14
ATOM     14  S   LIG    1       -5.327  -0.519   1.943  0.00  0.00    -0.177 S 
ATOM     15  H   LIG    1       -6.339  -0.990   1.193  0.00  0.00    +0.102 HD
ENDBRANCH  13  14
ENDBRANCH   1  13
TORSDOF 6
