REMARK  Name = ZINC12504047
REMARK                            x       y       z     vdW  Elec       q    Type
REMARK                         _______ _______ _______ _____ _____    ______ ____
ROOT
ATOM      1  C   LIG    1       -2.416  -0.440  -1.278  0.00  0.00    -0.001 A 
ATOM      2  C   LIG    1       -1.593  -0.940  -2.291  0.00  0.00    +0.011 A 
ATOM      3  C   LIG    1       -2.135  -1.261  -3.515  0.00  0.00    +0.024 A 
ATOM      4  C   LIG    1       -3.496  -1.080  -3.749  0.00  0.00    +0.040 A 
ATOM      5  C   LIG    1       -4.318  -0.581  -2.748  0.00  0.00    -0.025 A 
ATOM      6  C   LIG    1       -5.795  -0.384  -2.967  0.00  0.00    +0.038 C 
ATOM      7  C   LIG    1       -6.107  -0.300  -4.461  0.00  0.00    +0.024 C 
ATOM      8  C   LIG    1       -5.474  -1.505  -5.169  0.00  0.00    +0.114 C 
ATOM      9  N   LIG    1       -4.017  -1.406  -5.007  0.00  0.00    -0.267 N 
ATOM     10  C   LIG    1       -3.195  -1.626  -6.052  0.00  0.00    +0.251 C 
ATOM     11  O   LIG    1       -2.000  -1.434  -5.936  0.00  0.00    -0.270 OA
ATOM     12  C   LIG    1       -3.780  -0.260  -1.516  0.00  0.00    +0.015 A 
ENDROOT
BRANCH   1  15
ATOM     13  C   LIG    1        0.368   1.018   0.038  0.00  0.00    +0.026 C 
ATOM     14  C   LIG    1       -0.372  -0.304   0.255  0.00  0.00    +0.103 C 
ATOM     15  C   LIG    1       -1.845  -0.097   0.037  0.00  0.00    +0.079 C 
ATOM     16  N   LIG    1       -2.627   0.366   0.944  0.00  0.00    -0.183 NA
ATOM     17  N   LIG    1       -2.234   0.736   2.223  0.00  0.00    -0.198 N 
ATOM     18  H   LIG    1       -2.785   1.367   2.713  0.00  0.00    +0.178 HD
ATOM     19  C   LIG    1       -1.124   0.260   2.813  0.00  0.00    +0.292 C 
ATOM     20  O   LIG    1       -0.832   0.614   3.939  0.00  0.00    -0.261 OA
ATOM     21  S   LIG    1       -0.093  -0.881   1.950  0.00  0.00    -0.057 S 
ENDBRANCH   1  15
BRANCH  10  22
ATOM     22  C   LIG    1       -3.746  -2.099  -7.337  0.00  0.00    +0.041 A 
ATOM     23  C   LIG    1       -4.925  -2.849  -7.359  0.00  0.00    +0.017 A 
ATOM     24  C   LIG    1       -5.440  -3.287  -8.560  0.00  0.00    +0.050 A 
ATOM     25  C   LIG    1       -4.785  -2.993  -9.748  0.00  0.00    +0.162 A 
ATOM     26  C   LIG    1       -3.606  -2.250  -9.732  0.00  0.00    +0.162 A 
ATOM     27  C   LIG    1       -3.087  -1.804  -8.533  0.00  0.00    +0.062 A 
BRANCH  25  28
ATOM     28  O   LIG    1       -5.294  -3.431 -10.928  0.00  0.00    -0.491 OA
ATOM     29  C   LIG    1       -6.505  -4.187 -10.872  0.00  0.00    +0.277 C 
ENDBRANCH  25  28
BRANCH  26  30
ATOM     30  O   LIG    1       -2.967  -1.964 -10.898  0.00  0.00    -0.491 OA
ATOM     31  C   LIG    1       -1.764  -1.198 -10.808  0.00  0.00    +0.277 C 
ENDBRANCH  26  30
ENDBRANCH  10  22
TORSDOF 4
