REMARK  Name = ZINC10743196
REMARK                            x       y       z     vdW  Elec       q    Type
REMARK                         _______ _______ _______ _____ _____    ______ ____
ROOT
ATOM      1  C   LIG    1       -0.573  -1.521   0.897  0.00  0.00    +0.011 C 
ATOM      2  C   LIG    1        0.076  -1.729  -0.473  0.00  0.00    -0.025 C 
ATOM      3  C   LIG    1        0.161  -3.181  -0.948  0.00  0.00    +0.011 C 
ATOM      4  C   LIG    1       -0.158  -0.652  -1.534  0.00  0.00    +0.018 C 
ATOM      5  C   LIG    1       -0.690   0.722  -1.072  0.00  0.00    +0.113 C 
ATOM      6  N   LIG    1        0.524   1.494  -0.721  0.00  0.00    -0.288 N 
ATOM      7  C   LIG    1        0.773   2.797  -0.960  0.00  0.00    +0.237 C 
ATOM      8  O   LIG    1        1.854   3.269  -0.678  0.00  0.00    -0.274 OA
ATOM      9  C   LIG    1        1.413   0.519  -0.067  0.00  0.00    +0.166 C 
ATOM     10  C   LIG    1        1.222  -0.792  -0.859  0.00  0.00    +0.030 C 
ENDROOT
BRANCH   9  11
ATOM     11  C   LIG    1        0.980   0.336   1.364  0.00  0.00    +0.234 C 
ATOM     12  N   LIG    1        1.775  -0.324   2.230  0.00  0.00    -0.304 N 
ATOM     13  H   LIG    1        2.626  -0.682   1.931  0.00  0.00    +0.149 HD
ATOM     14  O   LIG    1       -0.083   0.783   1.738  0.00  0.00    -0.274 OA
BRANCH  12  15
ATOM     15  C   LIG    1        1.354  -0.502   3.622  0.00  0.00    +0.149 C 
BRANCH  15  16
ATOM     16  C   LIG    1        1.739   0.716   4.422  0.00  0.00    +0.237 C 
ATOM     17  O   LIG    1        2.531   1.509   3.972  0.00  0.00    -0.285 OA
BRANCH  16  18
ATOM     18  C   LIG    1        1.141   0.941   5.769  0.00  0.00    +0.279 C 
ATOM     19  N   LIG    1        1.485   2.030   6.485  0.00  0.00    -0.323 N 
ATOM     20  H   LIG    1        1.097   2.177   7.362  0.00  0.00    +0.145 HD
ATOM     21  H   LIG    1        2.121   2.667   6.124  0.00  0.00    +0.145 HD
ATOM     22  O   LIG    1        0.345   0.144   6.221  0.00  0.00    -0.267 OA
ENDBRANCH  16  18
ENDBRANCH  15  16
BRANCH  15  23
ATOM     23  C   LIG    1        2.042  -1.736   4.209  0.00  0.00    +0.034 C 
BRANCH  23  24
ATOM     24  C   LIG    1        1.555  -2.988   3.476  0.00  0.00    -0.009 C 
ATOM     25  C   LIG    1        0.278  -3.596   4.077  0.00  0.00    +0.003 C 
ATOM     26  C   LIG    1        0.911  -4.975   3.828  0.00  0.00    +0.001 C 
ATOM     27  C   LIG    1        2.278  -4.275   3.908  0.00  0.00    +0.003 C 
ENDBRANCH  23  24
ENDBRANCH  15  23
ENDBRANCH  12  15
ENDBRANCH   9  11
BRANCH   7  28
ATOM     28  C   LIG    1       -0.292   3.667  -1.576  0.00  0.00    +0.166 C 
BRANCH  28  29
ATOM     29  N   LIG    1       -0.230   5.007  -0.987  0.00  0.00    -0.288 N 
ATOM     30  H   LIG    1        0.601   5.331  -0.606  0.00  0.00    +0.151 HD
ATOM     31  C   LIG    1       -1.327   5.789  -0.974  0.00  0.00    +0.301 C 
ATOM     32  N   LIG    1       -1.270   7.022  -0.431  0.00  0.00    -0.295 N 
ATOM     33  H   LIG    1       -0.439   7.346  -0.051  0.00  0.00    +0.151 HD
ATOM     34  O   LIG    1       -2.369   5.383  -1.451  0.00  0.00    -0.253 OA
BRANCH  32  35
ATOM     35  C   LIG    1       -2.463   7.872  -0.417  0.00  0.00    +0.028 C 
ATOM     36  C   LIG    1       -2.928   8.121  -1.853  0.00  0.00    +0.031 C 
ATOM     37  C   LIG    1       -2.129   9.208   0.250  0.00  0.00    +0.031 C 
ATOM     38  C   LIG    1       -3.576   7.175   0.366  0.00  0.00    +0.031 C 
ENDBRANCH  32  35
ENDBRANCH  28  29
BRANCH  28  39
ATOM     39  C   LIG    1       -0.062   3.763  -3.085  0.00  0.00    -0.011 C 
ATOM     40  C   LIG    1        1.254   4.494  -3.356  0.00  0.00    +0.013 C 
ATOM     41  C   LIG    1       -1.216   4.534  -3.729  0.00  0.00    +0.013 C 
ATOM     42  C   LIG    1        0.005   2.355  -3.681  0.00  0.00    +0.013 C 
ENDBRANCH  28  39
ENDBRANCH   7  28
TORSDOF 10
