REMARK  Name = ZINC09357355
REMARK                            x       y       z     vdW  Elec       q    Type
REMARK                         _______ _______ _______ _____ _____    ______ ____
ROOT
ATOM      1  C   LIG    1        3.711  -0.707  -0.038  0.00  0.00    +0.163 C 
ATOM      2  C   LIG    1        4.080  -1.088  -1.461  0.00  0.00    +0.125 C 
ATOM      3  C   LIG    1        3.279  -2.449  -1.531  0.00  0.00    +0.138 C 
ATOM      4  C   LIG    1        3.674  -3.067  -0.259  0.00  0.00    +0.206 C 
ATOM      5  C   LIG    1        2.767  -4.179   0.200  0.00  0.00    +0.204 C 
ATOM      6  C   LIG    1        3.621  -5.352   0.468  0.00  0.00    +0.031 A 
ATOM      7  C   LIG    1        3.293  -6.635   0.912  0.00  0.00    +0.012 A 
ATOM      8  C   LIG    1        4.284  -7.581   1.091  0.00  0.00    +0.001 A 
ATOM      9  C   LIG    1        5.607  -7.267   0.833  0.00  0.00    +0.001 A 
ATOM     10  C   LIG    1        5.953  -6.004   0.393  0.00  0.00    +0.012 A 
ATOM     11  C   LIG    1        4.967  -5.032   0.205  0.00  0.00    +0.031 A 
ATOM     12  O   LIG    1        1.563  -4.122   0.325  0.00  0.00    -0.288 OA
ATOM     13  C   LIG    1        5.069  -3.632  -0.247  0.00  0.00    +0.204 C 
ATOM     14  O   LIG    1        6.086  -3.047  -0.553  0.00  0.00    -0.288 OA
ATOM     15  C   LIG    1        3.294  -2.709  -2.950  0.00  0.00    +0.234 C 
ATOM     16  N   LIG    1        3.214  -1.471  -3.539  0.00  0.00    -0.210 N 
ATOM     17  O   LIG    1        3.361  -3.786  -3.502  0.00  0.00    -0.274 OA
ATOM     18  C   LIG    1        3.446  -0.436  -2.647  0.00  0.00    +0.233 C 
ATOM     19  O   LIG    1        3.201   0.743  -2.791  0.00  0.00    -0.274 OA
ATOM     20  O   LIG    1        3.595  -1.961   0.691  0.00  0.00    -0.348 OA
ENDROOT
BRANCH  16  21
ATOM     21  C   LIG    1        2.928  -1.272  -4.898  0.00  0.00    +0.048 A 
ATOM     22  C   LIG    1        2.701  -2.363  -5.726  0.00  0.00    +0.028 A 
ATOM     23  C   LIG    1        2.419  -2.170  -7.065  0.00  0.00    +0.051 A 
ATOM     24  C   LIG    1        2.361  -0.887  -7.585  0.00  0.00    +0.166 A 
ATOM     25  C   LIG    1        2.589   0.210  -6.756  0.00  0.00    +0.168 A 
ATOM     26  O   LIG    1        2.477   1.349  -7.500  0.00  0.00    -0.453 OA
ATOM     27  C   LIG    1        2.583   0.925  -8.872  0.00  0.00    +0.466 C 
ATOM     28  O   LIG    1        2.106  -0.433  -8.848  0.00  0.00    -0.453 OA
ATOM     29  C   LIG    1        2.867   0.015  -5.414  0.00  0.00    +0.073 A 
ENDBRANCH  16  21
BRANCH   1  33
ATOM     30  C   LIG    1       -0.017   1.378   0.010  0.00  0.00    +0.000 A 
ATOM     31  C   LIG    1        1.171   2.086   0.002  0.00  0.00    +0.000 A 
ATOM     32  C   LIG    1        2.377   1.411  -0.013  0.00  0.00    +0.006 A 
ATOM     33  C   LIG    1        2.396   0.029  -0.020  0.00  0.00    -0.018 A 
ATOM     34  C   LIG    1        1.208  -0.679  -0.012  0.00  0.00    +0.006 A 
ATOM     35  C   LIG    1        0.002  -0.004   0.002  0.00  0.00    +0.000 A 
ENDBRANCH   1  33
TORSDOF 2
