REMARK  Name = ZINC08660419
REMARK                            x       y       z     vdW  Elec       q    Type
REMARK                         _______ _______ _______ _____ _____    ______ ____
ROOT
ATOM      1  C   LIG    1        0.236   2.513  -1.222  0.00  0.00    +0.132 C 
ATOM      2  C   LIG    1        1.288   3.638  -1.204  0.00  0.00    +0.049 C 
ATOM      3  C   LIG    1        2.130   3.435   0.077  0.00  0.00    +0.008 C 
ATOM      4  C   LIG    1        1.935   1.942   0.401  0.00  0.00    +0.006 C 
ATOM      5  C   LIG    1        2.342   1.576   1.792  0.00  0.00    +0.020 C 
ATOM      6  C   LIG    1        3.302   0.383   1.797  0.00  0.00    +0.013 C 
ATOM      7  C   LIG    1        3.960   0.270   3.173  0.00  0.00    +0.036 C 
ATOM      8  C   LIG    1        2.915   0.377   4.253  0.00  0.00    -0.041 C 
ATOM      9  C   LIG    1        3.249   0.117   5.543  0.00  0.00    +0.050 C 
ATOM     10  C   LIG    1        2.311   0.264   6.576  0.00  0.00    +0.157 C 
ATOM     11  O   LIG    1        2.604  -0.095   7.698  0.00  0.00    -0.293 OA
ATOM     12  C   LIG    1        0.950   0.856   6.328  0.00  0.00    +0.083 C 
ATOM     13  C   LIG    1        0.453   0.447   4.937  0.00  0.00    +0.043 C 
ATOM     14  C   LIG    1        1.540   0.747   3.933  0.00  0.00    -0.044 C 
ATOM     15  C   LIG    1        1.232   1.326   2.761  0.00  0.00    -0.055 C 
ATOM     16  C   LIG    1       -0.200   1.681   2.505  0.00  0.00    +0.046 C 
ATOM     17  C   LIG    1       -0.412   2.326   1.167  0.00  0.00    +0.023 C 
ATOM     18  C   LIG    1        0.455   1.691   0.076  0.00  0.00    +0.012 C 
ATOM     19  C   LIG    1        0.146   0.205  -0.116  0.00  0.00    +0.015 C 
ENDROOT
BRANCH  16  20
ATOM     20  C   LIG    1       -0.667   2.623   3.583  0.00  0.00    -0.040 A 
ATOM     21  C   LIG    1       -1.917   2.458   4.150  0.00  0.00    +0.006 A 
ATOM     22  C   LIG    1       -2.346   3.317   5.143  0.00  0.00    +0.023 A 
ATOM     23  C   LIG    1       -1.524   4.355   5.564  0.00  0.00    +0.029 A 
ATOM     24  C   LIG    1       -0.271   4.521   4.989  0.00  0.00    +0.023 A 
ATOM     25  C   LIG    1        0.154   3.655   4.000  0.00  0.00    +0.006 A 
BRANCH  23  26
ATOM     26  N   LIG    1       -1.957   5.229   6.564  0.00  0.00    -0.336 N 
ATOM     27  C   LIG    1       -3.224   4.980   7.256  0.00  0.00    +0.129 C 
ATOM     28  C   LIG    1       -1.143   6.393   6.922  0.00  0.00    +0.129 C 
ENDBRANCH  23  26
ENDBRANCH  16  20
BRANCH   1  31
ATOM     29  C   LIG    1        0.787   0.116  -4.524  0.00  0.00    +0.106 C 
ATOM     30  C   LIG    1        0.590   0.973  -3.344  0.00  0.00    -0.103 C 
ATOM     31  C   LIG    1        0.433   1.656  -2.402  0.00  0.00    -0.067 C 
ENDBRANCH   1  31
BRANCH   1  32
ATOM     32  O   LIG    1       -1.079   3.072  -1.234  0.00  0.00    -0.376 OA
ATOM     33  H   LIG    1       -1.276   3.597  -2.021  0.00  0.00    +0.211 HD
ENDBRANCH   1  32
TORSDOF 4
