REMARK  Name = ZINC08995178
REMARK                            x       y       z     vdW  Elec       q    Type
REMARK                         _______ _______ _______ _____ _____    ______ ____
ROOT
ATOM      1  C   LIG    1       -1.252  -0.755   0.010  0.00  0.00    +0.026 C 
ATOM      2  C   LIG    1       -1.234  -2.133  -0.102  0.00  0.00    +0.101 C 
ATOM      3  C   LIG    1       -2.479  -2.916  -0.213  0.00  0.00    +0.256 C 
ATOM      4  N   LIG    1       -2.372  -4.257  -0.319  0.00  0.00    -0.238 N 
ATOM      5  H   LIG    1       -3.177  -4.795  -0.393  0.00  0.00    +0.159 HD
ATOM      6  C   LIG    1       -1.160  -4.869  -0.323  0.00  0.00    +0.278 C 
ATOM      7  N   LIG    1       -0.021  -4.228  -0.228  0.00  0.00    -0.127 NA
ATOM      8  O   LIG    1       -3.567  -2.370  -0.210  0.00  0.00    -0.270 OA
ATOM      9  C   LIG    1        0.036  -2.891  -0.122  0.00  0.00    +0.276 C 
ATOM     10  O   LIG    1        1.109  -2.316  -0.040  0.00  0.00    -0.268 OA
ENDROOT
BRANCH   1  16
ATOM     11  C   LIG    1        0.893  -0.279  -1.148  0.00  0.00    +0.011 A 
ATOM     12  C   LIG    1        2.052   0.434  -1.255  0.00  0.00    +0.046 A 
ATOM     13  C   LIG    1        2.340   1.441  -0.339  0.00  0.00    +0.117 A 
ATOM     14  C   LIG    1        1.450   1.728   0.692  0.00  0.00    +0.046 A 
ATOM     15  C   LIG    1        0.287   1.022   0.810  0.00  0.00    +0.011 A 
ATOM     16  C   LIG    1       -0.009   0.005  -0.111  0.00  0.00    -0.024 A 
BRANCH  13  17
ATOM     17  O   LIG    1        3.494   2.146  -0.450  0.00  0.00    -0.507 OA
ATOM     18  H   LIG    1        3.419   2.938  -1.000  0.00  0.00    +0.292 HD
ENDBRANCH  13  17
ENDBRANCH   1  16
BRANCH   6  19
ATOM     19  O   LIG    1       -1.126  -6.211  -0.431  0.00  0.00    -0.483 OA
ATOM     20  H   LIG    1       -1.925  -6.696  -0.501  0.00  0.00    +0.295 HD
ENDBRANCH   6  19
TORSDOF 3
