REMARK  Name = ZINC08693976
REMARK                            x       y       z     vdW  Elec       q    Type
REMARK                         _______ _______ _______ _____ _____    ______ ____
ROOT
ATOM      1  C   LIG    1       -2.823  -2.582   0.008  0.00  0.00    +0.329 C 
ATOM      2  O   LIG    1       -3.325  -3.198  -0.902  0.00  0.00    -0.249 OA
ENDROOT
BRANCH   1   3
ATOM      3  C   LIG    1       -1.418  -2.053  -0.124  0.00  0.00    +0.193 C 
BRANCH   3   4
ATOM      4  N   LIG    1       -0.882  -2.414  -1.439  0.00  0.00    -0.228 N 
ATOM      5  C   LIG    1       -1.444  -2.016  -2.596  0.00  0.00    +0.227 C 
ATOM      6  C   LIG    1       -0.788  -2.829  -3.725  0.00  0.00    +0.091 C 
ATOM      7  C   LIG    1       -1.635  -4.100  -3.834  0.00  0.00    +0.040 C 
ATOM      8  C   LIG    1       -0.841  -5.310  -4.188  0.00  0.00    -0.030 C 
ATOM      9  C   LIG    1        0.442  -5.409  -4.078  0.00  0.00    -0.030 C 
ATOM     10  C   LIG    1        1.317  -4.286  -3.619  0.00  0.00    +0.040 C 
ATOM     11  C   LIG    1        0.570  -3.110  -3.061  0.00  0.00    +0.091 C 
ATOM     12  O   LIG    1       -2.307  -1.173  -2.725  0.00  0.00    -0.275 OA
ATOM     13  C   LIG    1        0.225  -3.172  -1.601  0.00  0.00    +0.227 C 
ATOM     14  O   LIG    1        0.820  -3.784  -0.740  0.00  0.00    -0.275 OA
ENDBRANCH   3   4
BRANCH   3  15
ATOM     15  C   LIG    1       -1.431  -0.529   0.020  0.00  0.00    +0.037 C 
BRANCH  15  17
ATOM     16  C   LIG    1       -0.011   1.526   0.029  0.00  0.00    +0.007 C 
ATOM     17  C   LIG    1        0.005  -0.004   0.010  0.00  0.00    -0.015 C 
ATOM     18  C   LIG    1        0.746  -0.521   1.245  0.00  0.00    +0.007 C 
ENDBRANCH  15  17
ENDBRANCH   3  15
ENDBRANCH   1   3
BRANCH   1  19
ATOM     19  O   LIG    1       -3.516  -2.369   1.138  0.00  0.00    -0.454 OA
BRANCH  19  20
ATOM     20  C   LIG    1       -4.842  -2.899   1.194  0.00  0.00    +0.328 C 
BRANCH  20  21
ATOM     21  C   LIG    1       -5.461  -2.564   2.527  0.00  0.00    +0.255 C 
ATOM     22  N   LIG    1       -6.716  -2.966   2.808  0.00  0.00    -0.283 N 
ATOM     23  H   LIG    1       -7.246  -3.411   2.128  0.00  0.00    +0.155 HD
ATOM     24  O   LIG    1       -4.828  -1.934   3.348  0.00  0.00    -0.272 OA
BRANCH  22  25
ATOM     25  C   LIG    1       -7.257  -2.740   4.080  0.00  0.00    +0.035 A 
ATOM     26  C   LIG    1       -8.117  -3.672   4.645  0.00  0.00    +0.027 A 
ATOM     27  C   LIG    1       -8.649  -3.449   5.900  0.00  0.00    +0.049 A 
ATOM     28  C   LIG    1       -8.324  -2.294   6.597  0.00  0.00    +0.138 A 
ATOM     29  C   LIG    1       -7.465  -1.361   6.032  0.00  0.00    +0.084 A 
ATOM     30 CL   LIG    1       -7.059   0.084   6.904  0.00  0.00    -0.080 Cl
ATOM     31  C   LIG    1       -6.927  -1.586   4.779  0.00  0.00    +0.047 A 
BRANCH  28  32
ATOM     32  O   LIG    1       -8.849  -2.075   7.832  0.00  0.00    -0.494 OA
ATOM     33  C   LIG    1       -9.726  -3.077   8.351  0.00  0.00    +0.277 C 
ENDBRANCH  28  32
ENDBRANCH  22  25
ENDBRANCH  20  21
ENDBRANCH  19  20
ENDBRANCH   1  19
TORSDOF 9
