REMARK  Name = ZINC11632569
REMARK                            x       y       z     vdW  Elec       q    Type
REMARK                         _______ _______ _______ _____ _____    ______ ____
ROOT
ATOM      1  C   LIG    1       -1.242   3.136   0.057  0.00  0.00    +0.122 A 
ATOM      2  C   LIG    1       -1.220   1.750   0.017  0.00  0.00    +0.049 A 
ATOM      3  C   LIG    1       -0.013   1.076  -0.019  0.00  0.00    +0.051 A 
ATOM      4  C   LIG    1        1.177   1.784  -0.026  0.00  0.00    +0.141 A 
ATOM      5  C   LIG    1        1.158   3.176   0.008  0.00  0.00    +0.075 A 
ATOM      6  C   LIG    1       -0.053   3.850   0.050  0.00  0.00    +0.072 A 
ENDROOT
BRANCH   5   7
ATOM      7  N   LIG    1        2.360   3.894   0.001  0.00  0.00    -0.331 N 
ATOM      8  C   LIG    1        2.115   5.330  -0.199  0.00  0.00    +0.086 C 
ATOM      9  C   LIG    1        3.453   6.066  -0.280  0.00  0.00    -0.063 C 
ATOM     10  N   LIG    1        4.218   5.839   0.962  0.00  0.00    +0.381 N 
ATOM     11  H   LIG    1        5.118   6.328   0.900  0.00  0.00    -0.086 HD
ATOM     12  H   LIG    1        3.684   6.203   1.760  0.00  0.00    -0.086 HD
ATOM     13  C   LIG    1        4.460   4.397   1.155  0.00  0.00    -0.063 C 
ATOM     14  C   LIG    1        3.121   3.659   1.236  0.00  0.00    +0.086 C 
ENDBRANCH   5   7
BRANCH   1  16
ATOM     15  C   LIG    1       -3.615   2.998   0.103  0.00  0.00    +0.277 C 
ATOM     16  O   LIG    1       -2.430   3.796   0.098  0.00  0.00    -0.495 OA
ENDBRANCH   1  16
BRANCH   4  17
ATOM     17  O   LIG    1        2.364   1.120  -0.068  0.00  0.00    -0.493 OA
ATOM     18  C   LIG    1        2.308  -0.307  -0.102  0.00  0.00    +0.277 C 
ENDBRANCH   4  17
TORSDOF 3
