REMARK  Name = ZINC12365464
REMARK                            x       y       z     vdW  Elec       q    Type
REMARK                         _______ _______ _______ _____ _____    ______ ____
ROOT
ATOM      1  C   LIG    1        1.635   5.606   0.436  0.00  0.00    +0.081 A 
ATOM      2  C   LIG    1        0.424   5.558  -0.296  0.00  0.00    +0.148 A 
ATOM      3  N   LIG    1        0.114   4.307  -0.489  0.00  0.00    -0.172 NA
ATOM      4  N   LIG    1        1.083   3.493   0.105  0.00  0.00    -0.218 N 
ATOM      5  C   LIG    1        2.021   4.285   0.672  0.00  0.00    +0.131 A 
ENDROOT
BRANCH   4   6
ATOM      6  C   LIG    1        1.086   2.091   0.109  0.00  0.00    +0.067 A 
ATOM      7  C   LIG    1       -0.112   1.394   0.190  0.00  0.00    +0.028 A 
ATOM      8  C   LIG    1       -0.107   0.013   0.193  0.00  0.00    +0.002 A 
ATOM      9  C   LIG    1        1.090  -0.675   0.114  0.00  0.00    +0.000 A 
ATOM     10  C   LIG    1        2.285   0.016   0.033  0.00  0.00    +0.002 A 
ATOM     11  C   LIG    1        2.286   1.397   0.030  0.00  0.00    +0.028 A 
ENDBRANCH   4   6
BRANCH   5  12
ATOM     12  N   LIG    1        3.144   3.868   1.352  0.00  0.00    -0.342 N 
ATOM     13  H   LIG    1        3.757   4.522   1.723  0.00  0.00    +0.144 HD
ATOM     14  H   LIG    1        3.322   2.921   1.461  0.00  0.00    +0.144 HD
ENDBRANCH   5  12
BRANCH   1  15
ATOM     15  C   LIG    1        2.348   6.813   0.866  0.00  0.00    +0.198 C 
ATOM     16  O   LIG    1        3.325   6.719   1.585  0.00  0.00    -0.286 OA
BRANCH  15  20
ATOM     17  C   LIG    1        1.002  10.639  -0.399  0.00  0.00    +0.000 A 
ATOM     18  C   LIG    1        1.681  10.509   0.800  0.00  0.00    +0.001 A 
ATOM     19  C   LIG    1        2.121   9.269   1.216  0.00  0.00    +0.012 A 
ATOM     20  C   LIG    1        1.879   8.145   0.426  0.00  0.00    +0.022 A 
ATOM     21  C   LIG    1        1.198   8.283  -0.784  0.00  0.00    +0.012 A 
ATOM     22  C   LIG    1        0.760   9.528  -1.187  0.00  0.00    +0.001 A 
ENDBRANCH  15  20
ENDBRANCH   1  15
TORSDOF 4
