REMARK  Name = ZINC09186742
REMARK                            x       y       z     vdW  Elec       q    Type
REMARK                         _______ _______ _______ _____ _____    ______ ____
ROOT
ATOM      1  N   LIG    1       -2.326  -2.827  -0.002  0.00  0.00    -0.299 N 
ATOM      2  H   LIG    1       -2.292  -3.791  -0.111  0.00  0.00    +0.154 HD
ENDROOT
BRANCH   1   6
ATOM      3  C   LIG    1        1.895  -1.423  -2.072  0.00  0.00    +0.066 C 
ATOM      4  C   LIG    1        0.907  -1.389  -0.935  0.00  0.00    +0.045 A 
ATOM      5  C   LIG    1       -0.263  -2.141  -1.012  0.00  0.00    +0.067 A 
ATOM      6  C   LIG    1       -1.158  -2.097   0.040  0.00  0.00    +0.130 A 
ATOM      7  N   LIG    1       -0.863  -1.317   1.120  0.00  0.00    -0.182 N 
ATOM      8  C   LIG    1        0.298  -0.596   1.151  0.00  0.00    +0.255 A 
ATOM      9  N   LIG    1        0.321   0.061   2.305  0.00  0.00    -0.197 NA
ATOM     10  C   LIG    1       -0.775  -0.216   3.001  0.00  0.00    +0.247 A 
ATOM     11  N   LIG    1       -1.528  -1.049   2.324  0.00  0.00    -0.151 NA
ATOM     12  N   LIG    1        1.157  -0.653   0.127  0.00  0.00    -0.216 NA
ENDBRANCH   1   6
BRANCH   1  13
ATOM     13  C   LIG    1       -3.559  -2.180   0.114  0.00  0.00    +0.033 A 
ATOM     14  C   LIG    1       -3.610  -0.781   0.115  0.00  0.00    +0.024 A 
ATOM     15  C   LIG    1       -4.795  -0.125   0.226  0.00  0.00    +0.010 A 
ATOM     16  C   LIG    1       -5.991  -0.854   0.341  0.00  0.00    -0.018 A 
ATOM     17  C   LIG    1       -7.231  -0.202   0.456  0.00  0.00    +0.008 A 
ATOM     18  C   LIG    1       -8.371  -0.937   0.565  0.00  0.00    +0.001 A 
ATOM     19  C   LIG    1       -8.331  -2.330   0.564  0.00  0.00    +0.001 A 
ATOM     20  C   LIG    1       -7.149  -2.996   0.455  0.00  0.00    +0.008 A 
ATOM     21  C   LIG    1       -5.950  -2.271   0.340  0.00  0.00    -0.016 A 
ATOM     22  C   LIG    1       -4.713  -2.925   0.219  0.00  0.00    +0.031 A 
ENDBRANCH   1  13
TORSDOF 2
