REMARK  Name = ZINC11754367
REMARK                            x       y       z     vdW  Elec       q    Type
REMARK                         _______ _______ _______ _____ _____    ______ ____
ROOT
ATOM      1  C   LIG    1       -3.757  -0.563  -1.773  0.00  0.00    +0.020 C 
ATOM      2  C   LIG    1       -3.471   0.076  -3.157  0.00  0.00    +0.020 C 
ATOM      3  C   LIG    1       -2.719   1.369  -2.753  0.00  0.00    +0.108 C 
ATOM      4  N   LIG    1       -1.891   0.979  -1.598  0.00  0.00    -0.303 N 
ATOM      5  C   LIG    1       -0.762   1.595  -1.197  0.00  0.00    +0.202 C 
ATOM      6  O   LIG    1       -0.348   2.559  -1.805  0.00  0.00    -0.277 OA
ATOM      7  C   LIG    1       -2.498  -0.198  -0.959  0.00  0.00    +0.108 C 
ENDROOT
BRANCH   5   8
ATOM      8  C   LIG    1       -0.013   1.086   0.008  0.00  0.00    +0.016 C 
ATOM      9  N   LIG    1        1.363   1.607   0.002  0.00  0.00    +0.387 N 
ATOM     10  H   LIG    1        2.027   0.825   0.001  0.00  0.00    -0.085 HD
ATOM     11  H   LIG    1        1.509   2.183  -0.836  0.00  0.00    -0.085 HD
ATOM     12  C   LIG    1        1.569   2.429   1.209  0.00  0.00    -0.082 C 
ATOM     13  C   LIG    1        0.525   1.901   2.225  0.00  0.00    -0.020 C 
ATOM     14  C   LIG    1       -0.684   1.595   1.301  0.00  0.00    -0.009 C 
ENDBRANCH   5   8
TORSDOF 1
