REMARK  Name = ZINC08828411
REMARK                            x       y       z     vdW  Elec       q    Type
REMARK                         _______ _______ _______ _____ _____    ______ ____
ROOT
ATOM      1  C   LIG    1        0.154  -1.004  -0.872  0.00  0.00    +0.023 C 
ATOM      2  C   LIG    1        0.446  -0.407  -2.064  0.00  0.00    +0.078 C 
ATOM      3  C   LIG    1        0.305  -0.930  -3.436  0.00  0.00    +0.273 C 
ATOM      4  N   LIG    1        0.670  -0.123  -4.418  0.00  0.00    -0.167 N 
ATOM      5  C   LIG    1        1.146   1.115  -4.174  0.00  0.00    +0.137 C 
ATOM      6  S   LIG    1        1.664   2.297  -5.299  0.00  0.00    -0.026 S 
ATOM      7  O   LIG    1       -0.125  -2.048  -3.653  0.00  0.00    -0.268 OA
ATOM      8  S   LIG    1        1.097   1.225  -2.392  0.00  0.00    -0.060 S 
ENDROOT
BRANCH   1  10
ATOM      9  C   LIG    1        1.301   0.908   0.316  0.00  0.00    +0.044 C 
ATOM     10  C   LIG    1        0.499  -0.368   0.337  0.00  0.00    -0.049 C 
ATOM     11  C   LIG    1        0.110  -0.903   1.518  0.00  0.00    +0.011 C 
BRANCH  11  12
ATOM     12  C   LIG    1        0.314  -0.154   2.767  0.00  0.00    -0.025 A 
ATOM     13  C   LIG    1        0.105   1.229   2.800  0.00  0.00    +0.008 A 
ATOM     14  C   LIG    1        0.298   1.923   3.976  0.00  0.00    +0.001 A 
ATOM     15  C   LIG    1        0.699   1.256   5.120  0.00  0.00    +0.000 A 
ATOM     16  C   LIG    1        0.908  -0.112   5.096  0.00  0.00    +0.001 A 
ATOM     17  C   LIG    1        0.713  -0.822   3.930  0.00  0.00    +0.008 A 
ENDBRANCH  11  12
ENDBRANCH   1  10
BRANCH   4  18
ATOM     18  N   LIG    1        0.559  -0.565  -5.743  0.00  0.00    -0.100 NA
ATOM     19  H   LIG    1        1.302  -1.025  -6.165  0.00  0.00    +0.172 HD
BRANCH  18  20
ATOM     20  S   LIG    1       -0.839  -0.301  -6.590  0.00  0.00    +0.074 S 
ATOM     21  O   LIG    1       -1.896  -0.833  -5.804  0.00  0.00    -0.152 OA
ATOM     22  O   LIG    1       -0.593  -0.726  -7.924  0.00  0.00    -0.152 OA
BRANCH  20  23
ATOM     23  C   LIG    1       -1.088   1.442  -6.655  0.00  0.00    +0.107 A 
ATOM     24  C   LIG    1       -1.807   2.075  -5.659  0.00  0.00    +0.028 A 
ATOM     25  C   LIG    1       -2.003   3.442  -5.710  0.00  0.00    +0.002 A 
ATOM     26  C   LIG    1       -1.478   4.177  -6.757  0.00  0.00    +0.000 A 
ATOM     27  C   LIG    1       -0.758   3.544  -7.753  0.00  0.00    +0.002 A 
ATOM     28  C   LIG    1       -0.559   2.177  -7.699  0.00  0.00    +0.028 A 
ENDBRANCH  20  23
ENDBRANCH  18  20
ENDBRANCH   4  18
TORSDOF 5
