REMARK  Name = ZINC12403083
REMARK                            x       y       z     vdW  Elec       q    Type
REMARK                         _______ _______ _______ _____ _____    ______ ____
ROOT
ATOM      1  C   LIG    1        0.610   2.235   0.639  0.00  0.00    +0.029 A 
ATOM      2  C   LIG    1       -0.498   1.393   0.651  0.00  0.00    +0.023 A 
ATOM      3  C   LIG    1       -0.339   0.044   0.465  0.00  0.00    +0.010 A 
ATOM      4  C   LIG    1        0.941  -0.487   0.263  0.00  0.00    -0.024 A 
ATOM      5  C   LIG    1        2.054   0.364   0.252  0.00  0.00    +0.010 A 
ATOM      6  C   LIG    1        1.885   1.712   0.438  0.00  0.00    +0.023 A 
ENDROOT
BRANCH   4   7
ATOM      7  C   LIG    1        1.117  -1.931   0.064  0.00  0.00    +0.028 C 
ATOM      8  C   LIG    1        0.095  -2.678  -0.428  0.00  0.00    +0.080 C 
ATOM      9  C   LIG    1       -0.009  -4.141  -0.584  0.00  0.00    +0.258 C 
ATOM     10  N   LIG    1       -1.138  -4.604  -1.095  0.00  0.00    -0.243 N 
ATOM     11  H   LIG    1       -1.249  -5.560  -1.211  0.00  0.00    +0.159 HD
ATOM     12  C   LIG    1       -2.136  -3.775  -1.465  0.00  0.00    +0.283 C 
ATOM     13  O   LIG    1       -3.215  -4.060  -1.948  0.00  0.00    -0.262 OA
ATOM     14  O   LIG    1        0.896  -4.886  -0.256  0.00  0.00    -0.269 OA
ATOM     15  S   LIG    1       -1.489  -2.158  -1.071  0.00  0.00    -0.026 S 
ENDBRANCH   4   7
BRANCH   1  17
ATOM     16  C   LIG    1       -0.870   4.138   1.195  0.00  0.00    +0.129 C 
ATOM     17  N   LIG    1        0.444   3.604   0.827  0.00  0.00    -0.336 N 
ATOM     18  C   LIG    1        1.582   4.510   0.658  0.00  0.00    +0.129 C 
ENDBRANCH   1  17
TORSDOF 2
