REMARK  Name = ZINC12356413
REMARK                            x       y       z     vdW  Elec       q    Type
REMARK                         _______ _______ _______ _____ _____    ______ ____
ROOT
ATOM      1  C   LIG    1       -2.776  -6.904   0.004  0.00  0.00    -0.079 C 
ENDROOT
BRANCH   1   5
ATOM      2  N   LIG    1       -3.448 -10.958  -0.977  0.00  0.00    -0.318 N 
ATOM      3  C   LIG    1       -4.030 -10.445   0.272  0.00  0.00    +0.088 C 
ATOM      4  C   LIG    1       -4.105  -8.918   0.207  0.00  0.00    -0.060 C 
ATOM      5  N   LIG    1       -2.741  -8.382   0.017  0.00  0.00    +0.382 N 
ATOM      6  H   LIG    1       -2.147  -8.695   0.794  0.00  0.00    -0.082 HD
ATOM      7  C   LIG    1       -2.175  -8.885  -1.253  0.00  0.00    -0.060 C 
ATOM      8  C   LIG    1       -2.100 -10.412  -1.188  0.00  0.00    +0.088 C 
BRANCH   2  14
ATOM      9  C   LIG    1       -4.146 -13.477  -4.546  0.00  0.00    +0.001 A 
ATOM     10  C   LIG    1       -4.086 -14.852  -4.351  0.00  0.00    +0.001 A 
ATOM     11  C   LIG    1       -3.822 -15.352  -3.103  0.00  0.00    +0.017 A 
ATOM     12  C   LIG    1       -3.618 -14.482  -2.052  0.00  0.00    +0.041 A 
ATOM     13  C   LIG    1       -3.674 -13.080  -2.221  0.00  0.00    +0.031 A 
ATOM     14  C   LIG    1       -3.429 -12.353  -0.984  0.00  0.00    +0.138 A 
ATOM     15  N   LIG    1       -3.189 -13.009   0.114  0.00  0.00    -0.194 NA
ATOM     16  S   LIG    1       -3.260 -14.659  -0.326  0.00  0.00    +0.014 S 
ATOM     17  C   LIG    1       -3.949 -12.604  -3.522  0.00  0.00    +0.012 A 
ENDBRANCH   2  14
ENDBRANCH   1   5
BRANCH   1  18
ATOM     18  C   LIG    1       -1.340  -6.375   0.032  0.00  0.00    -0.017 C 
BRANCH  18  19
ATOM     19  C   LIG    1       -1.360  -4.845   0.040  0.00  0.00    +0.017 C 
BRANCH  19  20
ATOM     20  C   LIG    1        0.075  -4.317   0.068  0.00  0.00    +0.104 C 
BRANCH  20  21
ATOM     21  N   LIG    1        0.056  -2.852   0.076  0.00  0.00    -0.311 N 
ATOM     22  H   LIG    1       -0.790  -2.378   0.064  0.00  0.00    +0.149 HD
ATOM     23  C   LIG    1        1.214  -2.163   0.100  0.00  0.00    +0.246 C 
ATOM     24  O   LIG    1        2.275  -2.757   0.115  0.00  0.00    -0.270 OA
BRANCH  23  25
ATOM     25  C   LIG    1        1.195  -0.689   0.108  0.00  0.00    +0.058 A 
ATOM     26  C   LIG    1       -0.022  -0.005   0.091  0.00  0.00    +0.015 A 
ATOM     27  C   LIG    1       -0.040   1.372   0.098  0.00  0.00    +0.001 A 
ATOM     28  C   LIG    1        1.149   2.084   0.120  0.00  0.00    +0.005 A 
ATOM     29  C   LIG    1        2.358   1.422   0.135  0.00  0.00    -0.024 A 
ATOM     30  C   LIG    1        3.784   1.935   0.152  0.00  0.00    +0.055 C 
ATOM     31  C   LIG    1        4.600   0.685  -0.254  0.00  0.00    +0.106 C 
ATOM     32  N   LIG    1        3.718  -0.425   0.166  0.00  0.00    -0.343 N 
ATOM     33  H   LIG    1        3.963  -0.754   1.087  0.00  0.00    +0.146 HD
ATOM     34  C   LIG    1        2.404   0.033   0.133  0.00  0.00    +0.043 A 
ENDBRANCH  23  25
ENDBRANCH  20  21
ENDBRANCH  19  20
ENDBRANCH  18  19
ENDBRANCH   1  18
TORSDOF 7
