REMARK  Name = ZINC12428297
REMARK                            x       y       z     vdW  Elec       q    Type
REMARK                         _______ _______ _______ _____ _____    ______ ____
ROOT
ATOM      1  C   LIG    1       -0.017   1.386   0.010  0.00  0.00    +0.047 A 
ATOM      2  C   LIG    1        1.169   2.094   0.002  0.00  0.00    +0.044 A 
ATOM      3 CL   LIG    1        1.141   3.830   0.011  0.00  0.00    -0.083 Cl
ATOM      4  C   LIG    1        2.381   1.423  -0.013  0.00  0.00    +0.042 A 
ATOM      5  C   LIG    1        2.412   0.043  -0.021  0.00  0.00    +0.068 A 
ATOM      6 CL   LIG    1        3.935  -0.791  -0.040  0.00  0.00    -0.081 Cl
ATOM      7  C   LIG    1        1.223  -0.680  -0.013  0.00  0.00    +0.084 A 
ATOM      8  N   LIG    1        1.262  -2.072  -0.021  0.00  0.00    -0.315 N 
ATOM      9  H   LIG    1        2.116  -2.533  -0.032  0.00  0.00    +0.169 HD
ATOM     10  C   LIG    1        0.115  -2.781  -0.014  0.00  0.00    +0.314 A 
ATOM     11  O   LIG    1        0.144  -3.995  -0.021  0.00  0.00    -0.262 OA
ATOM     12  C   LIG    1       -1.190  -2.058   0.002  0.00  0.00    +0.314 A 
ATOM     13  O   LIG    1       -2.234  -2.678   0.009  0.00  0.00    -0.262 OA
ATOM     14  N   LIG    1       -1.198  -0.710   0.010  0.00  0.00    -0.316 N 
ATOM     15  H   LIG    1       -2.041  -0.231   0.021  0.00  0.00    +0.169 HD
ATOM     16  C   LIG    1        0.002  -0.004   0.002  0.00  0.00    +0.069 A 
ENDROOT
TORSDOF 0
