REMARK  Name = ZINC09095354
REMARK                            x       y       z     vdW  Elec       q    Type
REMARK                         _______ _______ _______ _____ _____    ______ ____
ROOT
ATOM      1  N   LIG    1        1.145  -5.310   0.525  0.00  0.00    -0.165 NA
ATOM      2  C   LIG    1        1.546  -5.288  -0.893  0.00  0.00    +0.110 C 
ATOM      3  C   LIG    1        2.956  -4.646  -0.897  0.00  0.00    +0.019 C 
ATOM      4  C   LIG    1        3.568  -5.231   0.403  0.00  0.00    +0.031 C 
ATOM      5  C   LIG    1        2.357  -5.287   1.358  0.00  0.00    +0.165 C 
ENDROOT
BRANCH   5   6
ATOM      6  C   LIG    1        2.345  -4.070   2.247  0.00  0.00    +0.232 C 
ATOM      7  N   LIG    1        3.028  -4.078   3.409  0.00  0.00    -0.314 N 
ATOM      8  H   LIG    1        3.526  -4.867   3.673  0.00  0.00    +0.149 HD
ATOM      9  O   LIG    1        1.722  -3.084   1.916  0.00  0.00    -0.274 OA
BRANCH   7  10
ATOM     10  C   LIG    1        3.016  -2.895   4.273  0.00  0.00    +0.104 C 
BRANCH  10  11
ATOM     11  C   LIG    1        3.862  -3.166   5.519  0.00  0.00    +0.023 C 
BRANCH  11  12
ATOM     12  C   LIG    1        3.850  -1.930   6.421  0.00  0.00    +0.036 C 
BRANCH  12  13
ATOM     13  C   LIG    1        4.684  -2.196   7.649  0.00  0.00    -0.047 A 
ATOM     14  C   LIG    1        4.099  -2.746   8.775  0.00  0.00    +0.003 A 
ATOM     15  C   LIG    1        4.864  -2.990   9.900  0.00  0.00    +0.000 A 
ATOM     16  C   LIG    1        6.212  -2.686   9.900  0.00  0.00    +0.000 A 
ATOM     17  C   LIG    1        6.796  -2.137   8.774  0.00  0.00    +0.000 A 
ATOM     18  C   LIG    1        6.033  -1.897   7.646  0.00  0.00    +0.003 A 
ENDBRANCH  12  13
ENDBRANCH  11  12
ENDBRANCH  10  11
ENDBRANCH   7  10
ENDBRANCH   5   6
BRANCH   1  19
ATOM     19  S   LIG    1       -0.412  -5.346   1.088  0.00  0.00    +0.062 S 
ATOM     20  O   LIG    1       -0.364  -4.919   2.442  0.00  0.00    -0.153 OA
ATOM     21  O   LIG    1       -1.212  -4.694   0.111  0.00  0.00    -0.153 OA
BRANCH  19  26
ATOM     22  C   LIG    1       -2.150 -11.124   1.161  0.00  0.00    +0.044 C 
ATOM     23  C   LIG    1       -1.716  -9.681   1.143  0.00  0.00    -0.050 A 
ATOM     24  C   LIG    1       -1.011  -9.157   2.211  0.00  0.00    +0.005 A 
ATOM     25  C   LIG    1       -0.612  -7.834   2.194  0.00  0.00    +0.029 A 
ATOM     26  C   LIG    1       -0.919  -7.034   1.109  0.00  0.00    +0.106 A 
ATOM     27  C   LIG    1       -1.623  -7.557   0.041  0.00  0.00    +0.029 A 
ATOM     28  C   LIG    1       -2.018  -8.882   0.056  0.00  0.00    +0.005 A 
ENDBRANCH  19  26
ENDBRANCH   1  19
TORSDOF 7
