REMARK  Name = ZINC09095353
REMARK                            x       y       z     vdW  Elec       q    Type
REMARK                         _______ _______ _______ _____ _____    ______ ____
ROOT
ATOM      1  N   LIG    1        1.651  -4.999  -0.034  0.00  0.00    -0.165 NA
ATOM      2  C   LIG    1        2.470  -5.230  -1.238  0.00  0.00    +0.110 C 
ATOM      3  C   LIG    1        3.932  -5.027  -0.768  0.00  0.00    +0.019 C 
ATOM      4  C   LIG    1        3.888  -5.637   0.658  0.00  0.00    +0.031 C 
ATOM      5  C   LIG    1        2.479  -5.249   1.155  0.00  0.00    +0.165 C 
ENDROOT
BRANCH   5   6
ATOM      6  C   LIG    1        1.893  -6.379   1.960  0.00  0.00    +0.232 C 
ATOM      7  N   LIG    1        2.494  -6.779   3.098  0.00  0.00    -0.314 N 
ATOM      8  H   LIG    1        3.304  -6.338   3.399  0.00  0.00    +0.149 HD
ATOM      9  O   LIG    1        0.880  -6.930   1.584  0.00  0.00    -0.274 OA
BRANCH   7  10
ATOM     10  C   LIG    1        1.924  -7.878   3.881  0.00  0.00    +0.104 C 
BRANCH  10  11
ATOM     11  C   LIG    1        2.793  -8.129   5.115  0.00  0.00    +0.023 C 
BRANCH  11  12
ATOM     12  C   LIG    1        2.197  -9.277   5.933  0.00  0.00    +0.036 C 
BRANCH  12  13
ATOM     13  C   LIG    1        3.053  -9.524   7.149  0.00  0.00    -0.047 A 
ATOM     14  C   LIG    1        4.106 -10.418   7.082  0.00  0.00    +0.003 A 
ATOM     15  C   LIG    1        4.891 -10.645   8.197  0.00  0.00    +0.000 A 
ATOM     16  C   LIG    1        4.623  -9.978   9.378  0.00  0.00    +0.000 A 
ATOM     17  C   LIG    1        3.571  -9.084   9.444  0.00  0.00    +0.000 A 
ATOM     18  C   LIG    1        2.789  -8.854   8.328  0.00  0.00    +0.003 A 
ENDBRANCH  12  13
ENDBRANCH  11  12
ENDBRANCH  10  11
ENDBRANCH   7  10
ENDBRANCH   5   6
BRANCH   1  19
ATOM     19  S   LIG    1        0.063  -4.530  -0.023  0.00  0.00    +0.062 S 
ATOM     20  O   LIG    1       -0.490  -4.937  -1.267  0.00  0.00    -0.153 OA
ATOM     21  O   LIG    1       -0.476  -4.950   1.223  0.00  0.00    -0.153 OA
BRANCH  19  26
ATOM     22  C   LIG    1       -0.018   1.503   0.010  0.00  0.00    +0.044 C 
ATOM     23  C   LIG    1        0.002  -0.004   0.002  0.00  0.00    -0.050 A 
ATOM     24  C   LIG    1        0.006  -0.689  -1.199  0.00  0.00    +0.005 A 
ATOM     25  C   LIG    1        0.025  -2.071  -1.206  0.00  0.00    +0.029 A 
ATOM     26  C   LIG    1        0.040  -2.768  -0.013  0.00  0.00    +0.106 A 
ATOM     27  C   LIG    1        0.037  -2.084   1.188  0.00  0.00    +0.029 A 
ATOM     28  C   LIG    1        0.023  -0.702   1.195  0.00  0.00    +0.005 A 
ENDBRANCH  19  26
ENDBRANCH   1  19
TORSDOF 7
