REMARK  Name = ZINC08648345
REMARK                            x       y       z     vdW  Elec       q    Type
REMARK                         _______ _______ _______ _____ _____    ______ ____
ROOT
ATOM      1  C   LIG    1       -8.181  -5.920   0.052  0.00  0.00    +0.037 C 
ENDROOT
BRANCH   1   2
ATOM      2  C   LIG    1       -6.697  -5.547   0.042  0.00  0.00    +0.106 C 
BRANCH   2   3
ATOM      3  N   LIG    1       -6.560  -4.089   0.043  0.00  0.00    -0.315 N 
ATOM      4  H   LIG    1       -7.351  -3.527   0.049  0.00  0.00    +0.149 HD
BRANCH   3   8
ATOM      5  C   LIG    1       -2.845  -2.417   0.016  0.00  0.00    +0.141 A 
ATOM      6  C   LIG    1       -3.028  -3.801   0.016  0.00  0.00    +0.134 A 
ATOM      7  N   LIG    1       -4.254  -4.301   0.025  0.00  0.00    -0.223 NA
ATOM      8  C   LIG    1       -5.320  -3.520   0.034  0.00  0.00    +0.196 A 
ATOM      9  N   LIG    1       -5.213  -2.165   0.035  0.00  0.00    -0.294 N 
ATOM     10  H   LIG    1       -6.013  -1.616   0.041  0.00  0.00    +0.172 HD
ATOM     11  C   LIG    1       -3.996  -1.582   0.032  0.00  0.00    +0.267 A 
ATOM     12  O   LIG    1       -3.885  -0.369   0.038  0.00  0.00    -0.267 OA
BRANCH   5  13
ATOM     13  C   LIG    1       -1.497  -1.838   0.006  0.00  0.00    +0.346 C 
ATOM     14  O   LIG    1       -0.523  -2.565  -0.007  0.00  0.00    -0.245 OA
BRANCH  13  15
ATOM     15  O   LIG    1       -1.339  -0.499   0.012  0.00  0.00    -0.461 OA
BRANCH  15  17
ATOM     16  C   LIG    1       -0.019   1.526   0.010  0.00  0.00    +0.048 C 
ATOM     17  C   LIG    1        0.002  -0.004   0.002  0.00  0.00    +0.229 C 
ENDBRANCH  15  17
ENDBRANCH  13  15
ENDBRANCH   5  13
ENDBRANCH   3   8
ENDBRANCH   2   3
ENDBRANCH   1   2
BRANCH   1  18
ATOM     18  C   LIG    1       -8.324  -7.444   0.051  0.00  0.00    +0.106 C 
BRANCH  18  19
ATOM     19  N   LIG    1       -9.745  -7.801   0.061  0.00  0.00    -0.315 N 
ATOM     20  H   LIG    1      -10.420  -7.104   0.067  0.00  0.00    +0.149 HD
BRANCH  19  21
ATOM     21  C   LIG    1      -10.118  -9.113   0.062  0.00  0.00    +0.196 A 
ATOM     22  N   LIG    1       -9.184 -10.048   0.060  0.00  0.00    -0.223 NA
ATOM     23  C   LIG    1       -9.492 -11.336   0.061  0.00  0.00    +0.134 A 
ATOM     24  C   LIG    1      -10.832 -11.728   0.066  0.00  0.00    +0.141 A 
ATOM     25  C   LIG    1      -11.832 -10.717   0.068  0.00  0.00    +0.267 A 
ATOM     26  O   LIG    1      -13.014 -11.010   0.072  0.00  0.00    -0.267 OA
ATOM     27  N   LIG    1      -11.441  -9.424   0.072  0.00  0.00    -0.294 N 
ATOM     28  H   LIG    1      -12.105  -8.717   0.078  0.00  0.00    +0.172 HD
BRANCH  24  29
ATOM     29  C   LIG    1      -11.199 -13.148   0.067  0.00  0.00    +0.346 C 
ATOM     30  O   LIG    1      -10.332 -14.000   0.064  0.00  0.00    -0.245 OA
BRANCH  29  31
ATOM     31  O   LIG    1      -12.499 -13.508   0.071  0.00  0.00    -0.461 OA
BRANCH  31  32
ATOM     32  C   LIG    1      -12.784 -14.908   0.072  0.00  0.00    +0.229 C 
ATOM     33  C   LIG    1      -14.299 -15.120   0.077  0.00  0.00    +0.048 C 
ENDBRANCH  31  32
ENDBRANCH  29  31
ENDBRANCH  24  29
ENDBRANCH  19  21
ENDBRANCH  18  19
ENDBRANCH   1  18
TORSDOF 12
