REMARK  Name = ZINC08681718
REMARK                            x       y       z     vdW  Elec       q    Type
REMARK                         _______ _______ _______ _____ _____    ______ ____
ROOT
ATOM      1  C   LIG    1        0.010  -3.093   0.130  0.00  0.00    +0.132 C 
ATOM      2  C   LIG    1        0.645  -3.461  -1.238  0.00  0.00    +0.049 C 
ATOM      3  C   LIG    1       -0.530  -3.848  -2.177  0.00  0.00    +0.008 C 
ATOM      4  C   LIG    1       -1.739  -3.180  -1.493  0.00  0.00    +0.006 C 
ATOM      5  C   LIG    1       -3.088  -3.663  -1.970  0.00  0.00    +0.020 C 
ATOM      6  C   LIG    1       -3.032  -4.922  -2.801  0.00  0.00    +0.013 C 
ATOM      7  C   LIG    1       -4.451  -5.481  -2.974  0.00  0.00    +0.036 C 
ATOM      8  C   LIG    1       -4.952  -5.815  -1.587  0.00  0.00    -0.041 C 
ATOM      9  C   LIG    1       -5.550  -7.000  -1.353  0.00  0.00    +0.050 C 
ATOM     10  C   LIG    1       -5.881  -7.390  -0.046  0.00  0.00    +0.157 C 
ATOM     11  O   LIG    1       -6.582  -8.361   0.139  0.00  0.00    -0.293 OA
ATOM     12  C   LIG    1       -5.360  -6.604   1.125  0.00  0.00    +0.083 C 
ATOM     13  C   LIG    1       -5.394  -5.104   0.816  0.00  0.00    +0.043 C 
ATOM     14  C   LIG    1       -4.747  -4.822  -0.521  0.00  0.00    -0.044 C 
ATOM     15  C   LIG    1       -3.982  -3.771  -0.742  0.00  0.00    -0.055 C 
ATOM     16  C   LIG    1       -3.757  -2.596   0.183  0.00  0.00    +0.046 C 
ATOM     17  C   LIG    1       -2.441  -2.856   0.938  0.00  0.00    +0.023 C 
ATOM     18  C   LIG    1       -1.463  -3.507  -0.010  0.00  0.00    +0.012 C 
ATOM     19  C   LIG    1       -1.508  -5.030   0.225  0.00  0.00    +0.015 C 
ENDROOT
BRANCH  16  20
ATOM     20  C   LIG    1       -4.904  -2.237   1.092  0.00  0.00    -0.040 A 
ATOM     21  C   LIG    1       -4.875  -2.616   2.422  0.00  0.00    +0.006 A 
ATOM     22  C   LIG    1       -5.925  -2.288   3.257  0.00  0.00    +0.023 A 
ATOM     23  C   LIG    1       -7.010  -1.578   2.760  0.00  0.00    +0.029 A 
ATOM     24  C   LIG    1       -7.036  -1.199   1.424  0.00  0.00    +0.023 A 
ATOM     25  C   LIG    1       -5.980  -1.525   0.596  0.00  0.00    +0.006 A 
BRANCH  23  26
ATOM     26  N   LIG    1       -8.074  -1.245   3.603  0.00  0.00    -0.336 N 
ATOM     27  C   LIG    1       -9.218  -0.496   3.077  0.00  0.00    +0.129 C 
ATOM     28  C   LIG    1       -8.045  -1.646   5.012  0.00  0.00    +0.129 C 
ENDBRANCH  23  26
ENDBRANCH  16  20
BRANCH   1  31
ATOM     29  C   LIG    1        0.442   0.942   0.798  0.00  0.00    +0.106 C 
ATOM     30  C   LIG    1        0.287  -0.502   0.559  0.00  0.00    -0.103 C 
ATOM     31  C   LIG    1        0.164  -1.654   0.368  0.00  0.00    -0.067 C 
ENDBRANCH   1  31
BRANCH   1  32
ATOM     32  O   LIG    1        0.629  -3.845   1.174  0.00  0.00    -0.376 OA
ATOM     33  H   LIG    1        1.575  -3.674   1.274  0.00  0.00    +0.211 HD
ENDBRANCH   1  32
TORSDOF 4
