REMARK  Name = ZINC11735100
REMARK                            x       y       z     vdW  Elec       q    Type
REMARK                         _______ _______ _______ _____ _____    ______ ____
ROOT
ATOM      1  C   LIG    1        1.172   1.783   0.000  0.00  0.00    +0.002 A 
ATOM      2  C   LIG    1        1.162   3.170   0.008  0.00  0.00    +0.002 A 
ATOM      3  C   LIG    1       -0.030   3.860   0.023  0.00  0.00    +0.030 A 
ATOM      4  C   LIG    1       -1.238   3.159   0.030  0.00  0.00    +0.091 A 
ATOM      5  C   LIG    1       -1.222   1.754   0.017  0.00  0.00    +0.067 A 
ATOM      6  N   LIG    1       -2.548   1.354   0.021  0.00  0.00    -0.326 N 
ATOM      7  C   LIG    1       -3.312   2.485   0.031  0.00  0.00    +0.196 A 
ATOM      8  H   LIG    1       -2.883   0.412   0.017  0.00  0.00    +0.169 HD
ATOM      9  N   LIG    1       -2.541   3.544   0.045  0.00  0.00    -0.214 NA
ATOM     10  C   LIG    1       -0.013   1.076   0.008  0.00  0.00    +0.028 A 
ENDROOT
BRANCH   7  11
ATOM     11  N   LIG    1       -4.691   2.510   0.037  0.00  0.00    -0.305 N 
ATOM     12  C   LIG    1       -5.226   1.750   1.176  0.00  0.00    +0.089 C 
ATOM     13  C   LIG    1       -6.755   1.734   1.103  0.00  0.00    -0.063 C 
ATOM     14  N   LIG    1       -7.263   3.119   1.119  0.00  0.00    +0.381 N 
ATOM     15  H   LIG    1       -8.288   3.105   1.062  0.00  0.00    -0.086 HD
ATOM     16  H   LIG    1       -6.975   3.575   1.993  0.00  0.00    -0.086 HD
ATOM     17  C   LIG    1       -6.722   3.875  -0.026  0.00  0.00    -0.063 C 
ATOM     18  C   LIG    1       -5.194   3.891   0.047  0.00  0.00    +0.089 C 
ENDBRANCH   7  11
TORSDOF 1
