REMARK  Name = ZINC08780879
REMARK                            x       y       z     vdW  Elec       q    Type
REMARK                         _______ _______ _______ _____ _____    ______ ____
ROOT
ATOM      1  C   LIG    1        2.170   6.751   1.221  0.00  0.00    +0.061 C 
ATOM      2  C   LIG    1        3.070   6.564   2.269  0.00  0.00    +0.065 C 
ATOM      3  C   LIG    1        3.739   7.598   3.067  0.00  0.00    +0.069 C 
ATOM      4  C   LIG    1        3.582   9.088   2.905  0.00  0.00    +0.068 C 
ATOM      5  N   LIG    1        4.492   6.996   3.939  0.00  0.00    -0.177 NA
ATOM      6  N   LIG    1        4.402   5.610   3.813  0.00  0.00    -0.156 N 
ATOM      7  C   LIG    1        3.549   5.290   2.819  0.00  0.00    +0.272 C 
ATOM      8  O   LIG    1        3.239   4.169   2.451  0.00  0.00    -0.268 OA
ENDROOT
BRANCH   6   9
ATOM      9  C   LIG    1        5.089   4.689   4.605  0.00  0.00    +0.060 A 
ATOM     10  C   LIG    1        4.916   3.324   4.392  0.00  0.00    +0.026 A 
ATOM     11  C   LIG    1        5.596   2.413   5.167  0.00  0.00    +0.017 A 
ATOM     12  C   LIG    1        6.454   2.859   6.177  0.00  0.00    +0.059 A 
ATOM     13  C   LIG    1        6.622   4.231   6.392  0.00  0.00    +0.017 A 
ATOM     14  C   LIG    1        5.942   5.136   5.609  0.00  0.00    +0.026 A 
BRANCH  12  15
ATOM     15  C   LIG    1        7.180   1.886   7.014  0.00  0.00    +0.337 C 
ATOM     16  O   LIG    1        7.925   2.276   7.891  0.00  0.00    -0.245 OA
BRANCH  15  17
ATOM     17  O   LIG    1        7.017   0.565   6.806  0.00  0.00    -0.477 OA
ATOM     18  H   LIG    1        6.443   0.264   6.129  0.00  0.00    +0.295 HD
ENDBRANCH  15  17
ENDBRANCH  12  15
ENDBRANCH   6   9
BRANCH   1  22
ATOM     19  C   LIG    1        1.174   3.562   0.010  0.00  0.00    +0.138 A 
ATOM     20  C   LIG    1        0.443   4.366  -0.841  0.00  0.00    +0.050 A 
ATOM     21  C   LIG    1        0.717   5.686  -0.492  0.00  0.00    +0.050 A 
ATOM     22  C   LIG    1        1.621   5.643   0.563  0.00  0.00    +0.129 A 
ATOM     23  O   LIG    1        1.878   4.347   0.843  0.00  0.00    -0.455 OA
BRANCH  19  27
ATOM     24  C   LIG    1       -1.294  -0.773   0.010  0.00  0.00    +0.044 C 
ATOM     25  C   LIG    1        0.002  -0.004   0.002  0.00  0.00    -0.047 A 
ATOM     26  C   LIG    1       -0.017   1.375   0.010  0.00  0.00    +0.017 A 
ATOM     27  C   LIG    1        1.186   2.087   0.002  0.00  0.00    +0.048 A 
ATOM     28  C   LIG    1        2.400   1.394  -0.013  0.00  0.00    +0.132 A 
ATOM     29  C   LIG    1        2.403   0.015  -0.021  0.00  0.00    +0.037 A 
ATOM     30  C   LIG    1        1.208  -0.683  -0.013  0.00  0.00    -0.045 A 
ATOM     31  C   LIG    1        1.220  -2.190  -0.021  0.00  0.00    +0.044 C 
BRANCH  28  32
ATOM     32  N   LIG    1        3.679   2.139  -0.022  0.00  0.00    +0.007 N 
ATOM     33  O   LIG    1        4.736   1.534  -0.036  0.00  0.00    -0.130 OA
BRANCH  32  34
ATOM     34  O   LIG    1        3.675   3.357  -0.015  0.00  0.00    -0.396 OA
ATOM     35  H   LIG    1        2.861   3.823  -0.005  0.00  0.00    +0.329 HD
ENDBRANCH  32  34
ENDBRANCH  28  32
ENDBRANCH  19  27
ENDBRANCH   1  22
TORSDOF 7
