REMARK  Name = ZINC08587503
REMARK                            x       y       z     vdW  Elec       q    Type
REMARK                         _______ _______ _______ _____ _____    ______ ____
ROOT
ATOM      1  C   LIG    1       -0.304   2.215  -0.139  0.00  0.00    +0.154 C 
ATOM      2  N   LIG    1        0.053   0.801  -0.285  0.00  0.00    -0.294 N 
ATOM      3  C   LIG    1       -0.904  -0.213  -0.133  0.00  0.00    +0.082 A 
ATOM      4  C   LIG    1       -0.479  -1.627  -0.293  0.00  0.00    +0.089 A 
ATOM      5  C   LIG    1        0.924  -1.923  -0.600  0.00  0.00    +0.266 A 
ATOM      6  N   LIG    1        1.735  -0.840  -0.719  0.00  0.00    -0.263 N 
ATOM      7  C   LIG    1        3.149  -1.068  -1.026  0.00  0.00    +0.157 C 
ATOM      8  O   LIG    1        1.333  -3.060  -0.739  0.00  0.00    -0.267 OA
ATOM      9  C   LIG    1       -1.600  -2.396  -0.100  0.00  0.00    +0.069 A 
ATOM     10  N   LIG    1       -2.638  -1.553   0.146  0.00  0.00    -0.306 N 
ATOM     11  C   LIG    1       -3.983  -1.867   0.389  0.00  0.00    +0.068 A 
ATOM     12  C   LIG    1       -4.391  -3.165   0.629  0.00  0.00    +0.028 A 
ATOM     13  C   LIG    1       -5.725  -3.430   0.883  0.00  0.00    +0.002 A 
ATOM     14  C   LIG    1       -6.648  -2.400   0.895  0.00  0.00    +0.002 A 
ATOM     15  C   LIG    1       -6.248  -1.100   0.648  0.00  0.00    +0.025 A 
ATOM     16  C   LIG    1       -4.915  -0.824   0.386  0.00  0.00    +0.052 A 
ATOM     17  N   LIG    1       -4.500   0.484   0.115  0.00  0.00    -0.330 N 
ATOM     18  H   LIG    1       -5.115   1.111  -0.298  0.00  0.00    +0.147 HD
ATOM     19  C   LIG    1       -3.135   0.912   0.456  0.00  0.00    +0.150 C 
ATOM     20  C   LIG    1       -2.198  -0.236   0.149  0.00  0.00    +0.073 A 
ATOM     21  C   LIG    1        1.317   0.422  -0.577  0.00  0.00    +0.332 A 
ATOM     22  O   LIG    1        2.144   1.302  -0.718  0.00  0.00    -0.246 OA
ENDROOT
BRANCH   9  23
ATOM     23  C   LIG    1       -1.666  -3.869  -0.152  0.00  0.00    -0.000 A 
ATOM     24  C   LIG    1       -0.872  -4.637   0.703  0.00  0.00    +0.010 A 
ATOM     25  C   LIG    1       -0.939  -6.014   0.649  0.00  0.00    +0.001 A 
ATOM     26  C   LIG    1       -1.791  -6.634  -0.249  0.00  0.00    +0.000 A 
ATOM     27  C   LIG    1       -2.580  -5.879  -1.098  0.00  0.00    +0.001 A 
ATOM     28  C   LIG    1       -2.528  -4.502  -1.051  0.00  0.00    +0.010 A 
ENDBRANCH   9  23
BRANCH  19  29
ATOM     29  C   LIG    1       -3.058   1.254   1.922  0.00  0.00    -0.019 A 
ATOM     30  C   LIG    1       -2.477   2.443   2.325  0.00  0.00    +0.006 A 
ATOM     31  C   LIG    1       -2.406   2.757   3.669  0.00  0.00    +0.003 A 
ATOM     32  C   LIG    1       -2.916   1.883   4.611  0.00  0.00    +0.032 A 
ATOM     33  C   LIG    1       -3.497   0.695   4.208  0.00  0.00    +0.122 A 
ATOM     34  C   LIG    1       -3.572   0.383   2.863  0.00  0.00    +0.038 A 
BRANCH  33  35
ATOM     35  N   LIG    1       -4.042  -0.241   5.217  0.00  0.00    +0.006 N 
ATOM     36  O   LIG    1       -3.979   0.033   6.392  0.00  0.00    -0.130 OA
BRANCH  35  37
ATOM     37  O   LIG    1       -4.550  -1.280   4.865  0.00  0.00    -0.396 OA
ATOM     38  H   LIG    1       -4.599  -1.493   3.953  0.00  0.00    +0.329 HD
ENDBRANCH  35  37
ENDBRANCH  33  35
ENDBRANCH  19  29
TORSDOF 4
