REMARK  Name = ZINC08699907
REMARK                            x       y       z     vdW  Elec       q    Type
REMARK                         _______ _______ _______ _____ _____    ______ ____
ROOT
ATOM      1  C   LIG    1       -2.940  -1.740  -1.439  0.00  0.00    +0.160 C 
ENDROOT
BRANCH   1   2
ATOM      2  O   LIG    1       -1.715  -1.012  -1.334  0.00  0.00    -0.375 OA
BRANCH   2   3
ATOM      3  C   LIG    1       -1.293  -0.775   0.010  0.00  0.00    +0.195 C 
BRANCH   3  10
ATOM      4  C   LIG    1       -0.017   1.378   0.010  0.00  0.00    +0.007 A 
ATOM      5  C   LIG    1        1.171   2.086   0.002  0.00  0.00    +0.015 A 
ATOM      6  C   LIG    1        2.378   1.411  -0.013  0.00  0.00    +0.018 A 
ATOM      7 BR   LIG    1        4.003   2.378  -0.024  0.00  0.00    -0.050 Br
ATOM      8  C   LIG    1        2.396   0.027  -0.021  0.00  0.00    +0.015 A 
ATOM      9  C   LIG    1        1.208  -0.679  -0.013  0.00  0.00    +0.007 A 
ATOM     10  C   LIG    1        0.002  -0.004   0.002  0.00  0.00    -0.022 A 
ENDBRANCH   3  10
ENDBRANCH   2   3
ENDBRANCH   1   2
BRANCH   1  11
ATOM     11  C   LIG    1       -3.293  -1.933  -2.915  0.00  0.00    +0.034 C 
BRANCH  11  12
ATOM     12  C   LIG    1       -4.605  -2.713  -3.028  0.00  0.00    +0.057 C 
BRANCH  12  13
ATOM     13  C   LIG    1       -4.953  -2.904  -4.482  0.00  0.00    +0.033 A 
ATOM     14  C   LIG    1       -5.616  -2.036  -5.269  0.00  0.00    +0.105 A 
ATOM     15  N   LIG    1       -5.718  -2.579  -6.491  0.00  0.00    -0.352 N 
ATOM     16  H   LIG    1       -6.149  -2.165  -7.255  0.00  0.00    +0.166 HD
ATOM     17  C   LIG    1       -5.151  -3.754  -6.489  0.00  0.00    +0.171 A 
ATOM     18  N   LIG    1       -4.660  -3.996  -5.254  0.00  0.00    -0.350 N 
ATOM     19  H   LIG    1       -4.189  -4.794  -4.968  0.00  0.00    +0.166 HD
ENDBRANCH  12  13
ENDBRANCH  11  12
ENDBRANCH   1  11
TORSDOF 6
