REMARK  Name = ZINC12502867
REMARK                            x       y       z     vdW  Elec       q    Type
REMARK                         _______ _______ _______ _____ _____    ______ ____
ROOT
ATOM      1  C   LIG    1        3.116   0.715   1.370  0.00  0.00    +0.033 C 
ENDROOT
BRANCH   1   2
ATOM      2  C   LIG    1        4.366  -0.168   1.353  0.00  0.00    +0.128 C 
BRANCH   2   3
ATOM      3  P   LIG    1        5.135  -0.164   3.006  0.00  0.00    +0.328 P 
ATOM      4  O   LIG    1        4.135  -0.576   4.016  0.00  0.00    -0.259 OA
BRANCH   3   5
ATOM      5  O   LIG    1        5.664   1.318   3.348  0.00  0.00    -0.324 OA
ATOM      6  H   LIG    1        6.160   1.517   4.309  0.00  0.00    +0.220 HD
ENDBRANCH   3   5
BRANCH   3   7
ATOM      7  O   LIG    1        6.373  -1.193   3.025  0.00  0.00    -0.324 OA
ATOM      8  H   LIG    1        6.054  -2.086   2.818  0.00  0.00    +0.220 HD
ENDBRANCH   3   7
ENDBRANCH   2   3
ENDBRANCH   1   2
BRANCH   1   9
ATOM      9  C   LIG    1        2.471   0.711  -0.018  0.00  0.00    +0.140 C 
BRANCH   9  10
ATOM     10  N   LIG    1        1.275   1.556  -0.002  0.00  0.00    -0.186 N 
ATOM     11  C   LIG    1        1.397   2.898   0.004  0.00  0.00    +0.352 C 
ATOM     12  O   LIG    1        0.406   3.598   0.018  0.00  0.00    -0.277 OA
BRANCH  10  13
ATOM     13  O   LIG    1       -0.011   0.963   0.007  0.00  0.00    -0.293 OA
ATOM     14  H   LIG    1       -0.910   1.597   0.019  0.00  0.00    +0.242 HD
ENDBRANCH  10  13
ENDBRANCH   9  10
ENDBRANCH   1   9
TORSDOF 7
