REMARK  Name = ZINC08838039
REMARK                            x       y       z     vdW  Elec       q    Type
REMARK                         _______ _______ _______ _____ _____    ______ ____
ROOT
ATOM      1  C   LIG    1        5.013  -0.539  -3.577  0.00  0.00    +0.071 C 
ATOM      2  C   LIG    1        4.421  -1.744  -3.405  0.00  0.00    +0.188 C 
ATOM      3  C   LIG    1        3.930  -1.849  -2.015  0.00  0.00    +0.283 C 
ATOM      4  N   LIG    1        4.210  -0.719  -1.342  0.00  0.00    -0.279 N 
ATOM      5  O   LIG    1        3.357  -2.814  -1.550  0.00  0.00    -0.267 OA
ATOM      6  C   LIG    1        4.911   0.190  -2.257  0.00  0.00    +0.145 C 
ENDROOT
BRANCH   6   7
ATOM      7  C   LIG    1        4.123   1.463  -2.428  0.00  0.00    -0.022 A 
ATOM      8  C   LIG    1        2.776   1.406  -2.736  0.00  0.00    +0.006 A 
ATOM      9  C   LIG    1        2.052   2.574  -2.888  0.00  0.00    +0.004 A 
ATOM     10  C   LIG    1        2.677   3.798  -2.742  0.00  0.00    -0.050 A 
ATOM     11  C   LIG    1        1.889   5.071  -2.912  0.00  0.00    +0.044 C 
ATOM     12  C   LIG    1        4.025   3.855  -2.439  0.00  0.00    +0.004 A 
ATOM     13  C   LIG    1        4.748   2.687  -2.282  0.00  0.00    +0.006 A 
ENDBRANCH   6   7
BRANCH   1  14
ATOM     14  C   LIG    1        5.634  -0.037  -4.807  0.00  0.00    +0.195 C 
ATOM     15  O   LIG    1        4.949   0.179  -5.789  0.00  0.00    -0.287 OA
BRANCH  14  19
ATOM     16  C   LIG    1        9.822   0.659  -4.941  0.00  0.00    +0.123 A 
ATOM     17  C   LIG    1        9.251   0.075  -3.815  0.00  0.00    +0.046 A 
ATOM     18  C   LIG    1        7.895  -0.153  -3.767  0.00  0.00    +0.015 A 
ATOM     19  C   LIG    1        7.090   0.205  -4.853  0.00  0.00    +0.023 A 
ATOM     20  C   LIG    1        7.668   0.787  -5.986  0.00  0.00    +0.018 A 
ATOM     21  C   LIG    1        9.025   1.016  -6.023  0.00  0.00    -0.008 A 
ATOM     22  C   LIG    1        9.648   1.648  -7.240  0.00  0.00    +0.047 C 
BRANCH  16  23
ATOM     23  O   LIG    1       11.159   0.881  -4.984  0.00  0.00    -0.492 OA
BRANCH  23  24
ATOM     24  C   LIG    1       11.919   0.491  -3.838  0.00  0.00    +0.229 C 
BRANCH  24  25
ATOM     25  C   LIG    1       13.396   0.818  -4.069  0.00  0.00    +0.041 C 
BRANCH  25  27
ATOM     26  C   LIG    1       15.685   0.727  -3.074  0.00  0.00    +0.004 C 
ATOM     27  C   LIG    1       14.209   0.400  -2.842  0.00  0.00    -0.000 C 
ENDBRANCH  25  27
ENDBRANCH  24  25
ENDBRANCH  23  24
ENDBRANCH  16  23
ENDBRANCH  14  19
ENDBRANCH   1  14
BRANCH   2  28
ATOM     28  O   LIG    1        4.301  -2.701  -4.354  0.00  0.00    -0.502 OA
ATOM     29  H   LIG    1        4.641  -2.553  -5.214  0.00  0.00    +0.292 HD
ENDBRANCH   2  28
BRANCH   4  30
ATOM     30  C   LIG    1        3.880  -0.445   0.059  0.00  0.00    +0.145 C 
BRANCH  30  31
ATOM     31  C   LIG    1        2.522   0.204   0.137  0.00  0.00    -0.012 A 
ATOM     32  C   LIG    1        1.379  -0.572   0.264  0.00  0.00    +0.008 A 
ATOM     33  C   LIG    1        0.151   0.068   0.332  0.00  0.00    +0.020 A 
ATOM     34  C   LIG    1        0.107   1.448   0.272  0.00  0.00    +0.111 A 
ATOM     35  N   LIG    1        1.214   2.154   0.151  0.00  0.00    -0.263 NA
ATOM     36  C   LIG    1        2.399   1.579   0.083  0.00  0.00    +0.115 A 
ENDBRANCH  30  31
ENDBRANCH   4  30
TORSDOF 10
