REMARK  Name = ZINC12813325
REMARK                            x       y       z     vdW  Elec       q    Type
REMARK                         _______ _______ _______ _____ _____    ______ ____
ROOT
ATOM      1  C   LIG    1        5.235  -1.786   1.379  0.00  0.00    +0.162 A 
ATOM      2  C   LIG    1        5.851  -2.451   0.327  0.00  0.00    +0.050 A 
ATOM      3  C   LIG    1        7.072  -3.061   0.514  0.00  0.00    +0.012 A 
ATOM      4  C   LIG    1        7.695  -3.011   1.767  0.00  0.00    -0.020 A 
ATOM      5  C   LIG    1        7.073  -2.340   2.826  0.00  0.00    +0.057 A 
ATOM      6  C   LIG    1        5.851  -1.727   2.629  0.00  0.00    +0.163 A 
ENDROOT
BRANCH   4   7
ATOM      7  C   LIG    1        8.996  -3.661   1.969  0.00  0.00    +0.028 C 
ATOM      8  C   LIG    1        9.937  -3.615   0.992  0.00  0.00    +0.077 C 
ATOM      9  C   LIG    1        9.951  -2.839  -0.265  0.00  0.00    +0.258 C 
ATOM     10  N   LIG    1       11.011  -2.989  -1.041  0.00  0.00    -0.255 N 
ATOM     11  C   LIG    1       12.026  -3.809  -0.699  0.00  0.00    +0.121 C 
ATOM     12  S   LIG    1       13.469  -4.133  -1.561  0.00  0.00    -0.027 S 
ATOM     13  O   LIG    1        9.034  -2.100  -0.571  0.00  0.00    -0.269 OA
ATOM     14  S   LIG    1       11.503  -4.468   0.876  0.00  0.00    -0.061 S 
BRANCH  10  15
ATOM     15  C   LIG    1       11.085  -2.247  -2.303  0.00  0.00    +0.126 C 
BRANCH  15  16
ATOM     16  C   LIG    1       11.764  -0.897  -2.061  0.00  0.00    +0.140 C 
BRANCH  16  17
ATOM     17  C   LIG    1       11.840  -0.134  -3.358  0.00  0.00    +0.306 C 
ATOM     18  O   LIG    1       11.393  -0.625  -4.381  0.00  0.00    -0.251 OA
BRANCH  17  19
ATOM     19  O   LIG    1       12.348   0.974  -3.385  0.00  0.00    -0.481 OA
ATOM     20  H   LIG    1       12.691   1.351  -2.599  0.00  0.00    +0.295 HD
ENDBRANCH  17  19
ENDBRANCH  16  17
ENDBRANCH  15  16
ENDBRANCH  10  15
ENDBRANCH   4   7
BRANCH   1  21
ATOM     21  O   LIG    1        4.032  -1.185   1.189  0.00  0.00    -0.484 OA
BRANCH  21  22
ATOM     22  C   LIG    1        3.456  -1.284  -0.115  0.00  0.00    +0.264 C 
BRANCH  22  26
ATOM     23  C   LIG    1       -0.297   0.755  -0.177  0.00  0.00    +0.000 A 
ATOM     24  C   LIG    1        0.865   1.436  -0.487  0.00  0.00    +0.000 A 
ATOM     25  C   LIG    1        2.080   0.776  -0.467  0.00  0.00    +0.007 A 
ATOM     26  C   LIG    1        2.132  -0.565  -0.136  0.00  0.00    -0.010 A 
ATOM     27  C   LIG    1        0.970  -1.246   0.175  0.00  0.00    +0.007 A 
ATOM     28  C   LIG    1       -0.244  -0.586   0.153  0.00  0.00    +0.000 A 
ENDBRANCH  22  26
ENDBRANCH  21  22
ENDBRANCH   1  21
BRANCH   6  29
ATOM     29  O   LIG    1        5.247  -1.069   3.654  0.00  0.00    -0.484 OA
BRANCH  29  30
ATOM     30  C   LIG    1        5.935  -1.049   4.907  0.00  0.00    +0.264 C 
BRANCH  30  31
ATOM     31  C   LIG    1        5.119  -0.282   5.915  0.00  0.00    -0.010 A 
ATOM     32  C   LIG    1        5.295   1.083   6.053  0.00  0.00    +0.007 A 
ATOM     33  C   LIG    1        4.547   1.786   6.978  0.00  0.00    +0.000 A 
ATOM     34  C   LIG    1        3.622   1.126   7.765  0.00  0.00    +0.000 A 
ATOM     35  C   LIG    1        3.445  -0.238   7.627  0.00  0.00    +0.000 A 
ATOM     36  C   LIG    1        4.191  -0.941   6.699  0.00  0.00    +0.007 A 
ENDBRANCH  30  31
ENDBRANCH  29  30
ENDBRANCH   6  29
TORSDOF 11
