REMARK  Name = ZINC12832813
REMARK                            x       y       z     vdW  Elec       q    Type
REMARK                         _______ _______ _______ _____ _____    ______ ____
ROOT
ATOM      1  C   LIG    1       -0.889   3.737   0.124  0.00  0.00    -0.024 A 
ATOM      2  C   LIG    1        0.417   4.248   0.118  0.00  0.00    +0.010 A 
ATOM      3  C   LIG    1        0.620   5.595   0.210  0.00  0.00    +0.024 A 
ATOM      4  C   LIG    1       -0.466   6.460   0.320  0.00  0.00    +0.030 A 
ATOM      5  C   LIG    1       -1.765   5.957   0.331  0.00  0.00    +0.024 A 
ATOM      6  C   LIG    1       -1.979   4.612   0.235  0.00  0.00    +0.010 A 
ENDROOT
BRANCH   1  15
ATOM      7  C   LIG    1       -0.721  -2.274  -0.588  0.00  0.00    +0.001 A 
ATOM      8  C   LIG    1        0.217  -2.576  -1.561  0.00  0.00    +0.002 A 
ATOM      9  C   LIG    1        0.902  -1.572  -2.213  0.00  0.00    +0.024 A 
ATOM     10  C   LIG    1        0.656  -0.240  -1.898  0.00  0.00    +0.042 A 
ATOM     11  C   LIG    1       -0.294   0.062  -0.913  0.00  0.00    +0.008 A 
ATOM     12  C   LIG    1       -0.331   1.538  -0.807  0.00  0.00    +0.046 C 
ATOM     13  C   LIG    1        0.654   2.016  -1.791  0.00  0.00    +0.249 C 
ATOM     14  O   LIG    1        0.931   3.179  -2.020  0.00  0.00    -0.270 OA
ATOM     15  C   LIG    1       -1.113   2.293   0.020  0.00  0.00    +0.021 C 
ATOM     16  N   LIG    1        1.194   0.942  -2.392  0.00  0.00    -0.281 N 
ATOM     17  H   LIG    1        1.873   0.986  -3.083  0.00  0.00    +0.155 HD
ATOM     18  C   LIG    1       -0.980  -0.958  -0.262  0.00  0.00    +0.010 A 
ENDBRANCH   1  15
BRANCH   4  19
ATOM     19  N   LIG    1       -0.254   7.831   0.418  0.00  0.00    -0.327 N 
ATOM     20  C   LIG    1       -0.980   8.553  -0.635  0.00  0.00    +0.124 C 
ATOM     21  C   LIG    1       -0.869  10.061  -0.385  0.00  0.00    +0.126 C 
ATOM     22  N   LIG    1        0.554  10.410  -0.260  0.00  0.00    -0.301 N 
ATOM     23  C   LIG    1        1.087  11.412  -0.986  0.00  0.00    +0.328 C 
ATOM     24  O   LIG    1        0.391  12.041  -1.755  0.00  0.00    -0.279 OA
ATOM     25  C   LIG    1        1.381   9.635   0.678  0.00  0.00    +0.126 C 
ATOM     26  C   LIG    1        1.181   8.144   0.387  0.00  0.00    +0.124 C 
ENDBRANCH   4  19
TORSDOF 2
