REMARK  Name = ZINC12476360
REMARK                            x       y       z     vdW  Elec       q    Type
REMARK                         _______ _______ _______ _____ _____    ______ ____
ROOT
ATOM      1  C   LIG    1        1.268  -2.146  -0.023  0.00  0.00    +0.098 A 
ATOM      2  C   LIG    1        2.466  -2.807  -0.034  0.00  0.00    +0.078 A 
ATOM      3  S   LIG    1        1.907  -4.505  -0.041  0.00  0.00    -0.060 S 
ATOM      4  C   LIG    1        0.152  -4.163  -0.029  0.00  0.00    +0.165 A 
ATOM      5  N   LIG    1        0.141  -2.844  -0.015  0.00  0.00    -0.223 NA
ENDROOT
BRANCH   1  10
ATOM      6  C   LIG    1       -0.017   1.379   0.010  0.00  0.00    +0.004 A 
ATOM      7  C   LIG    1        1.194   2.059   0.002  0.00  0.00    +0.020 A 
ATOM      8  C   LIG    1        2.375   1.341  -0.013  0.00  0.00    +0.111 A 
ATOM      9  N   LIG    1        2.365   0.023  -0.021  0.00  0.00    -0.253 NA
ATOM     10  C   LIG    1        1.230  -0.665  -0.014  0.00  0.00    +0.090 A 
ATOM     11  C   LIG    1        0.002  -0.004   0.002  0.00  0.00    +0.030 A 
ENDBRANCH   1  10
BRANCH   4  12
ATOM     12  N   LIG    1       -0.916  -5.051  -0.029  0.00  0.00    -0.264 N 
ATOM     13  H   LIG    1       -1.826  -4.715  -0.022  0.00  0.00    +0.157 HD
ATOM     14  C   LIG    1       -0.688  -6.380  -0.038  0.00  0.00    +0.222 C 
ATOM     15  O   LIG    1        0.450  -6.800  -0.046  0.00  0.00    -0.275 OA
BRANCH  14  16
ATOM     16  C   LIG    1       -1.847  -7.343  -0.037  0.00  0.00    +0.075 C 
ATOM     17  C   LIG    1       -2.670  -7.179   1.258  0.00  0.00    +0.013 C 
ATOM     18  C   LIG    1       -3.102  -8.623   1.618  0.00  0.00    +0.001 C 
ATOM     19  C   LIG    1       -1.854  -9.458   1.240  0.00  0.00    +0.001 C 
ATOM     20  C   LIG    1       -1.328  -8.792  -0.048  0.00  0.00    +0.013 C 
ENDBRANCH  14  16
ENDBRANCH   4  12
TORSDOF 3
