REMARK  Name = ZINC11568744
REMARK                            x       y       z     vdW  Elec       q    Type
REMARK                         _______ _______ _______ _____ _____    ______ ____
ROOT
ATOM      1  C   LIG    1       -8.919   6.220  -1.244  0.00  0.00    +0.000 A 
ATOM      2  C   LIG    1       -7.861   6.788  -1.930  0.00  0.00    +0.000 A 
ATOM      3  C   LIG    1       -6.610   6.209  -1.867  0.00  0.00    +0.005 A 
ATOM      4  C   LIG    1       -6.407   5.059  -1.117  0.00  0.00    -0.030 A 
ATOM      5  C   LIG    1       -7.460   4.495  -0.431  0.00  0.00    -0.042 A 
ATOM      6  C   LIG    1       -7.286   3.253   0.405  0.00  0.00    +0.051 C 
ATOM      7  C   LIG    1       -5.984   2.548   0.025  0.00  0.00    +0.091 C 
ATOM      8  N   LIG    1       -4.894   3.536   0.047  0.00  0.00    -0.283 NA
ATOM      9  C   LIG    1       -5.024   4.462  -1.082  0.00  0.00    +0.121 C 
ATOM     10  C   LIG    1       -8.718   5.077  -0.497  0.00  0.00    +0.004 A 
ENDROOT
BRANCH   8  11
ATOM     11  C   LIG    1       -3.650   2.908   0.036  0.00  0.00    +0.125 C 
ATOM     12  N   LIG    1       -3.652   1.544   0.029  0.00  0.00    -0.300 NA
ATOM     13  H   LIG    1       -4.524   1.000   0.030  0.00  0.00    +0.123 HD
ATOM     14  C   LIG    1       -2.429   0.949   0.019  0.00  0.00    +0.100 C 
ATOM     15  C   LIG    1       -1.233   1.649   0.017  0.00  0.00    +0.065 C 
ATOM     16  C   LIG    1       -1.262   3.043   0.030  0.00  0.00    +0.022 C 
ATOM     17  C   LIG    1       -2.491   3.677   0.035  0.00  0.00    +0.036 C 
BRANCH  15  18
ATOM     18  N   LIG    1       -0.011   0.966   0.007  0.00  0.00    -0.326 NA
ATOM     19  H   LIG    1        0.822   1.462   0.002  0.00  0.00    +0.119 HD
ATOM     20  H   LIG    1        0.002  -0.004   0.002  0.00  0.00    +0.119 HD
ENDBRANCH  15  18
ENDBRANCH   8  11
TORSDOF 2
