REMARK  Name = ZINC12650213
REMARK                            x       y       z     vdW  Elec       q    Type
REMARK                         _______ _______ _______ _____ _____    ______ ____
ROOT
ATOM      1  C   LIG    1        1.321   1.848  -0.148  0.00  0.00    +0.101 C 
ENDROOT
BRANCH   1   2
ATOM      2  C   LIG    1        2.199   1.160   0.865  0.00  0.00    +0.308 C 
ATOM      3  O   LIG    1        1.701   0.550   1.781  0.00  0.00    -0.251 OA
BRANCH   2   4
ATOM      4  O   LIG    1        3.535   1.224   0.748  0.00  0.00    -0.480 OA
ATOM      5  H   LIG    1        3.921   1.697   0.037  0.00  0.00    +0.295 HD
ENDBRANCH   2   4
ENDBRANCH   1   2
BRANCH   1   6
ATOM      6  C   LIG    1        0.075   0.997  -0.404  0.00  0.00    +0.049 C 
BRANCH   6  11
ATOM      7  C   LIG    1        1.637  -4.052  -2.740  0.00  0.00    +0.044 C 
ATOM      8  C   LIG    1        1.229  -2.735  -2.131  0.00  0.00    -0.050 A 
ATOM      9  C   LIG    1        1.126  -2.611  -0.758  0.00  0.00    +0.003 A 
ATOM     10  C   LIG    1        0.753  -1.403  -0.199  0.00  0.00    +0.004 A 
ATOM     11  C   LIG    1        0.482  -0.319  -1.014  0.00  0.00    -0.047 A 
ATOM     12  C   LIG    1        0.580  -0.445  -2.387  0.00  0.00    +0.004 A 
ATOM     13  C   LIG    1        0.958  -1.652  -2.945  0.00  0.00    +0.003 A 
ENDBRANCH   6  11
ENDBRANCH   1   6
BRANCH   1  14
ATOM     14  C   LIG    1        0.901   3.218   0.388  0.00  0.00    +0.010 C 
BRANCH  14  15
ATOM     15  CA  LIG    1        0.102   3.962  -0.683  0.00  0.00    +0.037 C 
BRANCH  15  16
ATOM     16  N   LIG    1        0.984   4.244  -1.830  0.00  0.00    +0.387 N 
ATOM     17  H1  LIG    1        1.367   3.360  -2.186  0.00  0.00    -0.089 HD
ATOM     18  H2  LIG    1        1.753   4.845  -1.539  0.00  0.00    -0.089 HD
ATOM     19  H3  LIG    1        0.458   4.701  -2.572  0.00  0.00    -0.089 HD
ENDBRANCH  15  16
BRANCH  15  20
ATOM     20  C   LIG    1       -0.437   5.246  -0.107  0.00  0.00    +0.290 C 
ATOM     21  O   LIG    1        0.124   6.292  -0.332  0.00  0.00    -0.253 OA
BRANCH  20  22
ATOM     22  OXT LIG    1       -1.541   5.228   0.656  0.00  0.00    -0.482 OA
ATOM     23  HXT LIG    1       -1.977   4.416   0.830  0.00  0.00    +0.295 HD
ENDBRANCH  20  22
ENDBRANCH  15  20
ENDBRANCH  14  15
ENDBRANCH   1  14
TORSDOF 9
