REMARK  Name = ZINC12143560
REMARK                            x       y       z     vdW  Elec       q    Type
REMARK                         _______ _______ _______ _____ _____    ______ ____
ROOT
ATOM      1  N   LIG    1        1.565  -2.916   5.681  0.00  0.00    -0.172 NA
ATOM      2  C   LIG    1        1.310  -1.903   6.717  0.00  0.00    +0.137 C 
ATOM      3  C   LIG    1        1.359  -2.590   8.087  0.00  0.00    +0.177 C 
ATOM      4  O   LIG    1        0.487  -3.723   8.078  0.00  0.00    -0.372 OA
ATOM      5  C   LIG    1        0.853  -4.736   7.138  0.00  0.00    +0.154 C 
ATOM      6  C   LIG    1        0.773  -4.156   5.716  0.00  0.00    +0.143 C 
ENDROOT
BRANCH   1   7
ATOM      7  S   LIG    1        2.704  -2.665   4.505  0.00  0.00    +0.061 S 
ATOM      8  O   LIG    1        3.632  -1.728   5.033  0.00  0.00    -0.153 OA
ATOM      9  O   LIG    1        3.098  -3.949   4.041  0.00  0.00    -0.153 OA
BRANCH   7  13
ATOM     10  C   LIG    1        0.626  -0.618   1.042  0.00  0.00    +0.120 A 
ATOM     11  C   LIG    1        1.202   0.138   2.051  0.00  0.00    +0.047 A 
ATOM     12  C   LIG    1        1.835  -0.488   3.107  0.00  0.00    +0.032 A 
ATOM     13  C   LIG    1        1.895  -1.869   3.158  0.00  0.00    +0.106 A 
ATOM     14  C   LIG    1        1.322  -2.625   2.152  0.00  0.00    +0.032 A 
ATOM     15  C   LIG    1        0.682  -2.003   1.098  0.00  0.00    +0.047 A 
BRANCH  10  17
ATOM     16  C   LIG    1       -0.017   1.425   0.010  0.00  0.00    +0.277 C 
ATOM     17  O   LIG    1        0.002  -0.004   0.002  0.00  0.00    -0.495 OA
ENDBRANCH  10  17
ENDBRANCH   7  13
ENDBRANCH   1   7
BRANCH   5  18
ATOM     18  C   LIG    1       -0.110  -5.919   7.261  0.00  0.00    +0.155 C 
BRANCH  18  19
ATOM     19  N   LIG    1        0.046  -6.539   8.579  0.00  0.00    -0.336 N 
ATOM     20  C   LIG    1        0.910  -7.550   8.903  0.00  0.00    +0.104 A 
ATOM     21  C   LIG    1        0.728  -7.814  10.211  0.00  0.00    +0.101 A 
ATOM     22  N   LIG    1       -0.222  -6.987  10.673  0.00  0.00    -0.352 N 
ATOM     23  H   LIG    1       -0.550  -6.962  11.585  0.00  0.00    +0.166 HD
ATOM     24  C   LIG    1       -0.631  -6.217   9.702  0.00  0.00    +0.173 A 
ENDBRANCH  18  19
ENDBRANCH   5  18
TORSDOF 5
