REMARK  Name = ZINC11678447
REMARK                            x       y       z     vdW  Elec       q    Type
REMARK                         _______ _______ _______ _____ _____    ______ ____
ROOT
ATOM      1  C   LIG    1        0.002  -0.004   0.002  0.00  0.00    +0.279 C 
ATOM      2  C   LIG    1        0.007  -0.550   1.440  0.00  0.00    +0.131 C 
ATOM      3  S   LIG    1        1.155   0.483   2.411  0.00  0.00    -0.111 S 
ATOM      4  C   LIG    1        2.510   0.726   1.308  0.00  0.00    +0.031 A 
ATOM      5  C   LIG    1        3.720   0.087   1.525  0.00  0.00    +0.036 A 
ATOM      6  C   LIG    1        4.771   0.295   0.648  0.00  0.00    +0.042 A 
ATOM      7 CL   LIG    1        6.290  -0.502   0.914  0.00  0.00    -0.084 Cl
ATOM      8  C   LIG    1        4.613   1.135  -0.441  0.00  0.00    +0.022 A 
ATOM      9  C   LIG    1        3.406   1.774  -0.662  0.00  0.00    +0.026 A 
ATOM     10  C   LIG    1        2.351   1.571   0.212  0.00  0.00    +0.050 A 
ATOM     11  N   LIG    1        1.117   2.206   0.003  0.00  0.00    -0.269 N 
ATOM     12  C   LIG    1       -0.018   1.496   0.010  0.00  0.00    +0.262 C 
ATOM     13  O   LIG    1       -1.083   2.076   0.018  0.00  0.00    -0.271 OA
ENDROOT
BRANCH   2  14
ATOM     14  C   LIG    1       -1.379  -0.465   2.026  0.00  0.00    -0.030 A 
ATOM     15  C   LIG    1       -2.002   0.763   2.147  0.00  0.00    +0.008 A 
ATOM     16  C   LIG    1       -3.275   0.844   2.678  0.00  0.00    +0.046 A 
ATOM     17  C   LIG    1       -3.923  -0.308   3.100  0.00  0.00    +0.120 A 
ATOM     18  C   LIG    1       -3.293  -1.538   2.982  0.00  0.00    +0.046 A 
ATOM     19  C   LIG    1       -2.023  -1.614   2.445  0.00  0.00    +0.008 A 
BRANCH  17  20
ATOM     20  O   LIG    1       -5.173  -0.231   3.629  0.00  0.00    -0.495 OA
ATOM     21  C   LIG    1       -5.760   1.069   3.720  0.00  0.00    +0.277 C 
ENDBRANCH  17  20
ENDBRANCH   2  14
BRANCH   1  22
ATOM     22  O   LIG    1       -1.173  -0.496  -0.694  0.00  0.00    -0.451 OA
BRANCH  22  24
ATOM     23  C   LIG    1       -2.240  -1.198  -2.807  0.00  0.00    +0.136 C 
ATOM     24  C   LIG    1       -1.062  -0.689  -2.018  0.00  0.00    +0.305 C 
ATOM     25  O   LIG    1       -0.016  -0.454  -2.576  0.00  0.00    -0.251 OA
ENDBRANCH  22  24
ENDBRANCH   1  22
BRANCH  11  26
ATOM     26  C   LIG    1        1.070   3.652  -0.223  0.00  0.00    +0.095 C 
BRANCH  26  27
ATOM     27  C   LIG    1        0.926   4.374   1.118  0.00  0.00    -0.060 C 
BRANCH  27  28
ATOM     28  N   LIG    1        0.859   5.830   0.872  0.00  0.00    +0.377 N 
ATOM     29  H   LIG    1        0.136   6.016   0.167  0.00  0.00    -0.083 HD
ATOM     30  C   LIG    1        2.159   6.317   0.365  0.00  0.00    -0.097 C 
ATOM     31  C   LIG    1        0.505   6.538   2.120  0.00  0.00    -0.097 C 
ENDBRANCH  27  28
ENDBRANCH  26  27
ENDBRANCH  11  26
TORSDOF 7
