REMARK  Name = ZINC08660486
REMARK                            x       y       z     vdW  Elec       q    Type
REMARK                         _______ _______ _______ _____ _____    ______ ____
ROOT
ATOM      1  N   LIG    1        5.863  -0.852  -4.563  0.00  0.00    -0.285 N 
ATOM      2  C   LIG    1        4.785  -0.246  -5.137  0.00  0.00    +0.203 A 
ATOM      3  N   LIG    1        3.985   0.204  -4.215  0.00  0.00    -0.231 NA
ATOM      4  C   LIG    1        4.494  -0.089  -2.994  0.00  0.00    +0.147 A 
ATOM      5  C   LIG    1        4.086   0.147  -1.670  0.00  0.00    +0.150 A 
ATOM      6  N   LIG    1        4.860  -0.287  -0.681  0.00  0.00    -0.219 NA
ATOM      7  C   LIG    1        5.991  -0.923  -0.928  0.00  0.00    +0.225 A 
ATOM      8  N   LIG    1        6.415  -1.162  -2.151  0.00  0.00    -0.216 NA
ATOM      9  C   LIG    1        5.708  -0.765  -3.203  0.00  0.00    +0.167 A 
ENDROOT
BRANCH   1  13
ATOM     10  C   LIG    1        7.542  -2.009  -7.454  0.00  0.00    +0.237 C 
ATOM     11  C   LIG    1        6.756  -3.242  -6.939  0.00  0.00    +0.185 C 
ATOM     12  C   LIG    1        6.727  -2.994  -5.412  0.00  0.00    +0.196 C 
ATOM     13  C   LIG    1        6.982  -1.481  -5.270  0.00  0.00    +0.254 C 
ATOM     14  O   LIG    1        7.088  -0.939  -6.597  0.00  0.00    -0.339 OA
BRANCH  10  18
ATOM     15  C   LIG    1        7.188  -2.334 -11.252  0.00  0.00    +0.128 C 
ATOM     16  N   LIG    1        7.522  -2.612  -9.853  0.00  0.00    -0.316 N 
ATOM     17  H   LIG    1        7.977  -3.436  -9.617  0.00  0.00    +0.148 HD
ATOM     18  C   LIG    1        7.198  -1.723  -8.893  0.00  0.00    +0.244 C 
ATOM     19  O   LIG    1        6.629  -0.694  -9.187  0.00  0.00    -0.273 OA
ENDBRANCH  10  18
BRANCH  11  20
ATOM     20  O   LIG    1        7.449  -4.454  -7.246  0.00  0.00    -0.386 OA
ATOM     21  H   LIG    1        7.494  -4.653  -8.191  0.00  0.00    +0.210 HD
ENDBRANCH  11  20
BRANCH  12  22
ATOM     22  O   LIG    1        7.760  -3.738  -4.762  0.00  0.00    -0.385 OA
ATOM     23  H   LIG    1        7.650  -4.697  -4.820  0.00  0.00    +0.210 HD
ENDBRANCH  12  22
ENDBRANCH   1  13
BRANCH   5  24
ATOM     24  N   LIG    1        2.902   0.813  -1.403  0.00  0.00    -0.323 N 
ATOM     25  H   LIG    1        2.937   1.729  -1.801  0.00  0.00    +0.148 HD
BRANCH  24  26
ATOM     26  C   LIG    1        2.489   1.044  -0.016  0.00  0.00    +0.138 C 
BRANCH  26  27
ATOM     27  C   LIG    1        1.176   1.783   0.000  0.00  0.00    -0.029 A 
ATOM     28  C   LIG    1        1.161   3.166   0.007  0.00  0.00    +0.007 A 
ATOM     29  C   LIG    1       -0.041   3.845   0.023  0.00  0.00    +0.024 A 
ATOM     30  C   LIG    1       -1.236   3.139   0.030  0.00  0.00    +0.038 A 
ATOM     31  C   LIG    1       -1.219   1.750   0.017  0.00  0.00    +0.034 A 
ATOM     32  I   LIG    1       -3.019   0.678   0.020  0.00  0.00    -0.042 I 
ATOM     33  C   LIG    1       -0.013   1.076   0.008  0.00  0.00    +0.021 A 
BRANCH  30  34
ATOM     34  N   LIG    1       -2.454   3.824   0.045  0.00  0.00    -0.357 N 
ATOM     35  H   LIG    1       -3.288   3.329   0.051  0.00  0.00    +0.142 HD
ATOM     36  H   LIG    1       -2.465   4.793   0.051  0.00  0.00    +0.142 HD
ENDBRANCH  30  34
ENDBRANCH  26  27
ENDBRANCH  24  26
ENDBRANCH   5  24
TORSDOF 8
