REMARK  Name = ZINC08587504
REMARK                            x       y       z     vdW  Elec       q    Type
REMARK                         _______ _______ _______ _____ _____    ______ ____
ROOT
ATOM      1  C   LIG    1       -0.097   1.715   0.401  0.00  0.00    +0.154 C 
ATOM      2  N   LIG    1        0.026   0.262   0.542  0.00  0.00    -0.294 N 
ATOM      3  C   LIG    1       -1.075  -0.586   0.347  0.00  0.00    +0.082 A 
ATOM      4  C   LIG    1       -0.886  -2.050   0.502  0.00  0.00    +0.089 A 
ATOM      5  C   LIG    1        0.441  -2.568   0.850  0.00  0.00    +0.266 A 
ATOM      6  N   LIG    1        1.409  -1.630   1.008  0.00  0.00    -0.263 N 
ATOM      7  C   LIG    1        2.758  -2.082   1.358  0.00  0.00    +0.157 C 
ATOM      8  O   LIG    1        0.659  -3.757   0.988  0.00  0.00    -0.267 OA
ATOM      9  C   LIG    1       -2.108  -2.629   0.264  0.00  0.00    +0.069 A 
ATOM     10  N   LIG    1       -2.990  -1.630  -0.005  0.00  0.00    -0.306 N 
ATOM     11  C   LIG    1       -4.359  -1.724  -0.295  0.00  0.00    +0.068 A 
ATOM     12  C   LIG    1       -4.959  -2.939  -0.564  0.00  0.00    +0.028 A 
ATOM     13  C   LIG    1       -6.310  -2.986  -0.864  0.00  0.00    +0.002 A 
ATOM     14  C   LIG    1       -7.056  -1.822  -0.893  0.00  0.00    +0.002 A 
ATOM     15  C   LIG    1       -6.463  -0.603  -0.618  0.00  0.00    +0.025 A 
ATOM     16  C   LIG    1       -5.112  -0.546  -0.309  0.00  0.00    +0.052 A 
ATOM     17  N   LIG    1       -4.504   0.678  -0.009  0.00  0.00    -0.330 N 
ATOM     18  H   LIG    1       -5.024   1.391   0.393  0.00  0.00    +0.147 HD
ATOM     19  C   LIG    1       -3.077   0.885  -0.301  0.00  0.00    +0.150 C 
ATOM     20  C   LIG    1       -2.346  -0.400   0.023  0.00  0.00    +0.073 A 
ATOM     21  C   LIG    1        1.205  -0.318   0.859  0.00  0.00    +0.332 A 
ATOM     22  O   LIG    1        2.159   0.417   1.027  0.00  0.00    -0.246 OA
ENDROOT
BRANCH   9  23
ATOM     23  C   LIG    1       -2.409  -4.074   0.294  0.00  0.00    -0.000 A 
ATOM     24  C   LIG    1       -1.709  -4.954  -0.534  0.00  0.00    +0.010 A 
ATOM     25  C   LIG    1       -1.996  -6.303  -0.501  0.00  0.00    +0.001 A 
ATOM     26  C   LIG    1       -2.975  -6.784   0.351  0.00  0.00    +0.000 A 
ATOM     27  C   LIG    1       -3.673  -5.918   1.174  0.00  0.00    +0.001 A 
ATOM     28  C   LIG    1       -3.392  -4.567   1.155  0.00  0.00    +0.010 A 
ENDBRANCH   9  23
BRANCH  19  29
ATOM     29  C   LIG    1       -2.897   1.221  -1.759  0.00  0.00    -0.019 A 
ATOM     30  C   LIG    1       -2.118   2.301  -2.128  0.00  0.00    +0.006 A 
ATOM     31  C   LIG    1       -1.953   2.610  -3.465  0.00  0.00    +0.003 A 
ATOM     32  C   LIG    1       -2.566   1.837  -4.433  0.00  0.00    +0.032 A 
ATOM     33  C   LIG    1       -3.345   0.756  -4.064  0.00  0.00    +0.122 A 
ATOM     34  C   LIG    1       -3.506   0.445  -2.727  0.00  0.00    +0.038 A 
BRANCH  33  35
ATOM     35  N   LIG    1       -4.002  -0.071  -5.101  0.00  0.00    +0.006 N 
ATOM     36  O   LIG    1       -3.858   0.199  -6.271  0.00  0.00    -0.130 OA
BRANCH  35  37
ATOM     37  O   LIG    1       -4.683  -1.017  -4.778  0.00  0.00    -0.396 OA
ATOM     38  H   LIG    1       -4.794  -1.226  -3.872  0.00  0.00    +0.329 HD
ENDBRANCH  35  37
ENDBRANCH  33  35
ENDBRANCH  19  29
TORSDOF 4
