REMARK  Name = ZINC12374721
REMARK                            x       y       z     vdW  Elec       q    Type
REMARK                         _______ _______ _______ _____ _____    ______ ____
ROOT
ATOM      1  C   LIG    1       -1.271  -0.765   0.011  0.00  0.00    +0.064 A 
ATOM      2  C   LIG    1       -2.131  -0.698  -1.040  0.00  0.00    +0.208 A 
ATOM      3  O   LIG    1       -3.279  -1.378  -1.077  0.00  0.00    -0.462 OA
ATOM      4  C   LIG    1       -3.813  -1.929   0.030  0.00  0.00    +0.142 A 
ATOM      5  C   LIG    1       -5.137  -2.351   0.043  0.00  0.00    +0.092 A 
ATOM      6  C   LIG    1       -5.666  -2.923   1.187  0.00  0.00    +0.128 A 
ATOM      7  C   LIG    1       -4.884  -3.082   2.329  0.00  0.00    +0.047 A 
ATOM      8  C   LIG    1       -3.582  -2.670   2.335  0.00  0.00    +0.019 A 
ATOM      9  C   LIG    1       -3.036  -2.087   1.191  0.00  0.00    +0.065 A 
ATOM     10  C   LIG    1       -1.637  -1.619   1.157  0.00  0.00    +0.200 A 
ATOM     11  O   LIG    1       -0.833  -1.915   2.024  0.00  0.00    -0.286 OA
ENDROOT
BRANCH   1  17
ATOM     12  C   LIG    1       -0.017   1.390   0.010  0.00  0.00    +0.012 A 
ATOM     13  C   LIG    1        1.169   2.094   0.002  0.00  0.00    +0.046 A 
ATOM     14  C   LIG    1        2.380   1.416  -0.013  0.00  0.00    +0.117 A 
ATOM     15  C   LIG    1        2.402   0.029  -0.022  0.00  0.00    +0.046 A 
ATOM     16  C   LIG    1        1.220  -0.682  -0.014  0.00  0.00    +0.012 A 
ATOM     17  C   LIG    1        0.002  -0.004   0.002  0.00  0.00    -0.011 A 
BRANCH  14  18
ATOM     18  O   LIG    1        3.547   2.113  -0.021  0.00  0.00    -0.507 OA
ATOM     19  H   LIG    1        3.894   2.310   0.860  0.00  0.00    +0.292 HD
ENDBRANCH  14  18
ENDBRANCH   1  17
BRANCH   6  20
ATOM     20  O   LIG    1       -6.960  -3.333   1.196  0.00  0.00    -0.461 OA
BRANCH  20  21
ATOM     21  C   LIG    1       -7.447  -3.916   2.407  0.00  0.00    +0.339 C 
ATOM     22  C   LIG    1       -8.945  -4.200   2.270  0.00  0.00    +0.214 C 
ATOM     23  C   LIG    1       -9.164  -5.216   1.144  0.00  0.00    +0.180 C 
ATOM     24  C   LIG    1       -8.358  -6.482   1.450  0.00  0.00    +0.177 C 
ATOM     25  C   LIG    1       -6.882  -6.110   1.619  0.00  0.00    +0.179 C 
ATOM     26  O   LIG    1       -6.753  -5.139   2.660  0.00  0.00    -0.331 OA
BRANCH  22  27
ATOM     27  O   LIG    1       -9.635  -2.987   1.961  0.00  0.00    -0.383 OA
ATOM     28  H   LIG    1       -9.536  -2.297   2.631  0.00  0.00    +0.210 HD
ENDBRANCH  22  27
BRANCH  23  29
ATOM     29  O   LIG    1      -10.552  -5.541   1.056  0.00  0.00    -0.386 OA
ATOM     30  H   LIG    1      -11.123  -4.782   0.870  0.00  0.00    +0.210 HD
ENDBRANCH  23  29
BRANCH  24  31
ATOM     31  O   LIG    1       -8.842  -7.077   2.656  0.00  0.00    -0.386 OA
ATOM     32  H   LIG    1       -9.774  -7.334   2.621  0.00  0.00    +0.210 HD
ENDBRANCH  24  31
BRANCH  25  33
ATOM     33  C   LIG    1       -6.079  -7.360   1.984  0.00  0.00    +0.190 C 
BRANCH  33  34
ATOM     34  O   LIG    1       -4.688  -7.037   2.027  0.00  0.00    -0.392 OA
ATOM     35  H   LIG    1       -4.117  -7.784   2.253  0.00  0.00    +0.210 HD
ENDBRANCH  33  34
ENDBRANCH  25  33
ENDBRANCH  20  21
ENDBRANCH   6  20
TORSDOF 9
