REMARK  Name = ZINC12404914
REMARK                            x       y       z     vdW  Elec       q    Type
REMARK                         _______ _______ _______ _____ _____    ______ ____
ROOT
ATOM      1  C   LIG    1       -3.060   2.012  -2.069  0.00  0.00    +0.012 C 
ATOM      2  C   LIG    1       -2.176   1.000  -1.319  0.00  0.00    +0.017 C 
ATOM      3  C   LIG    1       -0.782   1.605  -1.204  0.00  0.00    +0.008 C 
ATOM      4  C   LIG    1       -0.013   1.085   0.008  0.00  0.00    +0.006 C 
ATOM      5  C   LIG    1       -0.741   1.581   1.271  0.00  0.00    +0.043 C 
ATOM      6  C   LIG    1       -2.132   1.030   1.181  0.00  0.00    -0.004 A 
ATOM      7  S   LIG    1       -3.223   0.613   2.513  0.00  0.00    -0.073 S 
ATOM      8  C   LIG    1       -4.561  -0.024   1.557  0.00  0.00    +0.114 A 
ATOM      9  N   LIG    1       -5.741  -0.505   1.893  0.00  0.00    -0.228 NA
ATOM     10  C   LIG    1       -6.500  -0.971   0.910  0.00  0.00    +0.224 A 
ATOM     11  N   LIG    1       -6.104  -0.989  -0.344  0.00  0.00    -0.220 NA
ATOM     12  C   LIG    1       -4.924  -0.533  -0.768  0.00  0.00    +0.128 A 
ATOM     13  C   LIG    1       -4.088   0.062   0.219  0.00  0.00    +0.051 A 
ATOM     14  C   LIG    1       -2.798   0.716   0.043  0.00  0.00    -0.022 A 
ENDROOT
BRANCH  12  15
ATOM     15  N   LIG    1       -4.559  -0.689  -2.094  0.00  0.00    -0.343 N 
ATOM     16  H   LIG    1       -5.173  -1.103  -2.720  0.00  0.00    +0.144 HD
ATOM     17  H   LIG    1       -3.689  -0.385  -2.397  0.00  0.00    +0.144 HD
ENDBRANCH  12  15
TORSDOF 1
