REMARK  Name = ZINC10269851
REMARK                            x       y       z     vdW  Elec       q    Type
REMARK                         _______ _______ _______ _____ _____    ______ ____
ROOT
ATOM      1  C   LIG    1       -2.489  -0.003   0.025  0.00  0.00    +0.247 C 
ATOM      2  N   LIG    1       -3.643  -0.693  -0.069  0.00  0.00    -0.295 N 
ATOM      3  C   LIG    1       -3.644  -2.163  -0.085  0.00  0.00    +0.127 C 
ATOM      4  C   LIG    1       -4.641  -2.656   0.976  0.00  0.00    +0.126 C 
ATOM      5  N   LIG    1       -5.950  -2.031   0.738  0.00  0.00    -0.307 N 
ATOM      6  C   LIG    1       -5.880  -0.572   0.893  0.00  0.00    +0.126 C 
ATOM      7  C   LIG    1       -4.934   0.005  -0.165  0.00  0.00    +0.127 C 
ATOM      8  O   LIG    1       -2.510   1.211   0.087  0.00  0.00    -0.270 OA
ENDROOT
BRANCH   1  13
ATOM      9  C   LIG    1        0.197  -2.525  -0.704  0.00  0.00    +0.001 A 
ATOM     10  C   LIG    1        1.221  -2.070   0.108  0.00  0.00    +0.001 A 
ATOM     11  C   LIG    1        1.044  -0.942   0.889  0.00  0.00    +0.013 A 
ATOM     12  C   LIG    1       -0.161  -0.269   0.871  0.00  0.00    +0.067 A 
ATOM     13  C   LIG    1       -1.198  -0.723   0.054  0.00  0.00    +0.049 A 
ATOM     14  C   LIG    1       -1.010  -1.859  -0.736  0.00  0.00    +0.013 A 
BRANCH  12  15
ATOM     15  C   LIG    1       -0.354   0.956   1.727  0.00  0.00    +0.418 C 
ATOM     16  F   LIG    1       -1.414   0.742   2.615  0.00  0.00    -0.166 F 
ATOM     17  F   LIG    1       -0.645   2.054   0.910  0.00  0.00    -0.166 F 
ATOM     18  F   LIG    1        0.816   1.209   2.450  0.00  0.00    -0.166 F 
ENDBRANCH  12  15
ENDBRANCH   1  13
BRANCH   5  19
ATOM     19  C   LIG    1       -6.917  -2.573   1.570  0.00  0.00    +0.161 A 
ATOM     20  N   LIG    1       -7.715  -1.960   2.423  0.00  0.00    -0.233 NA
ATOM     21  C   LIG    1       -8.592  -2.634   3.143  0.00  0.00    +0.120 A 
ATOM     22  C   LIG    1       -8.652  -3.979   2.996  0.00  0.00    +0.068 A 
ATOM     23  S   LIG    1       -7.386  -4.234   1.761  0.00  0.00    -0.061 S 
ENDBRANCH   5  19
TORSDOF 3
