REMARK  Name = ZINC12946088
REMARK                            x       y       z     vdW  Elec       q    Type
REMARK                         _______ _______ _______ _____ _____    ______ ____
ROOT
ATOM      1  C   LIG    1        1.469   1.888  -0.002  0.00  0.00    +0.057 C 
ATOM      2  C   LIG    1        2.127   0.640  -0.638  0.00  0.00    +0.127 C 
ATOM      3  C   LIG    1        1.148  -0.475  -0.346  0.00  0.00    +0.236 C 
ATOM      4  N   LIG    1       -0.012  -0.015   0.006  0.00  0.00    -0.279 N 
ATOM      5  H   LIG    1       -0.820  -0.600   0.250  0.00  0.00    +0.303 HD
ATOM      6  C   LIG    1       -0.018   1.463   0.010  0.00  0.00    +0.233 C 
ENDROOT
BRANCH   3   7
ATOM      7  N   LIG    1        1.442  -1.810  -0.439  0.00  0.00    -0.254 N 
ATOM      8  H   LIG    1        2.330  -2.094  -0.708  0.00  0.00    +0.288 HD
ATOM      9  H   LIG    1        0.763  -2.472  -0.235  0.00  0.00    +0.288 HD
ENDBRANCH   3   7
TORSDOF 1
