REMARK  Name = ZINC12428918
REMARK                            x       y       z     vdW  Elec       q    Type
REMARK                         _______ _______ _______ _____ _____    ______ ____
ROOT
ATOM      1  C   LIG    1       -1.272  -0.763   0.124  0.00  0.00    +0.053 C 
ATOM      2  N   LIG    1       -2.443  -0.207  -0.019  0.00  0.00    -0.383 N 
ATOM      3  H   LIG    1       -3.233  -0.759  -0.125  0.00  0.00    +0.160 HD
ENDROOT
BRANCH   1  10
ATOM      4  C   LIG    1        0.924  -0.108   1.103  0.00  0.00    +0.011 A 
ATOM      5  C   LIG    1        2.062   0.672   1.095  0.00  0.00    +0.020 A 
ATOM      6  C   LIG    1        2.238   1.633   0.114  0.00  0.00    +0.041 A 
ATOM      7 CL   LIG    1        3.671   2.613   0.110  0.00  0.00    -0.084 Cl
ATOM      8  C   LIG    1        1.274   1.817  -0.864  0.00  0.00    +0.020 A 
ATOM      9  C   LIG    1        0.133   1.042  -0.865  0.00  0.00    +0.011 A 
ATOM     10  C   LIG    1       -0.050   0.072   0.121  0.00  0.00    -0.001 A 
ENDBRANCH   1  10
BRANCH   1  11
ATOM     11  C   LIG    1       -1.166  -2.229   0.290  0.00  0.00    +0.043 A 
ATOM     12  C   LIG    1       -1.681  -2.845   1.432  0.00  0.00    +0.052 A 
ATOM     13  C   LIG    1       -1.579  -4.214   1.581  0.00  0.00    +0.124 A 
ATOM     14  F   LIG    1       -2.077  -4.809   2.687  0.00  0.00    -0.205 F 
ATOM     15  C   LIG    1       -0.966  -4.979   0.601  0.00  0.00    +0.042 A 
ATOM     16  C   LIG    1       -0.453  -4.379  -0.533  0.00  0.00    +0.049 A 
ATOM     17  C   LIG    1       -0.554  -3.007  -0.700  0.00  0.00    +0.126 A 
BRANCH  17  18
ATOM     18  O   LIG    1       -0.056  -2.418  -1.817  0.00  0.00    -0.506 OA
ATOM     19  H   LIG    1        0.869  -2.145  -1.739  0.00  0.00    +0.292 HD
ENDBRANCH  17  18
ENDBRANCH   1  11
BRANCH   2  20
ATOM     20  C   LIG    1       -2.564   1.253  -0.019  0.00  0.00    +0.113 C 
BRANCH  20  21
ATOM     21  C   LIG    1       -3.078   1.722  -1.382  0.00  0.00    +0.032 C 
BRANCH  21  22
ATOM     22  C   LIG    1       -3.205   3.246  -1.383  0.00  0.00    +0.122 C 
BRANCH  22  23
ATOM     23  C   LIG    1       -3.711   3.708  -2.726  0.00  0.00    +0.305 C 
ATOM     24  O   LIG    1       -3.948   2.892  -3.600  0.00  0.00    -0.251 OA
BRANCH  23  25
ATOM     25  O   LIG    1       -3.883   4.896  -2.937  0.00  0.00    -0.481 OA
ATOM     26  H   LIG    1       -3.701   5.522  -2.264  0.00  0.00    +0.295 HD
ENDBRANCH  23  25
ENDBRANCH  22  23
ENDBRANCH  21  22
ENDBRANCH  20  21
ENDBRANCH   2  20
TORSDOF 8
