REMARK  Name = ZINC11616925
REMARK                            x       y       z     vdW  Elec       q    Type
REMARK                         _______ _______ _______ _____ _____    ______ ____
ROOT
ATOM      1  C   UNK A  0        1.051  -6.422   0.629  0.00  0.00    +0.032 C 
ENDROOT
BRANCH   1   2
ATOM      2  C   UNK A  0        1.031  -4.915   0.636  0.00  0.00    -0.043 A 
ATOM      3  C   UNK A  0        2.012  -4.217   1.318  0.00  0.00    +0.004 A 
ATOM      4  C   UNK A  0        1.999  -2.837   1.329  0.00  0.00    +0.013 A 
ATOM      5  C   UNK A  0        0.994  -2.147   0.650  0.00  0.00    +0.037 A 
ATOM      6  C   UNK A  0        0.005  -2.857  -0.032  0.00  0.00    +0.013 A 
ATOM      7  C   UNK A  0        0.032  -4.237  -0.039  0.00  0.00    +0.004 A 
BRANCH   5   8
ATOM      8  C   UNK A  0        0.973  -0.668   0.658  0.00  0.00    +0.245 C 
ATOM      9  N   GLU A  1        0.002  -0.004   0.002  0.00  0.00    -0.298 N 
ATOM     10  H   GLU A  1       -0.684  -0.496  -0.476  0.00  0.00    +0.150 HD
ATOM     11  O   UNK A  0        1.833  -0.052   1.257  0.00  0.00    -0.270 OA
BRANCH   9  12
ATOM     12  CA  GLU A  1       -0.018   1.461   0.010  0.00  0.00    +0.182 C 
BRANCH  12  13
ATOM     13  C   GLU A  1       -0.724   1.947   1.250  0.00  0.00    +0.325 C 
ATOM     14  O   GLU A  1       -1.164   1.151   2.046  0.00  0.00    -0.249 OA
BRANCH  13  15
ATOM     15  OXT GLU A  1       -0.862   3.263   1.471  0.00  0.00    -0.479 OA
ATOM     16  HXT GLU A  1       -0.521   3.880   0.854  0.00  0.00    +0.295 HD
ENDBRANCH  13  15
ENDBRANCH  12  13
BRANCH  12  17
ATOM     17  CB  GLU A  1       -0.759   1.968  -1.229  0.00  0.00    +0.045 C 
BRANCH  17  18
ATOM     18  CG  GLU A  1        0.025   1.581  -2.485  0.00  0.00    +0.123 C 
BRANCH  18  19
ATOM     19  CD  GLU A  1       -0.705   2.080  -3.706  0.00  0.00    +0.305 C 
ATOM     20  OE1 GLU A  1       -1.744   2.683  -3.584  0.00  0.00    -0.251 OA
BRANCH  19  21
ATOM     21  OE2 GLU A  1       -0.199   1.854  -4.928  0.00  0.00    -0.481 OA
ATOM     22  HE2 GLU A  1        0.607   1.386  -5.023  0.00  0.00    +0.295 HD
ENDBRANCH  19  21
ENDBRANCH  18  19
ENDBRANCH  17  18
ENDBRANCH  12  17
ENDBRANCH   9  12
ENDBRANCH   5   8
ENDBRANCH   1   2
BRANCH   1  23
ATOM     23  C   UNK A  0        1.169  -6.924  -0.812  0.00  0.00    +0.096 C 
BRANCH  23  25
ATOM     24  C   UNK A  0        3.505  -6.188  -1.813  0.00  0.00    +0.004 C 
ATOM     25  C   UNK A  0        2.469  -6.515  -1.369  0.00  0.00    -0.105 C 
ENDBRANCH  23  25
ENDBRANCH   1  23
BRANCH   1  26
ATOM     26  C   UNK A  0       -0.244  -6.952   1.249  0.00  0.00    +0.029 C 
BRANCH  26  27
ATOM     27  C   UNK A  0       -0.172  -8.454   1.354  0.00  0.00    +0.068 C 
ATOM     28  C   UNK A  0        0.448  -9.040   2.457  0.00  0.00    +0.101 C 
ATOM     29  N   UNK A  0        0.519 -10.349   2.573  0.00  0.00    -0.298 NA
ATOM     30  H   UNK A  0        0.049 -10.595   3.444  0.00  0.00    +0.123 HD
ATOM     31  C   UNK A  0       -0.001 -11.124   1.619  0.00  0.00    +0.144 C 
ATOM     32  C   UNK A  0       -0.625 -10.524   0.497  0.00  0.00    +0.117 C 
ATOM     33  C   UNK A  0       -1.185 -11.406  -0.528  0.00  0.00    +0.141 C 
ATOM     34  N   UNK A  0       -1.071 -12.714  -0.344  0.00  0.00    -0.273 NA
ATOM     35  C   UNK A  0       -0.471 -13.210   0.734  0.00  0.00    +0.194 C 
ATOM     36  H   UNK A  0       -1.446 -13.331  -1.035  0.00  0.00    +0.126 HD
ATOM     37  N   UNK A  0        0.081 -12.494   1.746  0.00  0.00    -0.272 NA
ATOM     38  H   UNK A  0       -0.390 -12.758   2.611  0.00  0.00    +0.126 HD
ATOM     39  N   UNK A  0       -0.690  -9.199   0.401  0.00  0.00    -0.304 NA
ATOM     40  H   UNK A  0       -0.219  -8.942  -0.466  0.00  0.00    +0.123 HD
BRANCH  35  41
ATOM     41  N   UNK A  0       -0.387 -14.583   0.863  0.00  0.00    -0.303 NA
ATOM     42  H   UNK A  0       -0.761 -15.158   0.177  0.00  0.00    +0.121 HD
ATOM     43  H   UNK A  0        0.045 -14.972   1.639  0.00  0.00    +0.121 HD
ENDBRANCH  35  41
BRANCH  33  44
ATOM     44  N   UNK A  0       -1.806 -10.895  -1.646  0.00  0.00    -0.314 NA
ATOM     45  H   UNK A  0       -2.170 -11.496  -2.316  0.00  0.00    +0.120 HD
ATOM     46  H   UNK A  0       -1.880  -9.935  -1.764  0.00  0.00    +0.120 HD
ENDBRANCH  33  44
ENDBRANCH  26  27
ENDBRANCH   1  26
TORSDOF 15
