REMARK  Name = ZINC12354765
REMARK                            x       y       z     vdW  Elec       q    Type
REMARK                         _______ _______ _______ _____ _____    ______ ____
ROOT
ATOM      1  C   LIG    1        3.566   3.845   1.063  0.00  0.00    +0.065 C 
ATOM      2  C   LIG    1        2.268   4.331   0.470  0.00  0.00    +0.041 A 
ATOM      3  N   LIG    1        1.916   5.601   0.302  0.00  0.00    -0.343 N 
ATOM      4  H   LIG    1        2.490   6.413   0.558  0.00  0.00    +0.167 HD
ATOM      5  C   LIG    1        0.707   5.659  -0.248  0.00  0.00    +0.116 A 
ATOM      6  C   LIG    1       -0.103   6.748  -0.624  0.00  0.00    +0.045 A 
ATOM      7  C   LIG    1       -1.324   6.511  -1.178  0.00  0.00    +0.005 A 
ATOM      8  C   LIG    1       -1.758   5.190  -1.366  0.00  0.00    +0.018 A 
ATOM      9  C   LIG    1       -0.967   4.157  -1.000  0.00  0.00    +0.093 A 
ATOM     10  N   LIG    1        0.258   4.382  -0.450  0.00  0.00    -0.299 N 
ATOM     11  C   LIG    1        1.242   3.533   0.009  0.00  0.00    +0.092 A 
ENDROOT
BRANCH  11  12
ATOM     12  C   LIG    1        1.208   2.060   0.002  0.00  0.00    +0.094 A 
ATOM     13  C   LIG    1       -0.017   1.376   0.010  0.00  0.00    +0.050 A 
ATOM     14  C   LIG    1        0.002  -0.004   0.002  0.00  0.00    +0.116 A 
ATOM     15  N   LIG    1        1.166  -0.638  -0.013  0.00  0.00    -0.223 NA
ATOM     16  C   LIG    1        2.310   0.032  -0.020  0.00  0.00    +0.213 A 
ATOM     17  N   LIG    1        2.341   1.355  -0.013  0.00  0.00    -0.213 NA
BRANCH  16  18
ATOM     18  N   LIG    1        3.502  -0.670  -0.035  0.00  0.00    -0.327 N 
ATOM     19  H   LIG    1        4.346  -0.193  -0.041  0.00  0.00    +0.145 HD
ATOM     20  H   LIG    1        3.494  -1.640  -0.040  0.00  0.00    +0.145 HD
ENDBRANCH  16  18
ENDBRANCH  11  12
TORSDOF 2
