REMARK  Name = ZINC12402836
REMARK                            x       y       z     vdW  Elec       q    Type
REMARK                         _______ _______ _______ _____ _____    ______ ____
ROOT
ATOM      1  C   LIG    1        2.644  -1.636  -4.649  0.00  0.00    +0.120 A 
ATOM      2  C   LIG    1        2.485  -2.465  -5.751  0.00  0.00    +0.046 A 
ATOM      3  C   LIG    1        3.590  -2.928  -6.433  0.00  0.00    +0.012 A 
ATOM      4  C   LIG    1        4.870  -2.563  -6.013  0.00  0.00    -0.016 A 
ATOM      5  C   LIG    1        5.026  -1.730  -4.904  0.00  0.00    +0.012 A 
ATOM      6  C   LIG    1        3.916  -1.266  -4.231  0.00  0.00    +0.046 A 
ENDROOT
BRANCH   4   7
ATOM      7  C   LIG    1        6.059  -3.059  -6.741  0.00  0.00    +0.008 C 
ATOM      8  C   LIG    1        6.274  -2.679  -8.026  0.00  0.00    +0.056 C 
ATOM      9 CL   LIG    1        5.245  -1.493  -8.765  0.00  0.00    -0.082 Cl
BRANCH   7  10
ATOM     10  C   LIG    1        7.013  -3.968  -6.068  0.00  0.00    -0.016 A 
ATOM     11  C   LIG    1        6.615  -5.255  -5.703  0.00  0.00    +0.008 A 
ATOM     12  C   LIG    1        7.509  -6.098  -5.075  0.00  0.00    +0.001 A 
ATOM     13  C   LIG    1        8.797  -5.670  -4.808  0.00  0.00    +0.000 A 
ATOM     14  C   LIG    1        9.198  -4.395  -5.168  0.00  0.00    +0.001 A 
ATOM     15  C   LIG    1        8.315  -3.545  -5.801  0.00  0.00    +0.008 A 
ENDBRANCH   7  10
BRANCH   8  16
ATOM     16  C   LIG    1        7.380  -3.274  -8.793  0.00  0.00    -0.006 A 
ATOM     17  C   LIG    1        7.549  -4.662  -8.823  0.00  0.00    +0.009 A 
ATOM     18  C   LIG    1        8.588  -5.211  -9.544  0.00  0.00    +0.001 A 
ATOM     19  C   LIG    1        9.463  -4.393 -10.237  0.00  0.00    +0.000 A 
ATOM     20  C   LIG    1        9.303  -3.018 -10.211  0.00  0.00    +0.001 A 
ATOM     21  C   LIG    1        8.266  -2.454  -9.500  0.00  0.00    +0.009 A 
ENDBRANCH   8  16
ENDBRANCH   4   7
BRANCH   1  22
ATOM     22  O   LIG    1        1.552  -1.181  -3.980  0.00  0.00    -0.494 OA
BRANCH  22  23
ATOM     23  C   LIG    1        0.274  -1.600  -4.463  0.00  0.00    +0.210 C 
BRANCH  23  24
ATOM     24  C   LIG    1       -0.827  -0.903  -3.662  0.00  0.00    -0.037 C 
BRANCH  24  25
ATOM     25  N   LIG    1       -0.753   0.547  -3.886  0.00  0.00    +0.382 N 
ATOM     26  H   LIG    1        0.176   0.874  -3.664  0.00  0.00    -0.082 HD
BRANCH  25  28
ATOM     27  C   LIG    1       -0.854   2.336  -5.555  0.00  0.00    -0.017 C 
ATOM     28  C   LIG    1       -1.053   0.842  -5.293  0.00  0.00    -0.082 C 
ENDBRANCH  25  28
BRANCH  25  29
ATOM     29  C   LIG    1       -1.730   1.226  -3.024  0.00  0.00    -0.082 C 
ATOM     30  C   LIG    1       -1.327   1.050  -1.559  0.00  0.00    -0.017 C 
ENDBRANCH  25  29
ENDBRANCH  24  25
ENDBRANCH  23  24
ENDBRANCH  22  23
ENDBRANCH   1  22
TORSDOF 9
