REMARK  Name = ZINC12358639
REMARK                            x       y       z     vdW  Elec       q    Type
REMARK                         _______ _______ _______ _____ _____    ______ ____
ROOT
ATOM      1  C   LIG    1       -0.017   1.379   0.010  0.00  0.00    +0.000 A 
ATOM      2  C   LIG    1        1.169   2.090   0.002  0.00  0.00    +0.002 A 
ATOM      3  C   LIG    1        2.377   1.421  -0.013  0.00  0.00    +0.030 A 
ATOM      4  C   LIG    1        2.400   0.031  -0.021  0.00  0.00    +0.093 A 
ATOM      5  C   LIG    1        1.206  -0.680  -0.013  0.00  0.00    +0.030 A 
ATOM      6  C   LIG    1        0.002  -0.004   0.002  0.00  0.00    +0.002 A 
ENDROOT
BRANCH   4   7
ATOM      7  N   LIG    1        3.619  -0.648  -0.036  0.00  0.00    -0.104 N 
BRANCH   7   8
ATOM      8  O   LIG    1        4.835   0.078  -0.044  0.00  0.00    -0.264 OA
ATOM      9  H   LIG    1        4.643   1.029  -0.038  0.00  0.00    +0.247 HD
ENDBRANCH   7   8
BRANCH   7  10
ATOM     10  N   LIG    1        3.639  -1.938  -0.043  0.00  0.00    +0.084 NA
ATOM     11  O   LIG    1        4.702  -2.531  -0.057  0.00  0.00    -0.122 OA
ENDBRANCH   7  10
ENDBRANCH   4   7
TORSDOF 3
