REMARK  Name = ZINC12375686
REMARK                            x       y       z     vdW  Elec       q    Type
REMARK                         _______ _______ _______ _____ _____    ______ ____
ROOT
ATOM      1  C   LIG    1        1.252  -2.158  -0.023  0.00  0.00    +0.137 A 
ATOM      2  C   LIG    1        0.552  -2.981   0.833  0.00  0.00    +0.050 A 
ATOM      3  C   LIG    1        0.863  -4.295   0.481  0.00  0.00    +0.050 A 
ATOM      4  C   LIG    1        1.747  -4.226  -0.584  0.00  0.00    +0.130 A 
ATOM      5  O   LIG    1        1.960  -2.924  -0.872  0.00  0.00    -0.455 OA
ENDROOT
BRANCH   1  11
ATOM      6  C   LIG    1       -0.017   1.375   0.010  0.00  0.00    +0.001 A 
ATOM      7  C   LIG    1        1.170   2.087   0.002  0.00  0.00    +0.001 A 
ATOM      8  C   LIG    1        2.384   1.423  -0.013  0.00  0.00    +0.021 A 
ATOM      9  C   LIG    1        2.419   0.043  -0.021  0.00  0.00    +0.052 A 
ATOM     10 CL   LIG    1        3.942  -0.789  -0.041  0.00  0.00    -0.083 Cl
ATOM     11  C   LIG    1        1.223  -0.683  -0.014  0.00  0.00    +0.036 A 
ATOM     12  C   LIG    1        0.002  -0.004   0.002  0.00  0.00    +0.013 A 
ENDBRANCH   1  11
BRANCH   4  13
ATOM     13  C   LIG    1        2.320  -5.324  -1.254  0.00  0.00    +0.066 C 
ATOM     14  C   LIG    1        3.190  -5.113  -2.305  0.00  0.00    +0.077 C 
ATOM     15  C   LIG    1        3.874  -6.057  -3.121  0.00  0.00    +0.217 C 
ATOM     16  N   LIG    1        4.650  -5.613  -4.061  0.00  0.00    -0.165 NA
ATOM     17  C   LIG    1        4.817  -4.298  -4.276  0.00  0.00    +0.139 C 
ATOM     18  S   LIG    1        5.785  -3.514  -5.450  0.00  0.00    -0.026 S 
ATOM     19  S   LIG    1        3.764  -3.579  -3.024  0.00  0.00    -0.060 S 
BRANCH  15  20
ATOM     20  O   LIG    1        3.719  -7.386  -2.921  0.00  0.00    -0.493 OA
ATOM     21  H   LIG    1        3.155  -7.694  -2.238  0.00  0.00    +0.294 HD
ENDBRANCH  15  20
ENDBRANCH   4  13
TORSDOF 3
