REMARK  Name = ZINC12428943
REMARK                            x       y       z     vdW  Elec       q    Type
REMARK                         _______ _______ _______ _____ _____    ______ ____
ROOT
ATOM      1  C   LIG    1       -1.260  -0.761   0.011  0.00  0.00    +0.143 C 
ATOM      2  N   LIG    1       -1.239  -2.066   0.003  0.00  0.00    -0.155 NA
ENDROOT
BRANCH   2   3
ATOM      3  N   LIG    1       -2.345  -2.729   0.011  0.00  0.00    -0.127 NA
ATOM      4  C   LIG    1       -2.324  -4.046   0.003  0.00  0.00    +0.182 C 
ATOM      5  N   LIG    1       -1.226  -4.879  -0.006  0.00  0.00    -0.263 N 
ATOM      6  H   LIG    1       -0.340  -4.484  -0.009  0.00  0.00    +0.157 HD
ATOM      7  C   LIG    1       -1.335  -6.197  -0.013  0.00  0.00    +0.229 C 
ATOM      8  C   LIG    1       -2.753  -6.744  -0.008  0.00  0.00    +0.173 C 
ATOM      9  O   LIG    1       -0.364  -6.923  -0.021  0.00  0.00    -0.275 OA
ATOM     10  S   LIG    1       -3.711  -5.172   0.012  0.00  0.00    -0.079 S 
ENDBRANCH   2   3
BRANCH   1  17
ATOM     11  C   LIG    1       -0.017   1.394   0.010  0.00  0.00    +0.011 A 
ATOM     12  C   LIG    1        1.169   2.096   0.002  0.00  0.00    +0.020 A 
ATOM     13  C   LIG    1        2.378   1.420  -0.013  0.00  0.00    +0.041 A 
ATOM     14 CL   LIG    1        3.867   2.313  -0.022  0.00  0.00    -0.084 Cl
ATOM     15  C   LIG    1        2.405   0.035  -0.021  0.00  0.00    +0.020 A 
ATOM     16  C   LIG    1        1.226  -0.680  -0.014  0.00  0.00    +0.011 A 
ATOM     17  C   LIG    1        0.002  -0.004   0.002  0.00  0.00    -0.005 A 
ENDBRANCH   1  17
TORSDOF 2
