REMARK  Name = ZINC08855176
REMARK                            x       y       z     vdW  Elec       q    Type
REMARK                         _______ _______ _______ _____ _____    ______ ____
ROOT
ATOM      1  C   LIG    1        0.739  -2.004  -1.265  0.00  0.00    +0.089 A 
ATOM      2  C   LIG    1        1.744  -2.814  -0.702  0.00  0.00    +0.119 A 
ATOM      3  C   LIG    1        1.372  -4.145  -0.931  0.00  0.00    +0.151 A 
ATOM      4  N   LIG    1        0.184  -4.116  -1.609  0.00  0.00    -0.260 N 
ATOM      5  C   LIG    1       -0.579  -5.282  -2.060  0.00  0.00    +0.173 C 
ATOM      6  C   LIG    1        2.216  -5.179  -0.463  0.00  0.00    +0.278 A 
ATOM      7  O   LIG    1        1.927  -6.350  -0.643  0.00  0.00    -0.265 OA
ATOM      8  N   LIG    1        3.349  -4.838   0.188  0.00  0.00    -0.305 N 
ATOM      9  H   LIG    1        3.943  -5.530   0.518  0.00  0.00    +0.170 HD
ATOM     10  C   LIG    1        3.663  -3.520   0.384  0.00  0.00    +0.145 A 
ATOM     11  N   LIG    1        2.891  -2.551  -0.044  0.00  0.00    -0.225 NA
ATOM     12  N   LIG    1       -0.175  -2.775  -1.791  0.00  0.00    -0.174 NA
ENDROOT
BRANCH  10  13
ATOM     13  C   LIG    1        4.909  -3.180   1.099  0.00  0.00    +0.059 A 
ATOM     14  C   LIG    1        5.753  -4.192   1.561  0.00  0.00    +0.015 A 
ATOM     15  C   LIG    1        6.915  -3.868   2.228  0.00  0.00    +0.001 A 
ATOM     16  C   LIG    1        7.250  -2.541   2.443  0.00  0.00    +0.004 A 
ATOM     17  C   LIG    1        6.424  -1.530   1.992  0.00  0.00    +0.046 A 
ATOM     18  C   LIG    1        5.254  -1.839   1.314  0.00  0.00    +0.131 A 
BRANCH  18  19
ATOM     19  O   LIG    1        4.445  -0.847   0.865  0.00  0.00    -0.492 OA
BRANCH  19  20
ATOM     20  C   LIG    1        4.861   0.496   1.120  0.00  0.00    +0.226 C 
ATOM     21  C   LIG    1        3.830   1.468   0.544  0.00  0.00    +0.048 C 
ENDBRANCH  19  20
ENDBRANCH  18  19
ENDBRANCH  10  13
BRANCH   1  22
ATOM     22  C   LIG    1        0.718  -0.497  -1.257  0.00  0.00    +0.059 C 
BRANCH  22  24
ATOM     23  C   LIG    1       -0.019   1.526   0.010  0.00  0.00    +0.004 C 
ATOM     24  C   LIG    1        0.002  -0.004   0.002  0.00  0.00    +0.003 C 
ENDBRANCH  22  24
ENDBRANCH   1  22
TORSDOF 5
