REMARK  Name = ZINC11726787
REMARK                            x       y       z     vdW  Elec       q    Type
REMARK                         _______ _______ _______ _____ _____    ______ ____
ROOT
ATOM      1  N   LIG    1       -6.544  -2.346   0.608  0.00  0.00    -0.300 N 
ATOM      2  H   LIG    1       -5.574  -2.604   1.058  0.00  0.00    +0.150 HD
ATOM      3  C   LIG    1       -6.963  -1.065   0.599  0.00  0.00    +0.245 C 
ATOM      4  O   LIG    1       -8.034  -0.779   0.102  0.00  0.00    -0.270 OA
ENDROOT
BRANCH   3   5
ATOM      5  C   LIG    1       -6.117  -0.006   1.193  0.00  0.00    +0.037 A 
ATOM      6  C   LIG    1       -6.550   1.321   1.183  0.00  0.00    +0.014 A 
ATOM      7  C   LIG    1       -5.763   2.307   1.737  0.00  0.00    +0.017 A 
ATOM      8  C   LIG    1       -4.533   1.978   2.308  0.00  0.00    +0.066 A 
ATOM      9  C   LIG    1       -4.097   0.653   2.313  0.00  0.00    +0.017 A 
ATOM     10  C   LIG    1       -4.886  -0.334   1.764  0.00  0.00    +0.014 A 
BRANCH   8  11
ATOM     11  C   LIG    1       -3.686   3.038   2.904  0.00  0.00    +0.306 C 
ATOM     12  N   LIG    1       -4.090   4.276   2.894  0.00  0.00    -0.285 N 
ATOM     13  H   LIG    1       -5.060   4.535   2.444  0.00  0.00    +0.301 HD
ATOM     14  H   LIG    1       -3.462   5.063   3.337  0.00  0.00    +0.301 HD
BRANCH  11  15
ATOM     15  N   LIG    1       -2.471   2.715   3.467  0.00  0.00    -0.132 N 
ATOM     16  H   LIG    1       -2.132   1.668   3.479  0.00  0.00    +0.348 HD
BRANCH  15  17
ATOM     17  O   LIG    1       -1.660   3.729   4.032  0.00  0.00    -0.209 OA
ATOM     18  H   LIG    1       -2.103   4.587   3.939  0.00  0.00    +0.271 HD
ENDBRANCH  15  17
ENDBRANCH  11  15
ENDBRANCH   8  11
ENDBRANCH   3   5
BRANCH   1  19
ATOM     19  C   LIG    1       -7.381  -3.394   0.020  0.00  0.00    +0.156 C 
ATOM     20  C   LIG    1       -7.117  -3.473  -1.485  0.00  0.00    +0.038 C 
BRANCH  19  25
ATOM     21  C   LIG    1       -9.382  -8.014  -0.100  0.00  0.00    +0.122 C 
ATOM     22  C   LIG    1       -7.965  -8.123   0.468  0.00  0.00    +0.050 C 
ATOM     23  C   LIG    1       -7.710  -6.950   1.419  0.00  0.00    +0.110 C 
ATOM     24  N   LIG    1       -7.979  -5.694   0.705  0.00  0.00    -0.300 N 
ATOM     25  C   LIG    1       -7.051  -4.718   0.658  0.00  0.00    +0.236 C 
ATOM     26  O   LIG    1       -5.949  -4.906   1.129  0.00  0.00    -0.274 OA
ATOM     27  C   LIG    1       -9.282  -5.521   0.049  0.00  0.00    +0.110 C 
ATOM     28  C   LIG    1       -9.518  -6.712  -0.892  0.00  0.00    +0.050 C 
BRANCH  21  29
ATOM     29  O   LIG    1       -9.635  -9.125  -0.964  0.00  0.00    -0.365 OA
BRANCH  29  30
ATOM     30  C   LIG    1      -11.007  -9.523  -1.012  0.00  0.00    +0.280 C 
BRANCH  30  31
ATOM     31  C   LIG    1      -11.157 -10.695  -1.947  0.00  0.00    +0.333 C 
ATOM     32  O   LIG    1      -10.189 -11.143  -2.514  0.00  0.00    -0.248 OA
BRANCH  31  33
ATOM     33  O   LIG    1      -12.367 -11.241  -2.150  0.00  0.00    -0.463 OA
BRANCH  33  35
ATOM     34  C   LIG    1      -13.885 -12.850  -3.167  0.00  0.00    +0.048 C 
ATOM     35  C   LIG    1      -12.437 -12.367  -3.063  0.00  0.00    +0.229 C 
ENDBRANCH  33  35
ENDBRANCH  31  33
ENDBRANCH  30  31
ENDBRANCH  29  30
ENDBRANCH  21  29
ENDBRANCH  19  25
ENDBRANCH   1  19
TORSDOF 11
