REMARK  Name = ZINC12466871
REMARK                            x       y       z     vdW  Elec       q    Type
REMARK                         _______ _______ _______ _____ _____    ______ ____
ROOT
ATOM      1  C   LIG    1       -1.540  -3.665   2.722  0.00  0.00    +0.317 C 
ATOM      2  O   LIG    1       -1.672  -4.626   2.001  0.00  0.00    -0.250 OA
ENDROOT
BRANCH   1   3
ATOM      3  O   LIG    1       -0.798  -2.622   2.321  0.00  0.00    -0.461 OA
BRANCH   3  11
ATOM      4  C   LIG    1       -0.127   1.459  -0.043  0.00  0.00    -0.092 C 
ATOM      5  N   LIG    1        0.002  -0.004   0.002  0.00  0.00    +0.380 N 
ATOM      6  C   LIG    1        0.624  -0.506  -1.231  0.00  0.00    -0.092 C 
ATOM      7  C   LIG    1       -1.324  -0.640   0.220  0.00  0.00    -0.062 C 
ATOM      8  C   LIG    1       -1.601  -0.434   1.727  0.00  0.00    -0.016 C 
ATOM      9  C   LIG    1       -0.206  -0.291   2.370  0.00  0.00    -0.016 C 
ATOM     10  C   LIG    1       -1.155  -2.146  -0.039  0.00  0.00    +0.030 C 
ATOM     11  C   LIG    1       -0.194  -2.714   1.029  0.00  0.00    +0.173 C 
ATOM     12  C   LIG    1        1.114  -1.917   1.020  0.00  0.00    +0.030 C 
ATOM     13  C   LIG    1        0.787  -0.424   1.193  0.00  0.00    -0.062 C 
ENDBRANCH   3  11
ENDBRANCH   1   3
BRANCH   1  14
ATOM     14  C   LIG    1       -2.209  -3.639   4.073  0.00  0.00    +0.153 C 
BRANCH  14  15
ATOM     15  C   LIG    1       -2.975  -4.921   4.279  0.00  0.00    -0.032 A 
ATOM     16  C   LIG    1       -3.989  -5.268   3.406  0.00  0.00    +0.004 A 
ATOM     17  C   LIG    1       -4.691  -6.443   3.595  0.00  0.00    +0.000 A 
ATOM     18  C   LIG    1       -4.380  -7.271   4.657  0.00  0.00    +0.000 A 
ATOM     19  C   LIG    1       -3.365  -6.925   5.529  0.00  0.00    +0.000 A 
ATOM     20  C   LIG    1       -2.660  -5.752   5.338  0.00  0.00    +0.004 A 
ENDBRANCH  14  15
BRANCH  14  21
ATOM     21  C   LIG    1       -3.172  -2.453   4.142  0.00  0.00    +0.175 C 
BRANCH  21  22
ATOM     22  O   LIG    1       -3.718  -2.359   5.459  0.00  0.00    -0.394 OA
ATOM     23  H   LIG    1       -4.339  -1.627   5.576  0.00  0.00    +0.209 HD
ENDBRANCH  21  22
ENDBRANCH  14  21
ENDBRANCH   1  14
TORSDOF 6
