REMARK  Name = ZINC08616635
REMARK                            x       y       z     vdW  Elec       q    Type
REMARK                         _______ _______ _______ _____ _____    ______ ____
ROOT
ATOM      1  C   LIG    1        0.184   0.567   2.184  0.00  0.00    -0.069 C 
ATOM      2  C   LIG    1       -0.203  -0.873   2.530  0.00  0.00    +0.003 C 
ATOM      3  C   LIG    1        0.449  -1.267   3.857  0.00  0.00    +0.105 C 
ATOM      4  N   LIG    1       -0.001  -0.354   4.915  0.00  0.00    -0.315 N 
ATOM      5  C   LIG    1        0.401   1.029   4.628  0.00  0.00    +0.105 C 
ATOM      6  C   LIG    1       -0.253   1.492   3.324  0.00  0.00    +0.003 C 
ENDROOT
BRANCH   4   7
ATOM      7  C   LIG    1        0.467  -0.760   6.152  0.00  0.00    +0.133 A 
ATOM      8  C   LIG    1       -0.422  -1.325   7.106  0.00  0.00    +0.055 A 
ATOM      9  C   LIG    1       -1.856  -1.574   7.009  0.00  0.00    +0.002 A 
ATOM     10  C   LIG    1       -2.494  -2.130   8.066  0.00  0.00    +0.056 A 
ATOM     11  S   LIG    1       -1.194  -2.353   9.265  0.00  0.00    -0.076 S 
ATOM     12  C   LIG    1        0.165  -1.701   8.331  0.00  0.00    +0.114 A 
ATOM     13  N   LIG    1        1.454  -1.533   8.557  0.00  0.00    -0.228 NA
ATOM     14  C   LIG    1        2.230  -1.003   7.631  0.00  0.00    +0.224 A 
ATOM     15  N   LIG    1        1.747  -0.631   6.459  0.00  0.00    -0.220 NA
BRANCH   9  16
ATOM     16  C   LIG    1       -2.601  -1.226   5.776  0.00  0.00    -0.017 A 
ATOM     17  C   LIG    1       -2.591   0.084   5.299  0.00  0.00    +0.008 A 
ATOM     18  C   LIG    1       -3.282   0.402   4.147  0.00  0.00    +0.001 A 
ATOM     19  C   LIG    1       -3.993  -0.575   3.472  0.00  0.00    +0.000 A 
ATOM     20  C   LIG    1       -4.011  -1.875   3.944  0.00  0.00    +0.001 A 
ATOM     21  C   LIG    1       -3.319  -2.206   5.091  0.00  0.00    +0.008 A 
ENDBRANCH   9  16
ENDBRANCH   4   7
BRANCH   1  22
ATOM     22  N   LIG    1       -0.495   0.976   0.940  0.00  0.00    +0.383 N 
ATOM     23  H   LIG    1       -0.598   1.998   0.931  0.00  0.00    -0.085 HD
ATOM     24  H   LIG    1       -1.423   0.538   0.901  0.00  0.00    -0.085 HD
BRANCH  22  25
ATOM     25  C   LIG    1        0.291   0.556  -0.235  0.00  0.00    -0.047 C 
BRANCH  25  26
ATOM     26  C   LIG    1       -0.437   0.993  -1.508  0.00  0.00    +0.135 C 
BRANCH  26  27
ATOM     27  O   LIG    1       -0.478   2.420  -1.567  0.00  0.00    -0.390 OA
ATOM     28  H   LIG    1        0.394   2.838  -1.578  0.00  0.00    +0.210 HD
ENDBRANCH  26  27
BRANCH  26  29
ATOM     29  C   LIG    1        0.307   0.453  -2.731  0.00  0.00    +0.258 C 
BRANCH  29  30
ATOM     30  O   LIG    1       -0.434   0.761  -3.913  0.00  0.00    -0.489 OA
BRANCH  30  34
ATOM     31  C   LIG    1        1.165  -0.491  -7.507  0.00  0.00    +0.120 A 
ATOM     32  C   LIG    1       -0.041   0.195  -7.486  0.00  0.00    +0.049 A 
ATOM     33  C   LIG    1       -0.576   0.614  -6.283  0.00  0.00    +0.049 A 
ATOM     34  C   LIG    1        0.092   0.348  -5.097  0.00  0.00    +0.121 A 
ATOM     35  C   LIG    1        1.300  -0.334  -5.119  0.00  0.00    +0.049 A 
ATOM     36  C   LIG    1        1.833  -0.757  -6.321  0.00  0.00    +0.049 A 
BRANCH  31  38
ATOM     37  C   LIG    1        2.935  -1.605  -8.639  0.00  0.00    +0.277 C 
ATOM     38  O   LIG    1        1.691  -0.904  -8.691  0.00  0.00    -0.495 OA
ENDBRANCH  31  38
ENDBRANCH  30  34
ENDBRANCH  29  30
ENDBRANCH  26  29
ENDBRANCH  25  26
ENDBRANCH  22  25
ENDBRANCH   1  22
TORSDOF 10
