REMARK  Name = ZINC12502280
REMARK                            x       y       z     vdW  Elec       q    Type
REMARK                         _______ _______ _______ _____ _____    ______ ____
ROOT
ATOM      1  C   LIG    1       -0.006  -2.796  -4.895  0.00  0.00    +0.244 C 
ATOM      2  N   LIG    1       -0.021  -2.116  -6.058  0.00  0.00    -0.311 N 
ATOM      3  H   LIG    1       -0.030  -1.146  -6.053  0.00  0.00    +0.149 HD
ATOM      4  O   LIG    1        0.006  -4.012  -4.902  0.00  0.00    -0.270 OA
ENDROOT
BRANCH   1   8
ATOM      5  C   LIG    1        0.000  -0.693  -1.206  0.00  0.00    +0.029 A 
ATOM      6  C   LIG    1        0.013  -2.085  -1.212  0.00  0.00    +0.024 A 
ATOM      7  C   LIG    1        0.011  -2.769  -2.406  0.00  0.00    +0.015 A 
ATOM      8  C   LIG    1       -0.004  -2.065  -3.613  0.00  0.00    +0.037 A 
ATOM      9  C   LIG    1       -0.017  -0.667  -3.604  0.00  0.00    +0.015 A 
ATOM     10  C   LIG    1       -0.021   0.011  -2.407  0.00  0.00    +0.024 A 
BRANCH   5  12
ATOM     11  C   LIG    1       -0.018   1.461   0.010  0.00  0.00    +0.129 C 
ATOM     12  N   LIG    1        0.002  -0.004   0.002  0.00  0.00    -0.336 N 
ATOM     13  C   LIG    1        0.024  -0.743   1.267  0.00  0.00    +0.129 C 
ENDBRANCH   5  12
ENDBRANCH   1   8
BRANCH   2  14
ATOM     14  C   LIG    1       -0.022  -2.841  -7.331  0.00  0.00    +0.104 C 
BRANCH  14  15
ATOM     15  C   LIG    1       -0.040  -1.841  -8.488  0.00  0.00    +0.019 C 
BRANCH  15  16
ATOM     16  C   LIG    1       -0.042  -2.599  -9.818  0.00  0.00    +0.002 C 
BRANCH  16  17
ATOM     17  C   LIG    1       -0.060  -1.598 -10.975  0.00  0.00    +0.001 C 
BRANCH  17  18
ATOM     18  C   LIG    1       -0.061  -2.356 -12.304  0.00  0.00    +0.009 C 
BRANCH  18  19
ATOM     19  C   LIG    1       -0.079  -1.356 -13.462  0.00  0.00    +0.098 C 
BRANCH  19  20
ATOM     20  C   LIG    1       -0.081  -2.102 -14.771  0.00  0.00    +0.235 C 
ATOM     21  N   LIG    1       -0.096  -1.422 -15.934  0.00  0.00    -0.197 N 
ATOM     22  H   LIG    1       -0.105  -0.452 -15.929  0.00  0.00    +0.182 HD
ATOM     23  O   LIG    1       -0.069  -3.315 -14.777  0.00  0.00    -0.274 OA
BRANCH  21  24
ATOM     24  O   LIG    1       -0.097  -2.123 -17.164  0.00  0.00    -0.295 OA
ATOM     25  H   LIG    1       -0.108  -1.551 -17.944  0.00  0.00    +0.241 HD
ENDBRANCH  21  24
ENDBRANCH  19  20
ENDBRANCH  18  19
ENDBRANCH  17  18
ENDBRANCH  16  17
ENDBRANCH  15  16
ENDBRANCH  14  15
ENDBRANCH   2  14
TORSDOF 10
