REMARK  Name = ZINC10971638
REMARK                            x       y       z     vdW  Elec       q    Type
REMARK                         _______ _______ _______ _____ _____    ______ ____
ROOT
ATOM      1  C   LIG    1       -0.889   1.700   8.415  0.00  0.00    +0.165 A 
ATOM      2  N   LIG    1       -1.964   2.445   8.590  0.00  0.00    -0.233 NA
ATOM      3  C   LIG    1       -2.400   2.742   9.798  0.00  0.00    +0.124 A 
ATOM      4  C   LIG    1       -1.713   2.271  10.867  0.00  0.00    +0.015 A 
ATOM      5  S   LIG    1       -0.405   1.369  10.050  0.00  0.00    -0.057 S 
ENDROOT
BRANCH   1   7
ATOM      6  C   LIG    1       -0.829   1.654   6.046  0.00  0.00    +0.250 C 
ATOM      7  N   LIG    1       -0.295   1.290   7.229  0.00  0.00    -0.261 N 
ATOM      8  H   LIG    1        0.504   0.741   7.252  0.00  0.00    +0.157 HD
ATOM      9  O   LIG    1       -1.831   2.342   6.018  0.00  0.00    -0.270 OA
BRANCH   6  14
ATOM     10  C   LIG    1       -0.149   1.182   2.380  0.00  0.00    +0.121 A 
ATOM     11  C   LIG    1        0.995   0.396   2.419  0.00  0.00    +0.045 A 
ATOM     12  C   LIG    1        1.542   0.022   3.633  0.00  0.00    +0.004 A 
ATOM     13  C   LIG    1        0.954   0.428   4.813  0.00  0.00    +0.013 A 
ATOM     14  C   LIG    1       -0.197   1.218   4.784  0.00  0.00    +0.041 A 
ATOM     15  C   LIG    1       -0.744   1.599   3.558  0.00  0.00    +0.058 A 
BRANCH  10  17
ATOM     16  C   LIG    1       -0.013   1.086   0.008  0.00  0.00    +0.277 C 
ATOM     17  O   LIG    1       -0.682   1.547   1.184  0.00  0.00    -0.495 OA
ENDBRANCH  10  17
ENDBRANCH   6  14
ENDBRANCH   1   7
BRANCH   4  18
ATOM     18  C   LIG    1       -1.978   2.457  12.339  0.00  0.00    +0.079 C 
BRANCH  18  19
ATOM     19  C   LIG    1       -2.872   1.348  12.832  0.00  0.00    -0.042 A 
ATOM     20  C   LIG    1       -4.246   1.505  12.806  0.00  0.00    +0.004 A 
ATOM     21  C   LIG    1       -5.066   0.486  13.255  0.00  0.00    +0.001 A 
ATOM     22  C   LIG    1       -4.513  -0.685  13.738  0.00  0.00    +0.012 A 
ATOM     23  C   LIG    1       -3.139  -0.839  13.768  0.00  0.00    +0.055 A 
ATOM     24  C   LIG    1       -2.319   0.178  13.316  0.00  0.00    +0.016 A 
BRANCH  23  25
ATOM     25  C   LIG    1       -2.536  -2.116  14.295  0.00  0.00    +0.417 C 
ATOM     26  F   LIG    1       -1.318  -2.357  13.650  0.00  0.00    -0.166 F 
ATOM     27  F   LIG    1       -3.411  -3.180  14.052  0.00  0.00    -0.166 F 
ATOM     28  F   LIG    1       -2.319  -1.995  15.672  0.00  0.00    -0.166 F 
ENDBRANCH  23  25
ENDBRANCH  18  19
ENDBRANCH   4  18
TORSDOF 6
