REMARK  Name = ZINC12501080
REMARK                            x       y       z     vdW  Elec       q    Type
REMARK                         _______ _______ _______ _____ _____    ______ ____
ROOT
ATOM      1  C   LIG    1        4.734  10.396   1.849  0.00  0.00    +0.059 C 
ATOM      2  C   LIG    1        4.390   9.622   0.749  0.00  0.00    +0.057 C 
ATOM      3  C   LIG    1        3.856  10.556  -0.259  0.00  0.00    +0.252 C 
ATOM      4  N   LIG    1        3.900  11.803   0.239  0.00  0.00    -0.248 N 
ATOM      5  H   LIG    1        3.604  12.597  -0.234  0.00  0.00    +0.158 HD
ATOM      6  O   LIG    1        3.445  10.248  -1.361  0.00  0.00    -0.270 OA
ATOM      7  C   LIG    1        4.410  11.796   1.482  0.00  0.00    +0.252 C 
ATOM      8  O   LIG    1        4.574  12.771   2.187  0.00  0.00    -0.270 OA
ENDROOT
BRANCH   1  12
ATOM      9  C   LIG    1        7.996   8.664   5.231  0.00  0.00    +0.149 C 
ATOM     10  N   LIG    1        6.750   9.152   4.635  0.00  0.00    -0.349 N 
ATOM     11  C   LIG    1        6.602   9.511   3.335  0.00  0.00    +0.095 A 
ATOM     12  C   LIG    1        5.306   9.925   3.117  0.00  0.00    +0.013 A 
ATOM     13  C   LIG    1        4.606   9.793   4.408  0.00  0.00    +0.010 A 
ATOM     14  C   LIG    1        3.302  10.044   4.828  0.00  0.00    +0.049 A 
ATOM     15  C   LIG    1        2.952   9.811   6.143  0.00  0.00    +0.124 A 
ATOM     16  F   LIG    1        1.688  10.052   6.555  0.00  0.00    -0.205 F 
ATOM     17  C   LIG    1        3.893   9.330   7.043  0.00  0.00    +0.040 A 
ATOM     18  C   LIG    1        5.187   9.079   6.638  0.00  0.00    +0.029 A 
ATOM     19  C   LIG    1        5.559   9.306   5.317  0.00  0.00    +0.050 A 
ENDBRANCH   1  12
BRANCH   2  20
ATOM     20  C   LIG    1        4.524   8.157   0.618  0.00  0.00    -0.010 A 
ATOM     21  C   LIG    1        5.791   7.567   0.615  0.00  0.00    +0.009 A 
ATOM     22  C   LIG    1        5.914   6.198   0.492  0.00  0.00    +0.002 A 
ATOM     23  C   LIG    1        4.787   5.405   0.378  0.00  0.00    +0.023 A 
ATOM     24  C   LIG    1        3.522   5.983   0.374  0.00  0.00    +0.028 A 
ATOM     25  C   LIG    1        3.387   7.357   0.496  0.00  0.00    +0.031 A 
BRANCH  24  26
ATOM     26  N   LIG    1        2.387   5.178   0.253  0.00  0.00    -0.341 N 
ATOM     27  H   LIG    1        1.505   5.580   0.254  0.00  0.00    +0.146 HD
BRANCH  26  28
ATOM     28  C   LIG    1        2.530   3.725   0.124  0.00  0.00    +0.135 C 
BRANCH  28  29
ATOM     29  C   LIG    1        1.145   3.085   0.008  0.00  0.00    +0.157 C 
BRANCH  29  30
ATOM     30  O   LIG    1        0.522   3.513  -1.205  0.00  0.00    -0.388 OA
ATOM     31  H   LIG    1        1.013   3.277  -2.004  0.00  0.00    +0.210 HD
ENDBRANCH  29  30
BRANCH  29  32
ATOM     32  C   LIG    1        1.286   1.562  -0.002  0.00  0.00    +0.188 C 
BRANCH  32  33
ATOM     33  O   LIG    1       -0.011   0.963   0.007  0.00  0.00    -0.392 OA
ATOM     34  H   LIG    1        0.002  -0.004   0.002  0.00  0.00    +0.210 HD
ENDBRANCH  32  33
ENDBRANCH  29  32
ENDBRANCH  28  29
ENDBRANCH  26  28
ENDBRANCH  24  26
ENDBRANCH   2  20
TORSDOF 8
