REMARK  Name = ZINC08589522
REMARK                            x       y       z     vdW  Elec       q    Type
REMARK                         _______ _______ _______ _____ _____    ______ ____
ROOT
ATOM      1  C   LIG    1        0.218  -0.825  -1.226  0.00  0.00    +0.140 A 
ATOM      2  C   LIG    1        0.212  -0.225  -2.488  0.00  0.00    +0.078 A 
ATOM      3  C   LIG    1        0.318  -0.979  -3.662  0.00  0.00    +0.087 A 
ATOM      4  N   LIG    1        0.428  -2.360  -3.478  0.00  0.00    -0.192 N 
ATOM      5  C   LIG    1        0.430  -2.902  -2.224  0.00  0.00    +0.204 A 
ATOM      6  C   LIG    1        0.553  -4.271  -2.402  0.00  0.00    +0.249 A 
ATOM      7  N   LIG    1        0.621  -4.520  -3.704  0.00  0.00    -0.108 NA
ATOM      8  N   LIG    1        0.551  -3.424  -4.377  0.00  0.00    -0.057 NA
ATOM      9  C   LIG    1        0.299  -0.254  -4.854  0.00  0.00    +0.036 A 
ATOM     10  C   LIG    1        0.184   1.093  -4.830  0.00  0.00    +0.048 A 
ATOM     11  S   LIG    1        0.091   1.443  -3.082  0.00  0.00    -0.092 S 
ATOM     12  N   LIG    1        0.331  -2.139  -1.122  0.00  0.00    -0.209 NA
ENDROOT
BRANCH   6  13
ATOM     13  S   LIG    1        0.610  -5.476  -1.118  0.00  0.00    +0.047 S 
ATOM     14  O   LIG    1        0.914  -4.777   0.081  0.00  0.00    -0.163 OA
ATOM     15  O   LIG    1        1.411  -6.546  -1.601  0.00  0.00    -0.163 OA
BRANCH  13  16
ATOM     16  C   LIG    1       -1.021  -6.114  -0.930  0.00  0.00    +0.095 A 
ATOM     17  C   LIG    1       -1.927  -5.466  -0.111  0.00  0.00    +0.027 A 
ATOM     18  C   LIG    1       -3.207  -5.967   0.037  0.00  0.00    +0.002 A 
ATOM     19  C   LIG    1       -3.581  -7.116  -0.634  0.00  0.00    +0.000 A 
ATOM     20  C   LIG    1       -2.676  -7.764  -1.453  0.00  0.00    +0.002 A 
ATOM     21  C   LIG    1       -1.397  -7.261  -1.605  0.00  0.00    +0.027 A 
ENDBRANCH  13  16
ENDBRANCH   6  13
BRANCH   1  23
ATOM     22  C   LIG    1       -0.144   1.391  -0.204  0.00  0.00    +0.131 C 
ATOM     23  N   LIG    1        0.112  -0.047  -0.087  0.00  0.00    -0.313 N 
BRANCH  23  24
ATOM     24  C   LIG    1        0.255  -0.660   1.236  0.00  0.00    +0.141 C 
BRANCH  24  25
ATOM     25  C   LIG    1       -1.109  -0.971   1.796  0.00  0.00    -0.030 A 
ATOM     26  C   LIG    1       -1.738  -0.063   2.627  0.00  0.00    +0.005 A 
ATOM     27  C   LIG    1       -2.989  -0.349   3.141  0.00  0.00    +0.000 A 
ATOM     28  C   LIG    1       -3.611  -1.542   2.824  0.00  0.00    +0.000 A 
ATOM     29  C   LIG    1       -2.982  -2.449   1.992  0.00  0.00    +0.000 A 
ATOM     30  C   LIG    1       -1.733  -2.162   1.474  0.00  0.00    +0.005 A 
ENDBRANCH  24  25
ENDBRANCH  23  24
ENDBRANCH   1  23
TORSDOF 5
