REMARK  Name = ZINC08995178
REMARK                            x       y       z     vdW  Elec       q    Type
REMARK                         _______ _______ _______ _____ _____    ______ ____
ROOT
ATOM      1  C   LIG    1       -1.252  -0.755   0.010  0.00  0.00    +0.026 C 
ATOM      2  C   LIG    1       -1.234  -2.133  -0.102  0.00  0.00    +0.101 C 
ATOM      3  C   LIG    1       -2.483  -2.918  -0.213  0.00  0.00    +0.276 C 
ATOM      4  O   LIG    1       -3.570  -2.366  -0.208  0.00  0.00    -0.268 OA
ATOM      5  N   LIG    1       -2.389  -4.253  -0.318  0.00  0.00    -0.127 NA
ATOM      6  C   LIG    1       -1.233  -4.870  -0.325  0.00  0.00    +0.278 C 
ATOM      7  N   LIG    1       -0.038  -4.233  -0.228  0.00  0.00    -0.238 N 
ATOM      8  H   LIG    1        0.781  -4.753  -0.239  0.00  0.00    +0.159 HD
ATOM      9  C   LIG    1        0.033  -2.889  -0.122  0.00  0.00    +0.256 C 
ATOM     10  O   LIG    1        1.106  -2.320  -0.041  0.00  0.00    -0.270 OA
ENDROOT
BRANCH   1  16
ATOM     11  C   LIG    1        0.894  -0.280  -1.145  0.00  0.00    +0.011 A 
ATOM     12  C   LIG    1        2.054   0.434  -1.251  0.00  0.00    +0.046 A 
ATOM     13  C   LIG    1        2.340   1.442  -0.334  0.00  0.00    +0.117 A 
ATOM     14  C   LIG    1        1.449   1.728   0.695  0.00  0.00    +0.046 A 
ATOM     15  C   LIG    1        0.286   1.022   0.813  0.00  0.00    +0.011 A 
ATOM     16  C   LIG    1       -0.009   0.005  -0.109  0.00  0.00    -0.024 A 
BRANCH  13  17
ATOM     17  O   LIG    1        3.493   2.147  -0.445  0.00  0.00    -0.507 OA
ATOM     18  H   LIG    1        3.419   2.939  -0.995  0.00  0.00    +0.292 HD
ENDBRANCH  13  17
ENDBRANCH   1  16
BRANCH   6  19
ATOM     19  O   LIG    1       -1.231  -6.212  -0.434  0.00  0.00    -0.483 OA
ATOM     20  H   LIG    1       -2.041  -6.678  -0.503  0.00  0.00    +0.295 HD
ENDBRANCH   6  19
TORSDOF 3
