REMARK  Name = ZINC08730640
REMARK                            x       y       z     vdW  Elec       q    Type
REMARK                         _______ _______ _______ _____ _____    ______ ____
ROOT
ATOM      1  C   LIG    1       -0.691   0.712   2.256  0.00  0.00    +0.122 A 
ATOM      2  C   LIG    1        0.028  -0.487   2.203  0.00  0.00    +0.046 A 
ATOM      3  C   LIG    1        0.038  -1.343   3.259  0.00  0.00    +0.012 A 
ATOM      4  C   LIG    1       -0.682  -1.023   4.423  0.00  0.00    -0.018 A 
ATOM      5  C   LIG    1       -0.693  -1.884   5.534  0.00  0.00    +0.008 A 
ATOM      6  C   LIG    1       -1.401  -1.542   6.645  0.00  0.00    +0.001 A 
ATOM      7  C   LIG    1       -2.118  -0.348   6.700  0.00  0.00    +0.001 A 
ATOM      8  C   LIG    1       -2.130   0.511   5.644  0.00  0.00    +0.008 A 
ATOM      9  C   LIG    1       -1.411   0.192   4.479  0.00  0.00    -0.014 A 
ATOM     10  C   LIG    1       -1.397   1.057   3.373  0.00  0.00    +0.054 A 
ENDROOT
BRANCH   1  11
ATOM     11  O   LIG    1       -0.682   1.547   1.184  0.00  0.00    -0.478 OA
BRANCH  11  12
ATOM     12  C   LIG    1       -0.020   1.082   0.005  0.00  0.00    +0.281 C 
BRANCH  12  13
ATOM     13  C   LIG    1        1.456   1.370   0.111  0.00  0.00    +0.346 C 
ATOM     14  O   LIG    1        1.883   1.996   1.052  0.00  0.00    -0.247 OA
BRANCH  13  15
ATOM     15  O   LIG    1        2.295   0.930  -0.840  0.00  0.00    -0.478 OA
ATOM     16  H   LIG    1        1.963   0.445  -1.569  0.00  0.00    +0.295 HD
ENDBRANCH  13  15
ENDBRANCH  12  13
BRANCH  12  17
ATOM     17  C   LIG    1       -0.593   1.801  -1.218  0.00  0.00    +0.056 C 
BRANCH  17  19
ATOM     18  C   LIG    1       -2.635   2.129  -2.621  0.00  0.00    +0.004 C 
ATOM     19  C   LIG    1       -2.062   1.410  -1.397  0.00  0.00    +0.001 C 
ENDBRANCH  17  19
ENDBRANCH  12  17
ENDBRANCH  11  12
ENDBRANCH   1  11
TORSDOF 6
