REMARK  Name = ZINC12360740
REMARK                            x       y       z     vdW  Elec       q    Type
REMARK                         _______ _______ _______ _____ _____    ______ ____
ROOT
ATOM      1  N   LIG    1        1.269   3.475   0.009  0.00  0.00    -0.324 N 
ATOM      2  H   LIG    1        0.446   3.989   0.020  0.00  0.00    +0.148 HD
ENDROOT
BRANCH   1   8
ATOM      3  C   LIG    1       -2.404   1.374   0.034  0.00  0.00    +0.001 A 
ATOM      4  C   LIG    1       -2.387  -0.018   0.026  0.00  0.00    +0.002 A 
ATOM      5  C   LIG    1       -1.211  -0.706   0.010  0.00  0.00    +0.028 A 
ATOM      6  C   LIG    1        0.002  -0.004   0.002  0.00  0.00    +0.076 A 
ATOM      7  C   LIG    1       -0.017   1.412   0.010  0.00  0.00    +0.040 A 
ATOM      8  C   LIG    1        1.222   2.098   0.002  0.00  0.00    +0.130 A 
ATOM      9  N   LIG    1        2.336   1.378  -0.013  0.00  0.00    -0.220 NA
ATOM     10  C   LIG    1        2.304   0.055  -0.020  0.00  0.00    +0.223 A 
ATOM     11  N   LIG    1        1.187  -0.632  -0.013  0.00  0.00    -0.235 NA
ATOM     12  C   LIG    1       -1.242   2.089   0.031  0.00  0.00    +0.013 A 
ENDBRANCH   1   8
BRANCH   1  13
ATOM     13  C   LIG    1        2.562   4.164   0.000  0.00  0.00    +0.138 C 
BRANCH  13  14
ATOM     14  C   LIG    1        2.337   5.655   0.011  0.00  0.00    -0.027 A 
ATOM     15  C   LIG    1        2.228   6.344  -1.182  0.00  0.00    +0.009 A 
ATOM     16  C   LIG    1        2.016   7.710  -1.178  0.00  0.00    +0.050 A 
ATOM     17  C   LIG    1        1.925   8.394   0.024  0.00  0.00    +0.166 A 
ATOM     18  C   LIG    1        2.039   7.700   1.226  0.00  0.00    +0.167 A 
ATOM     19  O   LIG    1        1.915   8.587   2.256  0.00  0.00    -0.453 OA
ATOM     20  C   LIG    1        2.132   9.886   1.672  0.00  0.00    +0.466 C 
ATOM     21  O   LIG    1        1.728   9.716   0.301  0.00  0.00    -0.453 OA
ATOM     22  C   LIG    1        2.246   6.330   1.214  0.00  0.00    +0.054 A 
ENDBRANCH  13  14
ENDBRANCH   1  13
TORSDOF 3
