REMARK  Name = ZINC11616927
REMARK                            x       y       z     vdW  Elec       q    Type
REMARK                         _______ _______ _______ _____ _____    ______ ____
ROOT
ATOM      1  C   UNK A  0        8.915   5.374  -1.275  0.00  0.00    +0.037 C 
ENDROOT
BRANCH   1   2
ATOM      2  C   UNK A  0        7.458   5.005  -1.175  0.00  0.00    -0.043 A 
ATOM      3  C   UNK A  0        6.764   4.623  -2.310  0.00  0.00    +0.005 A 
ATOM      4  C   UNK A  0        5.430   4.284  -2.225  0.00  0.00    +0.013 A 
ATOM      5  C   UNK A  0        4.780   4.325  -0.991  0.00  0.00    +0.037 A 
ATOM      6  C   UNK A  0        5.484   4.716   0.149  0.00  0.00    +0.013 A 
ATOM      7  C   UNK A  0        6.819   5.048   0.052  0.00  0.00    +0.005 A 
BRANCH   5   8
ATOM      8  C   UNK A  0        3.350   3.963  -0.892  0.00  0.00    +0.245 C 
ATOM      9  N   GLU A  1        2.724   4.005   0.301  0.00  0.00    -0.298 N 
ATOM     10  H   GLU A  1        3.213   4.272   1.095  0.00  0.00    +0.150 HD
ATOM     11  O   UNK A  0        2.738   3.628  -1.888  0.00  0.00    -0.270 OA
BRANCH   9  12
ATOM     12  CA  GLU A  1        1.308   3.646   0.398  0.00  0.00    +0.182 C 
BRANCH  12  13
ATOM     13  C   GLU A  1        1.177   2.151   0.544  0.00  0.00    +0.325 C 
ATOM     14  O   GLU A  1        2.166   1.458   0.565  0.00  0.00    -0.249 OA
BRANCH  13  15
ATOM     15  OXT GLU A  1       -0.038   1.591   0.651  0.00  0.00    -0.479 OA
ATOM     16  HXT GLU A  1       -0.805   2.129   0.635  0.00  0.00    +0.295 HD
ENDBRANCH  13  15
ENDBRANCH  12  13
BRANCH  12  17
ATOM     17  CB  GLU A  1        0.690   4.333   1.618  0.00  0.00    +0.045 C 
BRANCH  17  18
ATOM     18  CG  GLU A  1        0.710   5.849   1.413  0.00  0.00    +0.123 C 
BRANCH  18  19
ATOM     19  CD  GLU A  1        0.102   6.526   2.614  0.00  0.00    +0.305 C 
ATOM     20  OE1 GLU A  1       -0.306   5.864   3.539  0.00  0.00    -0.251 OA
BRANCH  19  21
ATOM     21  OE2 GLU A  1        0.013   7.865   2.656  0.00  0.00    -0.481 OA
ATOM     22  HE2 GLU A  1        0.329   8.378   1.939  0.00  0.00    +0.295 HD
ENDBRANCH  19  21
ENDBRANCH  18  19
ENDBRANCH  17  18
ENDBRANCH  12  17
ENDBRANCH   9  12
ENDBRANCH   5   8
ENDBRANCH   1   2
BRANCH   1  23
ATOM     23  C   UNK A  0        9.109   6.818  -0.806  0.00  0.00    +0.097 C 
BRANCH  23  25
ATOM     24  C   UNK A  0       11.622   7.545  -1.203  0.00  0.00    +0.004 C 
ATOM     25  C   UNK A  0       10.507   7.223  -1.027  0.00  0.00    -0.105 C 
ENDBRANCH  23  25
ENDBRANCH   1  23
BRANCH   1  26
ATOM     26  C   UNK A  0        9.742   4.436  -0.393  0.00  0.00    +0.066 C 
BRANCH  26  27
ATOM     27  C   UNK A  0        9.660   3.034  -0.937  0.00  0.00    +0.061 A 
ATOM     28  C   UNK A  0       10.522   2.639  -1.960  0.00  0.00    +0.136 A 
ATOM     29  N   UNK A  0       10.474   1.418  -2.448  0.00  0.00    -0.232 NA
ATOM     30  C   UNK A  0        9.581   0.550  -1.965  0.00  0.00    +0.185 A 
ATOM     31  C   UNK A  0        8.704   0.958  -0.929  0.00  0.00    +0.148 A 
ATOM     32  C   UNK A  0        7.740  -0.021  -0.425  0.00  0.00    +0.149 A 
ATOM     33  N   UNK A  0        7.747  -1.230  -0.969  0.00  0.00    -0.198 NA
ATOM     34  C   UNK A  0        8.600  -1.545  -1.940  0.00  0.00    +0.216 A 
ATOM     35  N   UNK A  0        9.487  -0.702  -2.430  0.00  0.00    -0.193 NA
ATOM     36  N   UNK A  0        8.773   2.194  -0.446  0.00  0.00    -0.243 NA
BRANCH  32  37
ATOM     37  N   UNK A  0        6.856   0.302   0.581  0.00  0.00    -0.341 N 
ATOM     38  H   UNK A  0        6.224  -0.360   0.902  0.00  0.00    +0.144 HD
ATOM     39  H   UNK A  0        6.865   1.191   0.968  0.00  0.00    +0.144 HD
ENDBRANCH  32  37
BRANCH  34  40
ATOM     40  N   UNK A  0        8.553  -2.823  -2.462  0.00  0.00    -0.327 N 
ATOM     41  H   UNK A  0        7.910  -3.464  -2.121  0.00  0.00    +0.145 HD
ATOM     42  H   UNK A  0        9.164  -3.080  -3.171  0.00  0.00    +0.145 HD
ENDBRANCH  34  40
ENDBRANCH  26  27
ENDBRANCH   1  26
TORSDOF 15
