REMARK  Name = ZINC12368102
REMARK                            x       y       z     vdW  Elec       q    Type
REMARK                         _______ _______ _______ _____ _____    ______ ____
ROOT
ATOM      1  C   LIG    1       -1.249   8.220  -2.310  0.00  0.00    +0.090 C 
ATOM      2  C   LIG    1       -0.711   6.936  -1.733  0.00  0.00    +0.143 A 
ATOM      3  C   LIG    1       -1.420   5.986  -1.048  0.00  0.00    +0.064 A 
ATOM      4  C   LIG    1       -0.392   4.974  -0.729  0.00  0.00    +0.125 A 
ATOM      5  N   LIG    1        0.718   5.435  -1.250  0.00  0.00    -0.077 NA
ATOM      6  O   LIG    1        0.553   6.499  -1.796  0.00  0.00    -0.359 OA
ENDROOT
BRANCH   4   7
ATOM      7  C   LIG    1       -0.578   3.704   0.014  0.00  0.00    +0.041 A 
ATOM      8  C   LIG    1       -1.121   3.719   1.300  0.00  0.00    +0.052 A 
ATOM      9 CL   LIG    1       -1.580   5.223   2.033  0.00  0.00    -0.083 Cl
ATOM     10  C   LIG    1       -1.292   2.533   1.987  0.00  0.00    +0.021 A 
ATOM     11  C   LIG    1       -0.927   1.333   1.403  0.00  0.00    +0.003 A 
ATOM     12  C   LIG    1       -0.384   1.313   0.131  0.00  0.00    +0.021 A 
ATOM     13  C   LIG    1       -0.212   2.491  -0.569  0.00  0.00    +0.052 A 
ATOM     14 CL   LIG    1        0.463   2.463  -2.168  0.00  0.00    -0.083 Cl
ENDBRANCH   4   7
BRANCH   3  15
ATOM     15  C   LIG    1       -2.854   5.977  -0.708  0.00  0.00    +0.143 C 
ATOM     16  N   LIG    1       -3.607   6.979  -1.046  0.00  0.00    -0.190 NA
BRANCH  16  17
ATOM     17  N   LIG    1       -4.991   6.919  -0.833  0.00  0.00    -0.235 N 
ATOM     18  H   LIG    1       -5.386   6.129  -0.430  0.00  0.00    +0.174 HD
BRANCH  17  19
ATOM     19  C   LIG    1       -5.799   7.991  -1.199  0.00  0.00    +0.088 A 
ATOM     20  C   LIG    1       -5.344   9.305  -1.075  0.00  0.00    +0.083 A 
ATOM     21 CL   LIG    1       -3.755   9.633  -0.458  0.00  0.00    -0.080 Cl
ATOM     22  C   LIG    1       -6.175  10.340  -1.454  0.00  0.00    +0.132 A 
ATOM     23  N   LIG    1       -7.387  10.100  -1.919  0.00  0.00    -0.260 NA
ATOM     24  C   LIG    1       -7.856   8.872  -2.046  0.00  0.00    +0.132 A 
ATOM     25  C   LIG    1       -7.087   7.781  -1.694  0.00  0.00    +0.083 A 
ATOM     26 CL   LIG    1       -7.713   6.171  -1.866  0.00  0.00    -0.080 Cl
ENDBRANCH  17  19
ENDBRANCH  16  17
ENDBRANCH   3  15
TORSDOF 4
