REMARK  Name = ZINC12405386
REMARK                            x       y       z     vdW  Elec       q    Type
REMARK                         _______ _______ _______ _____ _____    ______ ____
ROOT
ATOM      1  N   LIG    1       -1.413  -1.998   0.005  0.00  0.00    -0.276 N 
ATOM      2  C   LIG    1       -1.410  -2.684  -1.200  0.00  0.00    +0.169 A 
ATOM      3  C   LIG    1       -1.390  -4.075  -1.180  0.00  0.00    +0.149 A 
ATOM      4  N   LIG    1       -1.391  -4.486  -2.499  0.00  0.00    -0.332 N 
ATOM      5  C   LIG    1       -1.411  -3.359  -3.262  0.00  0.00    +0.141 A 
ATOM      6  H   LIG    1       -1.381  -5.401  -2.819  0.00  0.00    +0.168 HD
ATOM      7  C   LIG    1       -1.375  -4.744   0.062  0.00  0.00    +0.282 A 
ATOM      8  N   LIG    1       -1.380  -4.020   1.201  0.00  0.00    -0.259 N 
ATOM      9  O   LIG    1       -1.358  -5.961   0.106  0.00  0.00    -0.265 OA
ATOM     10  N   LIG    1       -1.422  -2.300  -2.476  0.00  0.00    -0.210 NA
ATOM     11  C   LIG    1       -1.393  -2.677   1.167  0.00  0.00    +0.334 A 
ATOM     12  O   LIG    1       -1.392  -2.058   2.214  0.00  0.00    -0.246 OA
ENDROOT
BRANCH   5  13
ATOM     13  C   LIG    1       -1.419  -3.327  -4.740  0.00  0.00    +0.017 A 
ATOM     14  C   LIG    1       -1.411  -4.519  -5.467  0.00  0.00    +0.013 A 
ATOM     15  C   LIG    1       -1.419  -4.482  -6.846  0.00  0.00    +0.029 A 
ATOM     16  C   LIG    1       -1.433  -3.267  -7.508  0.00  0.00    +0.106 A 
ATOM     17  C   LIG    1       -1.441  -2.082  -6.794  0.00  0.00    +0.029 A 
ATOM     18  C   LIG    1       -1.439  -2.105  -5.415  0.00  0.00    +0.013 A 
BRANCH  16  19
ATOM     19  S   LIG    1       -1.442  -3.229  -9.270  0.00  0.00    +0.061 S 
ATOM     20  O   LIG    1       -0.882  -4.460  -9.706  0.00  0.00    -0.153 OA
ATOM     21  O   LIG    1       -0.905  -1.970  -9.652  0.00  0.00    -0.153 OA
BRANCH  19  22
ATOM     22  N   LIG    1       -3.026  -3.234  -9.752  0.00  0.00    -0.181 NA
ATOM     23  C   LIG    1       -3.739  -1.967  -9.938  0.00  0.00    +0.131 C 
BRANCH  22  24
ATOM     24  C   LIG    1       -3.715  -4.504  -9.993  0.00  0.00    +0.090 C 
BRANCH  24  25
ATOM     25  C   LIG    1       -4.478  -4.917  -8.733  0.00  0.00    -0.062 C 
BRANCH  25  26
ATOM     26  N   LIG    1       -5.169  -6.191  -8.974  0.00  0.00    +0.377 N 
ATOM     27  H   LIG    1       -5.756  -6.106  -9.790  0.00  0.00    -0.083 HD
ATOM     28  C   LIG    1       -5.996  -6.528  -7.808  0.00  0.00    -0.097 C 
ATOM     29  C   LIG    1       -4.177  -7.252  -9.193  0.00  0.00    -0.097 C 
ENDBRANCH  25  26
ENDBRANCH  24  25
ENDBRANCH  22  24
ENDBRANCH  19  22
ENDBRANCH  16  19
ENDBRANCH   5  13
BRANCH   1  30
ATOM     30  C   LIG    1       -1.433  -0.534   0.013  0.00  0.00    +0.128 C 
BRANCH  30  32
ATOM     31  C   LIG    1       -0.019   1.526   0.010  0.00  0.00    +0.005 C 
ATOM     32  C   LIG    1        0.002  -0.004   0.002  0.00  0.00    +0.018 C 
ENDBRANCH  30  32
ENDBRANCH   1  30
BRANCH   8  33
ATOM     33  C   LIG    1       -1.365  -4.709   2.494  0.00  0.00    +0.130 C 
BRANCH  33  34
ATOM     34  C   LIG    1        0.083  -4.930   2.937  0.00  0.00    +0.018 C 
ATOM     35  C   LIG    1        0.098  -5.649   4.287  0.00  0.00    +0.005 C 
ENDBRANCH  33  34
ENDBRANCH   8  33
TORSDOF 10
