REMARK  Name = ZINC12959788
REMARK                            x       y       z     vdW  Elec       q    Type
REMARK                         _______ _______ _______ _____ _____    ______ ____
ROOT
ATOM      1  C   LIG    1        4.953  -2.717  -0.061  0.00  0.00    +0.130 C 
ATOM      2  N   LIG    1        4.975  -4.019  -0.068  0.00  0.00    -0.189 NA
ENDROOT
BRANCH   1   4
ATOM      3  C   LIG    1        3.692  -0.680  -0.037  0.00  0.00    +0.009 C 
ATOM      4  C   LIG    1        3.714  -2.028  -0.045  0.00  0.00    +0.022 C 
BRANCH   3   8
ATOM      5  C   LIG    1       -0.017   1.380   0.010  0.00  0.00    +0.000 A 
ATOM      6  C   LIG    1        1.168   2.095   0.002  0.00  0.00    +0.001 A 
ATOM      7  C   LIG    1        2.377   1.433  -0.013  0.00  0.00    +0.008 A 
ATOM      8  C   LIG    1        2.405   0.035  -0.021  0.00  0.00    -0.025 A 
ATOM      9  C   LIG    1        1.203  -0.681  -0.013  0.00  0.00    +0.008 A 
ATOM     10  C   LIG    1        0.002  -0.004   0.002  0.00  0.00    +0.001 A 
ENDBRANCH   3   8
ENDBRANCH   1   4
BRANCH   2  11
ATOM     11  N   LIG    1        3.773  -4.739  -0.060  0.00  0.00    -0.219 N 
ATOM     12  H   LIG    1        2.926  -4.269  -0.049  0.00  0.00    +0.176 HD
BRANCH  11  13
ATOM     13  C   LIG    1        3.796  -6.087  -0.068  0.00  0.00    +0.147 C 
ATOM     14  S   LIG    1        2.328  -6.968  -0.058  0.00  0.00    -0.017 S 
BRANCH  13  15
ATOM     15  N   LIG    1        4.974  -6.742  -0.083  0.00  0.00    -0.339 N 
ATOM     16  H   LIG    1        4.990  -7.711  -0.088  0.00  0.00    +0.144 HD
ATOM     17  H   LIG    1        5.806  -6.243  -0.088  0.00  0.00    +0.144 HD
ENDBRANCH  13  15
ENDBRANCH  11  13
ENDBRANCH   2  11
TORSDOF 5
