REMARK  Name = ZINC12068670
REMARK                            x       y       z     vdW  Elec       q    Type
REMARK                         _______ _______ _______ _____ _____    ______ ____
ROOT
ATOM      1  C   LIG    1        4.686  -5.227   2.225  0.00  0.00    -0.077 C 
ENDROOT
BRANCH   1   2
ATOM      2  N   LIG    1        5.910  -6.035   2.144  0.00  0.00    +0.382 N 
ATOM      3  H   LIG    1        6.358  -5.875   1.254  0.00  0.00    -0.082 HD
ATOM      4  C   LIG    1        5.564  -7.457   2.266  0.00  0.00    -0.060 C 
ATOM      5  C   LIG    1        6.824  -8.306   2.067  0.00  0.00    +0.086 C 
ATOM      6  N   LIG    1        7.851  -7.847   3.014  0.00  0.00    -0.331 N 
ATOM      7  C   LIG    1        8.145  -6.406   3.074  0.00  0.00    +0.086 C 
ATOM      8  C   LIG    1        6.823  -5.647   3.226  0.00  0.00    -0.060 C 
BRANCH   6   9
ATOM      9  C   LIG    1        8.530  -8.754   3.836  0.00  0.00    +0.072 A 
ATOM     10  C   LIG    1        9.711  -9.337   3.401  0.00  0.00    +0.027 A 
ATOM     11  C   LIG    1       10.380 -10.233   4.215  0.00  0.00    +0.002 A 
ATOM     12  C   LIG    1        9.874 -10.550   5.462  0.00  0.00    +0.004 A 
ATOM     13  C   LIG    1        8.697  -9.973   5.902  0.00  0.00    +0.047 A 
ATOM     14  C   LIG    1        8.024  -9.070   5.095  0.00  0.00    +0.141 A 
BRANCH  14  15
ATOM     15  O   LIG    1        6.868  -8.498   5.529  0.00  0.00    -0.493 OA
ATOM     16  C   LIG    1        6.409  -8.869   6.830  0.00  0.00    +0.277 C 
ENDBRANCH  14  15
ENDBRANCH   6   9
ENDBRANCH   1   2
BRANCH   1  17
ATOM     17  C   LIG    1        3.787  -5.540   1.028  0.00  0.00    -0.002 C 
BRANCH  17  18
ATOM     18  C   LIG    1        2.512  -4.699   1.113  0.00  0.00    +0.104 C 
BRANCH  18  19
ATOM     19  N   LIG    1        1.651  -4.999  -0.034  0.00  0.00    -0.190 NA
ATOM     20  H   LIG    1        2.011  -5.473  -0.800  0.00  0.00    +0.148 HD
BRANCH  19  21
ATOM     21  S   LIG    1        0.063  -4.530  -0.023  0.00  0.00    +0.058 S 
ATOM     22  O   LIG    1       -0.490  -4.937  -1.267  0.00  0.00    -0.153 OA
ATOM     23  O   LIG    1       -0.476  -4.950   1.223  0.00  0.00    -0.153 OA
BRANCH  21  28
ATOM     24  C   LIG    1       -0.018   1.503   0.010  0.00  0.00    +0.044 C 
ATOM     25  C   LIG    1        0.002  -0.004   0.002  0.00  0.00    -0.050 A 
ATOM     26  C   LIG    1        0.006  -0.689  -1.199  0.00  0.00    +0.005 A 
ATOM     27  C   LIG    1        0.025  -2.071  -1.206  0.00  0.00    +0.029 A 
ATOM     28  C   LIG    1        0.040  -2.768  -0.013  0.00  0.00    +0.105 A 
ATOM     29  C   LIG    1        0.037  -2.084   1.188  0.00  0.00    +0.029 A 
ATOM     30  C   LIG    1        0.023  -0.702   1.195  0.00  0.00    +0.005 A 
ENDBRANCH  21  28
ENDBRANCH  19  21
ENDBRANCH  18  19
ENDBRANCH  17  18
ENDBRANCH   1  17
TORSDOF 8
