REMARK  Name = ZINC12494625
REMARK                            x       y       z     vdW  Elec       q    Type
REMARK                         _______ _______ _______ _____ _____    ______ ____
ROOT
ATOM      1  C   LIG    1       -2.207   4.096   7.153  0.00  0.00    -0.074 C 
ATOM      2  C   LIG    1       -3.591   4.313   7.709  0.00  0.00    +0.039 C 
ATOM      3  C   LIG    1       -1.162   4.551   7.800  0.00  0.00    +0.000 C 
ENDROOT
BRANCH   1   4
ATOM      4  C   LIG    1       -2.025   3.356   5.853  0.00  0.00    +0.034 C 
BRANCH   4   5
ATOM      5  C   LIG    1       -1.993   1.850   6.124  0.00  0.00    +0.031 C 
BRANCH   5   8
ATOM      6  C   LIG    1       -0.835   0.247   4.693  0.00  0.00    -0.076 C 
ATOM      7  C   LIG    1        0.163   0.062   5.807  0.00  0.00    +0.039 C 
ATOM      8  C   LIG    1       -1.811   1.110   4.824  0.00  0.00    -0.028 C 
BRANCH   6   9
ATOM      9  C   LIG    1       -0.709  -0.562   3.427  0.00  0.00    +0.034 C 
BRANCH   9  10
ATOM     10  C   LIG    1        0.265   0.132   2.473  0.00  0.00    +0.031 C 
BRANCH  10  14
ATOM     11  C   LIG    1       -0.093   1.368  -0.035  0.00  0.00    +0.038 C 
ATOM     12  C   LIG    1        0.171  -0.113   0.046  0.00  0.00    -0.080 C 
ATOM     13  C   LIG    1        0.182  -0.947  -1.210  0.00  0.00    +0.038 C 
ATOM     14  C   LIG    1        0.391  -0.677   1.208  0.00  0.00    -0.028 C 
ENDBRANCH  10  14
ENDBRANCH   9  10
ENDBRANCH   6   9
ENDBRANCH   5   8
ENDBRANCH   4   5
ENDBRANCH   1   4
BRANCH   3  15
ATOM     15  C   LIG    1       -1.344   5.291   9.099  0.00  0.00    +0.199 C 
BRANCH  15  16
ATOM     16  O   LIG    1       -0.395   4.815  10.056  0.00  0.00    -0.282 OA
BRANCH  16  17
ATOM     17  P   LIG    1       -0.303   5.385  11.559  0.00  0.00    +0.484 P 
ATOM     18  O   LIG    1       -0.124   6.919  11.517  0.00  0.00    -0.227 OA
BRANCH  17  19
ATOM     19  O   LIG    1       -1.601   5.039  12.322  0.00  0.00    -0.302 OA
ATOM     20  H   LIG    1       -2.359   5.441  11.869  0.00  0.00    +0.222 HD
ENDBRANCH  17  19
BRANCH  17  21
ATOM     21  O   LIG    1        0.955   4.718  12.309  0.00  0.00    -0.186 OA
BRANCH  21  22
ATOM     22  P   LIG    1        1.764   5.062  13.659  0.00  0.00    +0.481 P 
ATOM     23  O   LIG    1        0.763   5.376  14.793  0.00  0.00    -0.227 OA
BRANCH  22  24
ATOM     24  O   LIG    1        2.670   6.290  13.417  0.00  0.00    -0.302 OA
ATOM     25  H   LIG    1        2.123   7.050  13.165  0.00  0.00    +0.222 HD
ENDBRANCH  22  24
BRANCH  22  26
ATOM     26  O   LIG    1        2.671   3.799  14.077  0.00  0.00    -0.302 OA
ATOM     27  H   LIG    1        3.187   3.936  14.884  0.00  0.00    +0.222 HD
ENDBRANCH  22  26
ENDBRANCH  21  22
ENDBRANCH  17  21
ENDBRANCH  16  17
ENDBRANCH  15  16
ENDBRANCH   3  15
TORSDOF 14
