REMARK  Name = ZINC12504479
REMARK                            x       y       z     vdW  Elec       q    Type
REMARK                         _______ _______ _______ _____ _____    ______ ____
ROOT
ATOM      1  C   LIG    1        0.764   5.641   0.022  0.00  0.00    +0.114 A 
ATOM      2  N   LIG    1        2.120   5.543   0.009  0.00  0.00    -0.341 N 
ATOM      3  C   LIG    1        2.432   4.205  -0.000  0.00  0.00    +0.075 A 
ATOM      4  C   LIG    1        3.695   3.473  -0.016  0.00  0.00    +0.008 A 
ATOM      5  C   LIG    1        4.918   4.155  -0.024  0.00  0.00    +0.013 A 
ATOM      6  C   LIG    1        6.089   3.457  -0.038  0.00  0.00    +0.039 A 
ATOM      7  C   LIG    1        6.088   2.064  -0.045  0.00  0.00    +0.124 A 
ATOM      8  F   LIG    1        7.260   1.394  -0.060  0.00  0.00    -0.205 F 
ATOM      9  C   LIG    1        4.902   1.365  -0.037  0.00  0.00    +0.047 A 
ATOM     10  C   LIG    1        3.687   2.060  -0.023  0.00  0.00    -0.000 A 
ATOM     11  C   LIG    1        2.412   1.342  -0.014  0.00  0.00    +0.056 A 
ATOM     12  C   LIG    1        1.205   2.060   0.002  0.00  0.00    +0.017 A 
ATOM     13  C   LIG    1       -0.016   1.343   0.009  0.00  0.00    +0.028 A 
ATOM     14  C   LIG    1        0.002  -0.004   0.002  0.00  0.00    +0.086 A 
ATOM     15  N   LIG    1        1.174  -0.701  -0.013  0.00  0.00    -0.329 N 
ATOM     16  H   LIG    1        1.149  -1.671  -0.017  0.00  0.00    +0.168 HD
ATOM     17  C   LIG    1        2.366  -0.073  -0.021  0.00  0.00    +0.257 A 
ATOM     18  O   LIG    1        3.400  -0.720  -0.034  0.00  0.00    -0.267 OA
ATOM     19  C   LIG    1        1.220   3.521   0.008  0.00  0.00    +0.098 A 
ATOM     20  H   LIG    1        2.769   6.304   0.006  0.00  0.00    +0.167 HD
ATOM     21  N   LIG    1        0.239   4.449   0.021  0.00  0.00    -0.231 NA
ENDROOT
BRANCH   1  23
ATOM     22  C   LIG    1        0.031   7.566  -1.357  0.00  0.00    +0.018 C 
ATOM     23  C   LIG    1       -0.013   6.932   0.034  0.00  0.00    +0.020 C 
ATOM     24  C   LIG    1        0.608   7.891   1.052  0.00  0.00    +0.018 C 
ATOM     25  C   LIG    1       -1.466   6.649   0.420  0.00  0.00    +0.018 C 
ENDBRANCH   1  23
TORSDOF 1
