REMARK  Name = ZINC12360812
REMARK                            x       y       z     vdW  Elec       q    Type
REMARK                         _______ _______ _______ _____ _____    ______ ____
ROOT
ATOM      1  C   UNK A  1       -3.534  -2.137   5.104  0.00  0.00    +0.001 A 
ATOM      2  C   UNK A  1       -3.254  -0.922   5.707  0.00  0.00    +0.002 A 
ATOM      3  C   UNK A  1       -2.934   0.209   4.977  0.00  0.00    +0.026 A 
ATOM      4  C   UNK A  1       -2.903   0.078   3.590  0.00  0.00    +0.047 A 
ATOM      5  C   UNK A  1       -3.189  -1.169   2.978  0.00  0.00    +0.003 A 
ATOM      6  C   UNK A  1       -3.066  -0.952   1.550  0.00  0.00    -0.015 A 
ATOM      7  C   UNK A  1       -2.733   0.345   1.376  0.00  0.00    +0.046 A 
ATOM      8  C   UNK A  1       -2.513   0.975   0.019  0.00  0.00    +0.154 C 
ATOM      9  N   UNK A  1       -2.443  -0.122  -0.970  0.00  0.00    -0.276 N 
ATOM     10  C   UNK A  1       -3.446  -1.183  -0.884  0.00  0.00    +0.167 C 
ATOM     11  C   UNK A  1       -3.354  -2.136  -2.032  0.00  0.00    +0.234 C 
ATOM     12  N   GLY A  2       -2.405  -2.094  -2.965  0.00  0.00    -0.305 N 
ATOM     13  H   GLY A  2       -2.426  -2.761  -3.669  0.00  0.00    +0.149 HD
ATOM     14  CA  GLY A  2       -1.339  -1.105  -2.990  0.00  0.00    +0.200 C 
ATOM     15  O   UNK A  1       -4.197  -3.003  -2.119  0.00  0.00    -0.274 OA
ATOM     16  C   GLY A  2       -1.478  -0.102  -1.892  0.00  0.00    +0.234 C 
ATOM     17  O   GLY A  2       -0.658   0.789  -1.833  0.00  0.00    -0.274 OA
ATOM     18  C   UNK A  1       -3.258  -1.947   0.434  0.00  0.00    +0.069 C 
ATOM     19  N   UNK A  1       -2.633   0.968   2.591  0.00  0.00    -0.356 N 
ATOM     20  H   UNK A  1       -2.403   1.901   2.723  0.00  0.00    +0.166 HD
ATOM     21  C   UNK A  1       -3.511  -2.296   3.740  0.00  0.00    +0.010 A 
ENDROOT
BRANCH   8  22
ATOM     22  C   UNK A  1       -1.220   1.749   0.017  0.00  0.00    -0.018 A 
ATOM     23  C   UNK A  1       -0.058   1.153   0.471  0.00  0.00    +0.009 A 
ATOM     24  C   UNK A  1        1.131   1.857   0.466  0.00  0.00    +0.050 A 
ATOM     25  C   UNK A  1        1.161   3.165   0.011  0.00  0.00    +0.166 A 
ATOM     26  C   UNK A  1       -0.011   3.768  -0.441  0.00  0.00    +0.167 A 
ATOM     27  O   UNK A  1        0.277   5.044  -0.832  0.00  0.00    -0.453 OA
ATOM     28  C   UNK A  1        1.707   5.081  -0.999  0.00  0.00    +0.466 C 
ATOM     29  O   UNK A  1        2.183   4.064  -0.098  0.00  0.00    -0.453 OA
ATOM     30  C   UNK A  1       -1.200   3.056  -0.432  0.00  0.00    +0.055 A 
ENDBRANCH   8  22
TORSDOF 1
