REMARK  Name = ZINC09045952
REMARK                            x       y       z     vdW  Elec       q    Type
REMARK                         _______ _______ _______ _____ _____    ______ ____
ROOT
ATOM      1  C   LIG    1        4.935  -2.716  -0.060  0.00  0.00    +0.018 C 
ATOM      2  C   LIG    1        4.962  -4.106   0.037  0.00  0.00    +0.096 C 
ATOM      3  C   LIG    1        6.233  -4.846   0.140  0.00  0.00    +0.256 C 
ATOM      4  O   LIG    1        7.302  -4.263   0.141  0.00  0.00    -0.270 OA
ATOM      5  N   LIG    1        6.173  -6.192   0.231  0.00  0.00    -0.234 N 
ATOM      6  H   LIG    1        6.994  -6.703   0.299  0.00  0.00    +0.159 HD
ATOM      7  C   LIG    1        4.995  -6.833   0.229  0.00  0.00    +0.333 C 
ATOM      8  O   LIG    1        5.000  -8.049   0.313  0.00  0.00    -0.250 OA
ATOM      9  N   LIG    1        3.821  -6.215   0.139  0.00  0.00    -0.127 NA
ATOM     10  C   LIG    1        3.726  -4.898   0.049  0.00  0.00    +0.218 C 
ENDROOT
BRANCH   1  12
ATOM     11  C   LIG    1        3.680  -0.694  -0.286  0.00  0.00    +0.008 C 
ATOM     12  C   LIG    1        3.725  -2.054  -0.296  0.00  0.00    +0.001 C 
BRANCH  11  16
ATOM     13  C   LIG    1        0.014   1.310  -1.001  0.00  0.00    +0.000 A 
ATOM     14  C   LIG    1        1.163   2.043  -0.757  0.00  0.00    +0.001 A 
ATOM     15  C   LIG    1        2.359   1.400  -0.523  0.00  0.00    +0.008 A 
ATOM     16  C   LIG    1        2.411  -0.000  -0.533  0.00  0.00    -0.025 A 
ATOM     17  C   LIG    1        1.244  -0.734  -0.781  0.00  0.00    +0.008 A 
ATOM     18  C   LIG    1        0.056  -0.074  -1.013  0.00  0.00    +0.001 A 
ENDBRANCH  11  16
ENDBRANCH   1  12
BRANCH  10  19
ATOM     19  O   LIG    1        2.520  -4.297  -0.035  0.00  0.00    -0.493 OA
ATOM     20  H   LIG    1        2.465  -3.364  -0.099  0.00  0.00    +0.294 HD
ENDBRANCH  10  19
TORSDOF 3
