REMARK  Name = ZINC12410242
REMARK                            x       y       z     vdW  Elec       q    Type
REMARK                         _______ _______ _______ _____ _____    ______ ____
ROOT
ATOM      1  N   LIG    1        1.214  -0.686  -0.013  0.00  0.00    -0.317 N 
ATOM      2  C   LIG    1        1.248  -2.157  -0.028  0.00  0.00    +0.091 C 
ATOM      3  C   LIG    1        2.242  -2.601  -1.116  0.00  0.00    -0.054 C 
ATOM      4  C   LIG    1        1.827  -1.921  -2.440  0.00  0.00    -0.016 C 
ATOM      5  C   LIG    1        2.572  -0.571  -2.445  0.00  0.00    -0.016 C 
ATOM      6  C   LIG    1        3.373  -0.553  -1.124  0.00  0.00    -0.054 C 
ATOM      7  N   LIG    1        3.561  -2.002  -0.777  0.00  0.00    +0.385 N 
ATOM      8  H   LIG    1        4.291  -2.410  -1.341  0.00  0.00    -0.085 HD
ATOM      9  H   LIG    1        3.761  -2.121   0.205  0.00  0.00    -0.085 HD
ATOM     10  C   LIG    1        2.489   0.049  -0.022  0.00  0.00    +0.091 C 
ENDROOT
BRANCH   1  17
ATOM     11  C   LIG    1       -0.024   1.373   0.220  0.00  0.00    +0.048 A 
ATOM     12  C   LIG    1       -1.256   2.007   0.220  0.00  0.00    +0.045 A 
ATOM     13  C   LIG    1       -2.389   1.232   0.003  0.00  0.00    +0.152 A 
ATOM     14  N   LIG    1       -2.271  -0.067  -0.195  0.00  0.00    -0.136 NA
ATOM     15  N   LIG    1       -1.132  -0.659  -0.196  0.00  0.00    -0.133 NA
ATOM     16 CL   LIG    1       -3.958   1.973  -0.007  0.00  0.00    -0.060 Cl
ATOM     17  C   LIG    1        0.002  -0.004   0.002  0.00  0.00    +0.144 A 
ENDBRANCH   1  17
TORSDOF 1
