REMARK  Name = ZINC12336533
REMARK                            x       y       z     vdW  Elec       q    Type
REMARK                         _______ _______ _______ _____ _____    ______ ____
ROOT
ATOM      1  C   LIG    1        1.159   1.776   0.001  0.00  0.00    +0.002 A 
ATOM      2  C   LIG    1       -0.013   1.076   0.008  0.00  0.00    +0.011 A 
ATOM      3  C   LIG    1       -1.232   1.761   0.017  0.00  0.00    +0.021 A 
ATOM      4  C   LIG    1       -2.630   1.341   0.034  0.00  0.00    +0.142 A 
ATOM      5  N   LIG    1       -3.368   2.414   0.047  0.00  0.00    -0.181 NA
ATOM      6  N   LIG    1       -2.558   3.554   0.045  0.00  0.00    -0.276 N 
ATOM      7  H   LIG    1       -2.886   4.499   0.053  0.00  0.00    +0.189 HD
ATOM      8  C   LIG    1       -1.243   3.169   0.030  0.00  0.00    +0.084 A 
ATOM      9  C   LIG    1       -0.034   3.863   0.023  0.00  0.00    +0.066 A 
ATOM     10 CL   LIG    1       -0.026   5.599   0.032  0.00  0.00    -0.081 Cl
ATOM     11  C   LIG    1        1.153   3.166   0.008  0.00  0.00    +0.022 A 
ENDROOT
TORSDOF 0
