REMARK  Name = ZINC12652570
REMARK                            x       y       z     vdW  Elec       q    Type
REMARK                         _______ _______ _______ _____ _____    ______ ____
ROOT
ATOM      1  N   LIG    1        0.127  -0.635   3.442  0.00  0.00    -0.275 N 
ATOM      2  H   LIG    1       -0.029  -0.160   2.611  0.00  0.00    +0.258 HD
ENDROOT
BRANCH   1   4
ATOM      3  N   LIG    1        0.055  -2.674   2.325  0.00  0.00    -0.032 NA
ATOM      4  C   LIG    1        0.146  -2.004   3.455  0.00  0.00    +0.387 C 
BRANCH   3  11
ATOM      5  C   LIG    1        2.548  -0.664  -1.218  0.00  0.00    +0.066 C 
ATOM      6  C   LIG    1        1.233  -1.033  -0.582  0.00  0.00    +0.045 A 
ATOM      7  C   LIG    1        0.037  -0.699  -1.199  0.00  0.00    +0.046 A 
ATOM      8  C   LIG    1       -1.153  -1.057  -0.583  0.00  0.00    +0.045 A 
ATOM      9  C   LIG    1       -2.474  -0.713  -1.220  0.00  0.00    +0.066 C 
ATOM     10  N   LIG    1       -1.115  -1.702   0.570  0.00  0.00    -0.201 NA
ATOM     11  C   LIG    1        0.049  -2.009   1.138  0.00  0.00    +0.330 A 
ATOM     12  N   LIG    1        1.206  -1.684   0.569  0.00  0.00    -0.201 NA
ENDBRANCH   3  11
BRANCH   4  13
ATOM     13  N   LIG    1        0.260  -2.676   4.642  0.00  0.00    -0.289 N 
ATOM     14  H   LIG    1        0.327  -2.182   5.474  0.00  0.00    +0.255 HD
ATOM     15  H   LIG    1        0.273  -3.646   4.651  0.00  0.00    +0.255 HD
ENDBRANCH   4  13
ENDBRANCH   1   4
BRANCH   1  16
ATOM     16  C   LIG    1        0.343   0.112   4.684  0.00  0.00    +0.200 C 
BRANCH  16  17
ATOM     17  C   LIG    1        0.272   1.613   4.395  0.00  0.00    +0.074 C 
BRANCH  17  18
ATOM     18  C   LIG    1        0.494   2.381   5.672  0.00  0.00    -0.019 A 
ATOM     19  C   LIG    1       -0.455   2.851   6.496  0.00  0.00    +0.087 A 
ATOM     20  N   LIG    1        0.124   3.497   7.555  0.00  0.00    -0.360 N 
ATOM     21  C   LIG    1        1.496   3.457   7.434  0.00  0.00    +0.047 A 
ATOM     22  C   LIG    1        2.538   3.947   8.213  0.00  0.00    +0.029 A 
ATOM     23  C   LIG    1        3.844   3.731   7.830  0.00  0.00    +0.040 A 
ATOM     24  C   LIG    1        4.133   3.037   6.661  0.00  0.00    +0.124 A 
ATOM     25  F   LIG    1        5.420   2.842   6.296  0.00  0.00    -0.205 F 
ATOM     26  C   LIG    1        3.115   2.547   5.872  0.00  0.00    +0.048 A 
ATOM     27  H   LIG    1       -0.360   3.920   8.282  0.00  0.00    +0.165 HD
ATOM     28  C   LIG    1        1.788   2.751   6.253  0.00  0.00    +0.006 A 
ENDBRANCH  17  18
ENDBRANCH  16  17
ENDBRANCH   1  16
TORSDOF 6
