REMARK  Name = ZINC11974801
REMARK                            x       y       z     vdW  Elec       q    Type
REMARK                         _______ _______ _______ _____ _____    ______ ____
ROOT
ATOM      1  N   VAL A  1       -2.873   1.535   0.091  0.00  0.00    -0.272 N 
ATOM      2  H   VAL A  1       -2.585   2.352  -0.346  0.00  0.00    +0.153 HD
ATOM      3  C   UNK A  0       -3.925   0.847  -0.394  0.00  0.00    +0.401 C 
ATOM      4  O   UNK A  0       -4.286  -0.177   0.153  0.00  0.00    -0.226 OA
ENDROOT
BRANCH   1   5
ATOM      5  CA  VAL A  1       -2.164   1.050   1.278  0.00  0.00    +0.142 C 
BRANCH   5   7
ATOM      6  CG1 VAL A  1       -0.013   1.086   0.008  0.00  0.00    +0.009 C 
ATOM      7  CB  VAL A  1       -0.729   1.579   1.267  0.00  0.00    +0.010 C 
ATOM      8  CG2 VAL A  1        0.011   1.072   2.506  0.00  0.00    +0.009 C 
ENDBRANCH   5   7
BRANCH   5   9
ATOM      9  C   VAL A  1       -2.870   1.536   2.518  0.00  0.00    +0.245 C 
ATOM     10  O   VAL A  1       -3.862   2.217   2.420  0.00  0.00    -0.299 OA
ENDBRANCH   5   9
ENDBRANCH   1   5
BRANCH   3  11
ATOM     11  O   UNK A  0       -4.576   1.292  -1.485  0.00  0.00    -0.445 OA
BRANCH  11  12
ATOM     12  C   UNK A  0       -5.700   0.500  -1.952  0.00  0.00    +0.107 C 
ATOM     13  C   UNK A  0       -5.219  -0.908  -2.308  0.00  0.00    +0.055 C 
ATOM     14  C   UNK A  0       -6.309   1.159  -3.191  0.00  0.00    +0.055 C 
ATOM     15  C   UNK A  0       -6.757   0.415  -0.849  0.00  0.00    +0.055 C 
ENDBRANCH  11  12
ENDBRANCH   3  11
TORSDOF 5
