REMARK  Name = ZINC12525556
REMARK                            x       y       z     vdW  Elec       q    Type
REMARK                         _______ _______ _______ _____ _____    ______ ____
ROOT
ATOM      1  C   LIG    1       -0.017   1.383   0.010  0.00  0.00    +0.035 A 
ATOM      2  C   LIG    1        1.159   2.098   0.002  0.00  0.00    +0.032 A 
ATOM      3  C   LIG    1        2.383   1.422  -0.013  0.00  0.00    +0.090 A 
ATOM      4  C   LIG    1        2.396   0.016  -0.021  0.00  0.00    +0.069 A 
ATOM      5  N   LIG    1        3.727  -0.357  -0.036  0.00  0.00    -0.337 N 
ATOM      6  H   LIG    1        4.070  -1.265  -0.044  0.00  0.00    +0.167 HD
ATOM      7  C   LIG    1        4.471   0.793  -0.038  0.00  0.00    +0.158 A 
ATOM      8  C   LIG    1        1.200  -0.687  -0.012  0.00  0.00    +0.060 A 
ATOM      9  N   LIG    1        3.675   1.835  -0.024  0.00  0.00    -0.226 NA
ATOM     10  C   LIG    1        0.002  -0.004   0.002  0.00  0.00    +0.124 A 
ENDROOT
BRANCH   7  11
ATOM     11  C   LIG    1        5.946   0.850  -0.052  0.00  0.00    +0.113 A 
ATOM     12  C   LIG    1        6.624   2.044  -0.047  0.00  0.00    +0.078 A 
ATOM     13  S   LIG    1        8.312   1.464  -0.069  0.00  0.00    -0.083 S 
ATOM     14  C   LIG    1        7.994  -0.188  -0.082  0.00  0.00    +0.156 A 
ATOM     15  N   LIG    1        6.690  -0.249  -0.064  0.00  0.00    -0.244 NA
ENDBRANCH   7  11
BRANCH  10  16
ATOM     16  N   LIG    1       -1.273  -0.756   0.010  0.00  0.00    +0.006 N 
ATOM     17  O   LIG    1       -2.325  -0.162   0.023  0.00  0.00    -0.130 OA
BRANCH  16  18
ATOM     18  O   LIG    1       -1.261  -1.965   0.004  0.00  0.00    -0.396 OA
ATOM     19  H   LIG    1       -0.445  -2.426  -0.007  0.00  0.00    +0.329 HD
ENDBRANCH  16  18
ENDBRANCH  10  16
TORSDOF 3
