REMARK  Name = ZINC09186742
REMARK                            x       y       z     vdW  Elec       q    Type
REMARK                         _______ _______ _______ _____ _____    ______ ____
ROOT
ATOM      1  N   LIG    1       -2.326  -2.827  -0.003  0.00  0.00    -0.299 N 
ATOM      2  H   LIG    1       -2.235  -3.712  -0.426  0.00  0.00    +0.154 HD
ENDROOT
BRANCH   1   6
ATOM      3  C   LIG    1       -0.275   0.295   3.179  0.00  0.00    +0.066 C 
ATOM      4  C   LIG    1       -0.176  -0.669   2.024  0.00  0.00    +0.045 A 
ATOM      5  C   LIG    1       -1.322  -1.302   1.551  0.00  0.00    +0.067 A 
ATOM      6  C   LIG    1       -1.213  -2.182   0.492  0.00  0.00    +0.130 A 
ATOM      7  N   LIG    1        0.018  -2.401  -0.055  0.00  0.00    -0.182 N 
ATOM      8  C   LIG    1        1.116  -1.756   0.443  0.00  0.00    +0.255 A 
ATOM      9  N   LIG    1        2.162  -2.154  -0.272  0.00  0.00    -0.197 NA
ATOM     10  C   LIG    1        1.769  -3.021  -1.197  0.00  0.00    +0.247 A 
ATOM     11  N   LIG    1        0.475  -3.205  -1.107  0.00  0.00    -0.151 NA
ATOM     12  N   LIG    1        0.994  -0.902   1.465  0.00  0.00    -0.216 NA
ENDBRANCH   1   6
BRANCH   1  13
ATOM     13  C   LIG    1       -3.584  -2.226   0.096  0.00  0.00    +0.033 A 
ATOM     14  C   LIG    1       -3.687  -0.830   0.092  0.00  0.00    +0.024 A 
ATOM     15  C   LIG    1       -4.896  -0.218   0.186  0.00  0.00    +0.010 A 
ATOM     16  C   LIG    1       -6.066  -0.992   0.290  0.00  0.00    -0.018 A 
ATOM     17  C   LIG    1       -7.331  -0.386   0.388  0.00  0.00    +0.008 A 
ATOM     18  C   LIG    1       -8.444  -1.163   0.487  0.00  0.00    +0.001 A 
ATOM     19  C   LIG    1       -8.351  -2.554   0.492  0.00  0.00    +0.001 A 
ATOM     20  C   LIG    1       -7.144  -3.175   0.399  0.00  0.00    +0.008 A 
ATOM     21  C   LIG    1       -5.972  -2.406   0.296  0.00  0.00    -0.016 A 
ATOM     22  C   LIG    1       -4.710  -3.014   0.192  0.00  0.00    +0.031 A 
ENDBRANCH   1  13
TORSDOF 2
