REMARK  Name = ZINC12502871
REMARK                            x       y       z     vdW  Elec       q    Type
REMARK                         _______ _______ _______ _____ _____    ______ ____
ROOT
ATOM      1  C   LIG    1       -2.950   4.234  -1.386  0.00  0.00    +0.111 C 
ENDROOT
BRANCH   1   2
ATOM      2  C   LIG    1       -1.888   5.115  -1.992  0.00  0.00    +0.309 C 
ATOM      3  O   LIG    1       -0.873   5.346  -1.380  0.00  0.00    -0.251 OA
BRANCH   2   4
ATOM      4  O   LIG    1       -2.071   5.644  -3.212  0.00  0.00    -0.480 OA
ATOM      5  H   LIG    1       -2.859   5.465  -3.687  0.00  0.00    +0.295 HD
ENDBRANCH   2   4
ENDBRANCH   1   2
BRANCH   1   6
ATOM      6  C   LIG    1       -2.392   2.822  -1.194  0.00  0.00    +0.050 C 
BRANCH   6  10
ATOM      7  C   LIG    1       -1.585   1.078  -5.009  0.00  0.00    +0.000 A 
ATOM      8  C   LIG    1       -0.601   1.798  -4.356  0.00  0.00    +0.000 A 
ATOM      9  C   LIG    1       -0.861   2.358  -3.119  0.00  0.00    +0.003 A 
ATOM     10  C   LIG    1       -2.107   2.207  -2.540  0.00  0.00    -0.047 A 
ATOM     11  C   LIG    1       -3.090   1.488  -3.193  0.00  0.00    +0.003 A 
ATOM     12  C   LIG    1       -2.829   0.923  -4.427  0.00  0.00    +0.000 A 
ENDBRANCH   6  10
ENDBRANCH   1   6
BRANCH   1  13
ATOM     13  C   LIG    1       -3.373   4.804  -0.031  0.00  0.00    +0.080 C 
BRANCH  13  14
ATOM     14  S   LIG    1       -4.170   6.415  -0.275  0.00  0.00    -0.177 S 
ATOM     15  H   LIG    1       -4.493   6.810   0.970  0.00  0.00    +0.102 HD
ENDBRANCH  13  14
ENDBRANCH   1  13
TORSDOF 6
