REMARK  Name = ZINC11688000
REMARK                            x       y       z     vdW  Elec       q    Type
REMARK                         _______ _______ _______ _____ _____    ______ ____
ROOT
ATOM      1  C   UNK A  1        0.182   1.326  -0.310  0.00  0.00    +0.000 C 
ATOM      2  C   UNK A  1       -0.582   1.686   0.963  0.00  0.00    +0.000 C 
ATOM      3  C   UNK A  1       -0.924   3.177   0.961  0.00  0.00    +0.001 C 
ATOM      4  C   UNK A  1       -0.845   3.730   2.384  0.00  0.00    +0.013 C 
ATOM      5  C   UNK A  0       -0.826   5.262   2.337  0.00  0.00    +0.084 C 
ATOM      6  C   UNK A  0        0.252   5.717   1.391  0.00  0.00    +0.218 C 
ATOM      7  N   UNK A  1        0.102   6.860   0.666  0.00  0.00    -0.301 N 
ATOM      8  H   UNK A  1       -0.602   7.509   0.823  0.00  0.00    +0.150 HD
ATOM      9  C   UNK A  1        1.115   7.085  -0.393  0.00  0.00    +0.192 C 
ATOM     10  C   UNK A  1        0.611   6.450  -1.688  0.00  0.00    +0.102 C 
ATOM     11  S   UNK A  1        1.486   4.888  -1.982  0.00  0.00    -0.158 S 
ATOM     12  C   UNK A  1        0.279   3.865  -2.869  0.00  0.00    +0.069 C 
ATOM     13  C   UNK A  1        0.519   2.390  -2.543  0.00  0.00    +0.011 C 
ATOM     14  O   UNK A  0        1.265   5.051   1.266  0.00  0.00    -0.275 OA
ATOM     15  C   UNK A  1       -0.526   1.906  -1.535  0.00  0.00    +0.001 C 
ENDROOT
BRANCH   9  16
ATOM     16  C   UNK A  1        1.298   8.567  -0.601  0.00  0.00    +0.326 C 
ATOM     17  O   UNK A  1        0.454   9.341  -0.213  0.00  0.00    -0.249 OA
BRANCH  16  18
ATOM     18  O   UNK A  1        2.398   9.027  -1.216  0.00  0.00    -0.479 OA
ATOM     19  H   UNK A  1        3.053   8.428  -1.517  0.00  0.00    +0.295 HD
ENDBRANCH  16  18
ENDBRANCH   9  16
BRANCH   5  20
ATOM     20  C   UNK A  0       -2.195   5.764   1.875  0.00  0.00    +0.078 C 
BRANCH  20  21
ATOM     21  S   UNK A  0       -3.446   5.338   3.117  0.00  0.00    -0.178 S 
ATOM     22  H   UNK A  0       -4.591   5.824   2.605  0.00  0.00    +0.102 HD
ENDBRANCH  20  21
ENDBRANCH   5  20
TORSDOF 4
