REMARK  Name = ZINC09330983
REMARK                            x       y       z     vdW  Elec       q    Type
REMARK                         _______ _______ _______ _____ _____    ______ ____
ROOT
ATOM      1  C   LIG    1       -2.361  -2.803  -0.924  0.00  0.00    +0.044 C 
ATOM      2  C   LIG    1       -1.135  -2.068  -0.448  0.00  0.00    -0.050 A 
ATOM      3  C   LIG    1       -0.025  -2.777  -0.026  0.00  0.00    +0.005 A 
ATOM      4  C   LIG    1        1.100  -2.104   0.408  0.00  0.00    +0.023 A 
ATOM      5  C   LIG    1        1.117  -0.713   0.421  0.00  0.00    +0.033 A 
ATOM      6  C   LIG    1        0.002  -0.004   0.002  0.00  0.00    +0.003 A 
ATOM      7  C   LIG    1       -0.018   1.504   0.010  0.00  0.00    +0.155 C 
ATOM      8  C   LIG    1        1.409   2.045  -0.000  0.00  0.00    +0.047 C 
ATOM      9  C   LIG    1        2.204   1.390   1.133  0.00  0.00    +0.106 C 
ATOM     10  C   LIG    1        1.409   3.562   0.163  0.00  0.00    +0.011 C 
ATOM     11  C   LIG    1        0.633   3.942   1.428  0.00  0.00    +0.028 C 
ATOM     12  C   LIG    1       -0.782   3.364   1.329  0.00  0.00    +0.160 C 
ATOM     13  O   LIG    1       -0.699   1.946   1.188  0.00  0.00    -0.372 OA
ATOM     14  N   LIG    1        2.271  -0.052   0.855  0.00  0.00    -0.336 N 
ATOM     15  H   LIG    1        3.103  -0.538   0.971  0.00  0.00    +0.147 HD
ATOM     16  C   LIG    1       -1.121  -0.686  -0.433  0.00  0.00    +0.011 A 
ENDROOT
BRANCH   9  17
ATOM     17  C   LIG    1        3.596   1.966   1.180  0.00  0.00    -0.027 A 
ATOM     18  C   LIG    1        4.551   1.540   0.276  0.00  0.00    +0.005 A 
ATOM     19  C   LIG    1        5.827   2.072   0.317  0.00  0.00    +0.000 A 
ATOM     20  C   LIG    1        6.149   3.023   1.267  0.00  0.00    +0.000 A 
ATOM     21  C   LIG    1        5.195   3.445   2.174  0.00  0.00    +0.000 A 
ATOM     22  C   LIG    1        3.919   2.917   2.130  0.00  0.00    +0.005 A 
ENDBRANCH   9  17
TORSDOF 1
