REMARK  Name = ZINC08699423
REMARK                            x       y       z     vdW  Elec       q    Type
REMARK                         _______ _______ _______ _____ _____    ______ ____
ROOT
ATOM      1  C   LIG    1        1.174   1.786   0.000  0.00  0.00    +0.000 A 
ATOM      2  C   LIG    1       -0.013   1.076   0.008  0.00  0.00    +0.000 A 
ATOM      3  C   LIG    1       -1.215   1.752   0.017  0.00  0.00    +0.006 A 
ATOM      4  C   LIG    1       -1.244   3.140   0.032  0.00  0.00    -0.018 A 
ATOM      5  C   LIG    1       -0.063   3.847   0.021  0.00  0.00    -0.042 A 
ATOM      6  C   LIG    1       -0.019   5.353   0.020  0.00  0.00    +0.034 C 
ATOM      7  C   LIG    1       -1.361   5.930   0.466  0.00  0.00    -0.009 C 
ATOM      8  C   LIG    1       -2.470   5.276  -0.367  0.00  0.00    -0.041 C 
ATOM      9  C   LIG    1       -2.592   3.813   0.057  0.00  0.00    +0.130 C 
ATOM     10  C   LIG    1        1.147   3.165   0.006  0.00  0.00    +0.004 A 
ENDROOT
BRANCH   8  11
ATOM     11  N   LIG    1       -3.745   5.965  -0.102  0.00  0.00    +0.382 N 
ATOM     12  H   LIG    1       -3.950   5.920   0.903  0.00  0.00    -0.090 HD
ATOM     13  H   LIG    1       -4.499   5.514  -0.616  0.00  0.00    -0.090 HD
ATOM     14  H   LIG    1       -3.679   6.942  -0.384  0.00  0.00    -0.090 HD
ENDBRANCH   8  11
BRANCH   9  15
ATOM     15  O   LIG    1       -3.473   3.135  -0.839  0.00  0.00    -0.389 OA
ATOM     16  H   LIG    1       -3.600   2.199  -0.633  0.00  0.00    +0.210 HD
ENDBRANCH   9  15
TORSDOF 2
