REMARK  Name = ZINC12359526
REMARK                            x       y       z     vdW  Elec       q    Type
REMARK                         _______ _______ _______ _____ _____    ______ ____
ROOT
ATOM      1  C   LIG    1        3.234   2.426   3.553  0.00  0.00    +0.001 A 
ATOM      2  C   LIG    1        1.970   1.842   3.600  0.00  0.00    +0.001 A 
ATOM      3  C   LIG    1        1.291   1.541   2.458  0.00  0.00    +0.014 A 
ATOM      4  C   LIG    1        1.871   1.826   1.214  0.00  0.00    +0.044 A 
ATOM      5  C   LIG    1        3.160   2.416   1.166  0.00  0.00    -0.011 A 
ATOM      6  C   LIG    1        3.722   2.687  -0.097  0.00  0.00    +0.028 A 
ATOM      7  C   LIG    1        3.011   2.370  -1.213  0.00  0.00    +0.115 A 
ATOM      8  N   LIG    1        1.809   1.814  -1.145  0.00  0.00    -0.221 NA
ATOM      9  C   LIG    1        1.219   1.531  -0.001  0.00  0.00    +0.220 A 
ATOM     10  C   LIG    1        3.830   2.713   2.361  0.00  0.00    +0.009 A 
ENDROOT
BRANCH   9  11
ATOM     11  O   LIG    1       -0.011   0.963   0.007  0.00  0.00    -0.492 OA
ATOM     12  H   LIG    1        0.002  -0.004   0.002  0.00  0.00    +0.294 HD
ENDBRANCH   9  11
TORSDOF 1
