REMARK  Name = ZINC09572854
REMARK                            x       y       z     vdW  Elec       q    Type
REMARK                         _______ _______ _______ _____ _____    ______ ____
ROOT
ATOM      1  C   LIG    1        8.415   3.788   0.467  0.00  0.00    +0.174 C 
ATOM      2  N   LIG    1        6.987   4.096   0.359  0.00  0.00    -0.249 N 
ATOM      3  C   LIG    1        5.977   3.184   0.275  0.00  0.00    +0.165 A 
ATOM      4  C   LIG    1        4.779   3.920   0.187  0.00  0.00    +0.079 A 
ATOM      5  C   LIG    1        3.564   3.213   0.089  0.00  0.00    +0.139 A 
ATOM      6  N   LIG    1        3.602   1.885   0.088  0.00  0.00    -0.198 NA
ATOM      7  C   LIG    1        4.755   1.232   0.168  0.00  0.00    +0.221 A 
ATOM      8  C   LIG    1        5.129   5.287   0.223  0.00  0.00    +0.148 A 
ATOM      9  N   LIG    1        5.918   1.854   0.262  0.00  0.00    -0.195 NA
ATOM     10  N   LIG    1        6.425   5.378   0.324  0.00  0.00    -0.177 NA
ENDROOT
BRANCH   7  11
ATOM     11  N   LIG    1        4.739  -0.152   0.158  0.00  0.00    -0.300 N 
ATOM     12  C   LIG    1        5.588  -0.680  -0.917  0.00  0.00    +0.108 C 
ATOM     13  C   LIG    1        5.662  -2.205  -0.809  0.00  0.00    +0.019 C 
ATOM     14  C   LIG    1        4.250  -2.788  -0.915  0.00  0.00    +0.003 C 
ATOM     15  C   LIG    1        3.373  -2.185   0.186  0.00  0.00    +0.019 C 
ATOM     16  C   LIG    1        3.366  -0.661   0.049  0.00  0.00    +0.108 C 
ENDBRANCH   7  11
BRANCH   5  17
ATOM     17  N   LIG    1        2.360   3.885  -0.000  0.00  0.00    -0.299 N 
ATOM     18  H   LIG    1        2.336   4.851   0.088  0.00  0.00    +0.154 HD
BRANCH  17  19
ATOM     19  C   LIG    1        1.176   3.174  -0.217  0.00  0.00    +0.036 A 
ATOM     20  C   LIG    1        1.172   2.071  -1.062  0.00  0.00    +0.023 A 
ATOM     21  C   LIG    1        0.003   1.368  -1.276  0.00  0.00    +0.005 A 
ATOM     22  C   LIG    1       -1.167   1.763  -0.656  0.00  0.00    +0.046 A 
ATOM     23  C   LIG    1       -1.168   2.860   0.194  0.00  0.00    +0.122 A 
ATOM     24  C   LIG    1        0.004   3.568   0.412  0.00  0.00    +0.069 A 
BRANCH  23  25
ATOM     25  O   LIG    1       -2.318   3.243   0.808  0.00  0.00    -0.495 OA
ATOM     26  C   LIG    1       -3.488   2.468   0.538  0.00  0.00    +0.277 C 
ENDBRANCH  23  25
ENDBRANCH  17  19
ENDBRANCH   5  17
TORSDOF 4
