REMARK  Name = ZINC12417747
REMARK                            x       y       z     vdW  Elec       q    Type
REMARK                         _______ _______ _______ _____ _____    ______ ____
ROOT
ATOM      1  S   LIG    1        1.728   0.532   2.037  0.00  0.00    +0.061 S 
ATOM      2  O   LIG    1        2.041  -0.093   3.274  0.00  0.00    -0.153 OA
ATOM      3  O   LIG    1        1.024   1.764   1.963  0.00  0.00    -0.153 OA
ENDROOT
BRANCH   1  11
ATOM      4  C   LIG    1       -0.168   1.407   0.125  0.00  0.00    +0.026 C 
ATOM      5  C   LIG    1       -0.070  -0.120   0.108  0.00  0.00    +0.077 C 
ATOM      6  C   LIG    1       -1.452  -0.726   0.370  0.00  0.00    +0.020 C 
ATOM      7  C   LIG    1       -1.324  -2.246   0.489  0.00  0.00    +0.003 C 
ATOM      8  C   LIG    1       -0.413  -2.592   1.669  0.00  0.00    +0.020 C 
ATOM      9  C   LIG    1        0.981  -2.007   1.422  0.00  0.00    +0.077 C 
ATOM     10  C   LIG    1        1.857  -2.231   2.656  0.00  0.00    +0.026 C 
ATOM     11  N   LIG    1        0.853  -0.567   1.160  0.00  0.00    -0.171 NA
ENDBRANCH   1  11
BRANCH   1  12
ATOM     12  C   LIG    1        3.256   0.774   1.194  0.00  0.00    +0.105 A 
ATOM     13  C   LIG    1        4.356   0.005   1.524  0.00  0.00    +0.028 A 
ATOM     14  C   LIG    1        5.555   0.195   0.862  0.00  0.00    +0.002 A 
ATOM     15  C   LIG    1        5.653   1.152  -0.130  0.00  0.00    +0.000 A 
ATOM     16  C   LIG    1        4.552   1.920  -0.461  0.00  0.00    +0.002 A 
ATOM     17  C   LIG    1        3.352   1.728   0.198  0.00  0.00    +0.028 A 
ENDBRANCH   1  12
TORSDOF 2
