REMARK  Name = ZINC08585919
REMARK                            x       y       z     vdW  Elec       q    Type
REMARK                         _______ _______ _______ _____ _____    ______ ____
ROOT
ATOM      1  C   LIG    1       -1.502   4.492   0.041  0.00  0.00    +0.006 C 
ATOM      2  C   LIG    1       -0.785   3.998  -1.218  0.00  0.00    +0.016 C 
ATOM      3  C   LIG    1       -0.765   2.469  -1.227  0.00  0.00    +0.070 C 
ATOM      4 BR   LIG    1        0.156   1.835  -2.844  0.00  0.00    -0.087 Br
ATOM      5  C   LIG    1       -0.025   1.962   0.013  0.00  0.00    +0.070 C 
ATOM      6 BR   LIG    1        0.002  -0.004   0.002  0.00  0.00    -0.087 Br
ATOM      7  C   LIG    1       -0.741   2.455   1.272  0.00  0.00    +0.020 C 
ATOM      8  C   LIG    1       -0.761   3.985   1.280  0.00  0.00    +0.004 C 
ENDROOT
BRANCH   8   9
ATOM      9  C   LIG    1       -1.478   4.478   2.539  0.00  0.00    +0.070 C 
ATOM     10 BR   LIG    1       -3.322   3.798   2.553  0.00  0.00    -0.087 Br
BRANCH   9  11
ATOM     11  C   LIG    1       -1.498   6.008   2.547  0.00  0.00    +0.095 C 
ATOM     12 BR   LIG    1       -2.419   6.642   4.165  0.00  0.00    -0.091 Br
ENDBRANCH   9  11
ENDBRANCH   8   9
TORSDOF 2
