REMARK  Name = ZINC12730092
REMARK                            x       y       z     vdW  Elec       q    Type
REMARK                         _______ _______ _______ _____ _____    ______ ____
ROOT
ATOM      1  C   LIG    1       -0.045  -0.825   3.603  0.00  0.00    +0.129 A 
ATOM      2  C   LIG    1       -0.149  -0.335   4.903  0.00  0.00    +0.050 A 
ATOM      3  C   LIG    1       -0.190  -1.439   5.747  0.00  0.00    +0.050 A 
ATOM      4  C   LIG    1       -0.111  -2.564   4.948  0.00  0.00    +0.136 A 
ATOM      5  O   LIG    1       -0.030  -2.175   3.664  0.00  0.00    -0.455 OA
ENDROOT
BRANCH   1  16
ATOM      6  C   LIG    1       -0.156   1.327  -0.088  0.00  0.00    +0.046 C 
ATOM      7  C   LIG    1        0.841   0.224   0.159  0.00  0.00    -0.016 C 
ATOM      8  C   LIG    1        1.725  -0.167  -0.839  0.00  0.00    +0.117 C 
ATOM      9  C   LIG    1        2.683  -1.241  -0.575  0.00  0.00    +0.261 C 
ATOM     10  N   LIG    1        2.717  -1.853   0.622  0.00  0.00    -0.248 N 
ATOM     11  H   LIG    1        3.361  -2.562   0.775  0.00  0.00    +0.158 HD
ATOM     12  C   LIG    1        1.877  -1.502   1.612  0.00  0.00    +0.251 C 
ATOM     13  O   LIG    1        1.931  -2.075   2.684  0.00  0.00    -0.270 OA
ATOM     14  O   LIG    1        3.458  -1.585  -1.448  0.00  0.00    -0.269 OA
ATOM     15  C   LIG    1        0.897  -0.427   1.407  0.00  0.00    +0.045 C 
ATOM     16  C   LIG    1        0.026  -0.056   2.440  0.00  0.00    +0.059 C 
BRANCH   8  17
ATOM     17  C   LIG    1        1.699   0.477  -2.118  0.00  0.00    +0.105 C 
ATOM     18  N   LIG    1        1.678   0.987  -3.133  0.00  0.00    -0.191 NA
ENDBRANCH   8  17
ENDBRANCH   1  16
BRANCH   4  19
ATOM     19  C   LIG    1       -0.119  -3.959   5.425  0.00  0.00    +0.017 A 
ATOM     20  C   LIG    1       -0.220  -4.234   6.792  0.00  0.00    +0.013 A 
ATOM     21  C   LIG    1       -0.227  -5.542   7.230  0.00  0.00    +0.029 A 
ATOM     22  C   LIG    1       -0.135  -6.580   6.320  0.00  0.00    +0.105 A 
ATOM     23  C   LIG    1       -0.035  -6.316   4.965  0.00  0.00    +0.029 A 
ATOM     24  C   LIG    1       -0.033  -5.014   4.511  0.00  0.00    +0.013 A 
BRANCH  22  25
ATOM     25  S   LIG    1       -0.144  -8.248   6.890  0.00  0.00    +0.056 S 
ATOM     26  O   LIG    1        0.303  -8.219   8.238  0.00  0.00    -0.153 OA
ATOM     27  O   LIG    1        0.502  -9.023   5.889  0.00  0.00    -0.153 OA
BRANCH  25  28
ATOM     28  N   LIG    1       -1.724  -8.744   6.926  0.00  0.00    -0.204 NA
ATOM     29  H   LIG    1       -2.430  -8.101   7.091  0.00  0.00    +0.144 HD
ATOM     30  H   LIG    1       -1.942  -9.678   6.782  0.00  0.00    +0.144 HD
ENDBRANCH  25  28
ENDBRANCH  22  25
ENDBRANCH   4  19
TORSDOF 5
