REMARK  Name = ZINC12136841
REMARK                            x       y       z     vdW  Elec       q    Type
REMARK                         _______ _______ _______ _____ _____    ______ ____
ROOT
ATOM      1  C   LIG    1        0.002  -0.004   0.002  0.00  0.00    +0.028 C 
ATOM      2  C   LIG    1       -1.157  -0.698   0.112  0.00  0.00    +0.080 C 
ATOM      3  C   LIG    1       -1.376  -2.156   0.227  0.00  0.00    +0.260 C 
ATOM      4  N   LIG    1       -2.631  -2.561   0.321  0.00  0.00    -0.227 N 
ATOM      5  C   LIG    1       -3.656  -1.685   0.312  0.00  0.00    +0.286 C 
ATOM      6  O   LIG    1       -4.848  -1.916   0.390  0.00  0.00    -0.262 OA
ATOM      7  O   LIG    1       -0.448  -2.943   0.234  0.00  0.00    -0.269 OA
ATOM      8  S   LIG    1       -2.842  -0.102   0.165  0.00  0.00    -0.026 S 
ENDROOT
BRANCH   1  12
ATOM      9  C   LIG    1       -0.087   4.152  -0.835  0.00  0.00    +0.000 A 
ATOM     10  C   LIG    1        1.110   3.543  -0.498  0.00  0.00    +0.001 A 
ATOM     11  C   LIG    1        1.147   2.192  -0.224  0.00  0.00    +0.008 A 
ATOM     12  C   LIG    1       -0.029   1.437  -0.288  0.00  0.00    -0.024 A 
ATOM     13  C   LIG    1       -1.233   2.059  -0.636  0.00  0.00    +0.008 A 
ATOM     14  C   LIG    1       -1.254   3.411  -0.902  0.00  0.00    +0.001 A 
ENDBRANCH   1  12
BRANCH   4  15
ATOM     15  C   LIG    1       -2.915  -3.993   0.438  0.00  0.00    +0.132 C 
BRANCH  15  16
ATOM     16  C   LIG    1       -2.939  -4.389   1.915  0.00  0.00    +0.138 C 
BRANCH  16  17
ATOM     17  C   LIG    1       -3.224  -5.829   2.033  0.00  0.00    +0.064 C 
ATOM     18  N   LIG    1       -3.444  -6.939   2.123  0.00  0.00    -0.197 NA
ENDBRANCH  16  17
ENDBRANCH  15  16
ENDBRANCH   4  15
TORSDOF 4
