REMARK  Name = ZINC09329507
REMARK                            x       y       z     vdW  Elec       q    Type
REMARK                         _______ _______ _______ _____ _____    ______ ____
ROOT
ATOM      1  C   LIG    1       -0.070   5.342   0.030  0.00  0.00    +0.026 C 
ATOM      2  C   LIG    1        0.137   4.345   0.961  0.00  0.00    +0.100 C 
ATOM      3  C   LIG    1        1.350   3.503   0.933  0.00  0.00    +0.256 C 
ATOM      4  N   LIG    1        1.484   2.547   1.875  0.00  0.00    -0.236 N 
ATOM      5  H   LIG    1        2.375   1.903   1.883  0.00  0.00    +0.159 HD
ATOM      6  C   LIG    1        0.549   2.356   2.817  0.00  0.00    +0.313 C 
ATOM      7  N   LIG    1       -0.578   3.076   2.901  0.00  0.00    -0.236 N 
ATOM      8  H   LIG    1       -1.309   2.863   3.694  0.00  0.00    +0.159 HD
ATOM      9  O   LIG    1        0.732   1.477   3.636  0.00  0.00    -0.252 OA
ATOM     10  O   LIG    1        2.206   3.667   0.084  0.00  0.00    -0.270 OA
ATOM     11  C   LIG    1       -0.846   4.071   2.030  0.00  0.00    +0.256 C 
ATOM     12  O   LIG    1       -1.870   4.721   2.119  0.00  0.00    -0.270 OA
ENDROOT
BRANCH   1  18
ATOM     13  C   LIG    1       -2.554   5.255  -0.042  0.00  0.00    +0.010 A 
ATOM     14  C   LIG    1       -3.774   5.891  -0.115  0.00  0.00    +0.033 A 
ATOM     15  C   LIG    1       -3.835   7.271  -0.207  0.00  0.00    +0.122 A 
ATOM     16  C   LIG    1       -2.674   8.025  -0.221  0.00  0.00    +0.033 A 
ATOM     17  C   LIG    1       -1.445   7.406  -0.144  0.00  0.00    +0.010 A 
ATOM     18  C   LIG    1       -1.373   6.009  -0.051  0.00  0.00    -0.024 A 
BRANCH  15  19
ATOM     19  N   LIG    1       -5.150   7.945  -0.290  0.00  0.00    +0.006 N 
ATOM     20  O   LIG    1       -5.208   9.159  -0.372  0.00  0.00    -0.130 OA
BRANCH  19  21
ATOM     21  O   LIG    1       -6.174   7.286  -0.278  0.00  0.00    -0.396 OA
ATOM     22  H   LIG    1       -6.130   6.352  -0.215  0.00  0.00    +0.329 HD
ENDBRANCH  19  21
ENDBRANCH  15  19
ENDBRANCH   1  18
TORSDOF 3
