REMARK  Name = ZINC08699424
REMARK                            x       y       z     vdW  Elec       q    Type
REMARK                         _______ _______ _______ _____ _____    ______ ____
ROOT
ATOM      1  C   LIG    1       -0.329   6.193   1.783  0.00  0.00    +0.000 A 
ATOM      2  C   LIG    1       -1.294   5.481   2.471  0.00  0.00    +0.000 A 
ATOM      3  C   LIG    1       -1.401   4.119   2.289  0.00  0.00    +0.006 A 
ATOM      4  C   LIG    1       -0.545   3.454   1.419  0.00  0.00    -0.018 A 
ATOM      5  C   LIG    1        0.413   4.163   0.731  0.00  0.00    -0.042 A 
ATOM      6  C   LIG    1        1.368   3.509  -0.234  0.00  0.00    +0.034 C 
ATOM      7  C   LIG    1        1.419   2.001  -0.001  0.00  0.00    -0.009 C 
ATOM      8  C   LIG    1       -0.018   1.465   0.010  0.00  0.00    -0.041 C 
ATOM      9  C   LIG    1       -0.708   1.963   1.278  0.00  0.00    +0.130 C 
ATOM     10  C   LIG    1        0.520   5.535   0.917  0.00  0.00    +0.004 A 
ENDROOT
BRANCH   8  11
ATOM     11  N   LIG    1       -0.023  -0.009   0.001  0.00  0.00    +0.382 N 
ATOM     12  H   LIG    1       -0.993  -0.343  -0.025  0.00  0.00    -0.090 HD
ATOM     13  H   LIG    1        0.429  -0.364   0.842  0.00  0.00    -0.090 HD
ATOM     14  H   LIG    1        0.470  -0.355  -0.820  0.00  0.00    -0.090 HD
ENDBRANCH   8  11
BRANCH   9  15
ATOM     15  O   LIG    1       -0.131   1.316   2.414  0.00  0.00    -0.389 OA
ATOM     16  H   LIG    1       -0.520   1.583   3.258  0.00  0.00    +0.210 HD
ENDBRANCH   9  15
TORSDOF 2
