REMARK  Name = ZINC11755412
REMARK                            x       y       z     vdW  Elec       q    Type
REMARK                         _______ _______ _______ _____ _____    ______ ____
ROOT
ATOM      1  C   LIG    1       -3.829   2.618   0.295  0.00  0.00    +0.121 A 
ATOM      2  C   LIG    1       -3.663   1.242   0.350  0.00  0.00    +0.047 A 
ATOM      3  C   LIG    1       -2.399   0.694   0.254  0.00  0.00    +0.027 A 
ATOM      4  C   LIG    1       -1.294   1.521   0.104  0.00  0.00    +0.034 A 
ATOM      5  C   LIG    1       -1.460   2.898   0.055  0.00  0.00    +0.027 A 
ATOM      6  C   LIG    1       -2.725   3.445   0.145  0.00  0.00    +0.047 A 
ENDROOT
BRANCH   4   7
ATOM      7  N   LIG    1       -0.011   0.966   0.007  0.00  0.00    -0.285 N 
ATOM      8  H   LIG    1        0.202   0.151   0.489  0.00  0.00    +0.155 HD
ATOM      9  C   LIG    1        0.925   1.561  -0.759  0.00  0.00    +0.217 C 
ATOM     10  O   LIG    1        0.631   2.523  -1.437  0.00  0.00    -0.275 OA
BRANCH   9  11
ATOM     11  C   LIG    1        2.335   1.030  -0.773  0.00  0.00    +0.094 C 
BRANCH  11  12
ATOM     12  C   LIG    1        3.190   1.879  -1.717  0.00  0.00    -0.010 C 
BRANCH  12  13
ATOM     13  C   LIG    1        4.622   1.341  -1.731  0.00  0.00    -0.086 C 
BRANCH  13  14
ATOM     14  N   LIG    1        5.440   2.178  -2.626  0.00  0.00    +0.378 N 
ATOM     15  H   LIG    1        5.458   3.140  -2.266  0.00  0.00    -0.090 HD
ATOM     16  H   LIG    1        5.041   2.182  -3.563  0.00  0.00    -0.090 HD
ATOM     17  H   LIG    1        6.393   1.820  -2.665  0.00  0.00    -0.090 HD
ENDBRANCH  13  14
ENDBRANCH  12  13
ENDBRANCH  11  12
ENDBRANCH   9  11
ENDBRANCH   4   7
BRANCH   1  18
ATOM     18  O   LIG    1       -5.074   3.157   0.390  0.00  0.00    -0.487 OA
BRANCH  18  19
ATOM     19  C   LIG    1       -5.171   4.581   0.326  0.00  0.00    +0.264 C 
BRANCH  19  23
ATOM     20  C   LIG    1       -9.266   5.746   0.667  0.00  0.00    +0.000 A 
ATOM     21  C   LIG    1       -8.487   5.618   1.802  0.00  0.00    +0.000 A 
ATOM     22  C   LIG    1       -7.162   5.241   1.692  0.00  0.00    +0.007 A 
ATOM     23  C   LIG    1       -6.616   4.992   0.447  0.00  0.00    -0.010 A 
ATOM     24  C   LIG    1       -7.393   5.125  -0.689  0.00  0.00    +0.007 A 
ATOM     25  C   LIG    1       -8.720   5.497  -0.578  0.00  0.00    +0.000 A 
ENDBRANCH  19  23
ENDBRANCH  18  19
ENDBRANCH   1  18
TORSDOF 8
