REMARK  Name = ZINC11422450
REMARK                            x       y       z     vdW  Elec       q    Type
REMARK                         _______ _______ _______ _____ _____    ______ ____
ROOT
ATOM      1  C   LIG    1       -0.795   1.527  -1.120  0.00  0.00    -0.038 C 
ATOM      2  C   LIG    1       -1.417   2.875  -0.736  0.00  0.00    -0.008 C 
ATOM      3  C   LIG    1       -2.019   3.502  -1.992  0.00  0.00    +0.038 C 
ATOM      4  C   LIG    1       -2.920   2.521  -2.695  0.00  0.00    +0.003 A 
ATOM      5  C   LIG    1       -2.871   1.166  -2.455  0.00  0.00    -0.014 A 
ATOM      6  C   LIG    1       -3.719   0.311  -3.148  0.00  0.00    +0.010 A 
ATOM      7  C   LIG    1       -4.615   0.805  -4.073  0.00  0.00    +0.049 A 
ATOM      8  C   LIG    1       -4.673   2.168  -4.316  0.00  0.00    +0.159 A 
ATOM      9  C   LIG    1       -3.824   3.025  -3.626  0.00  0.00    +0.162 A 
ATOM     10  C   LIG    1       -1.923   0.554  -1.456  0.00  0.00    +0.131 C 
ENDROOT
BRANCH   1  11
ATOM     11  N   LIG    1       -0.015   0.998   0.015  0.00  0.00    +0.384 N 
ATOM     12  H   LIG    1        0.032  -0.025  -0.054  0.00  0.00    -0.085 HD
ATOM     13  H   LIG    1       -0.475   1.261   0.894  0.00  0.00    -0.085 HD
BRANCH  11  15
ATOM     14  C   LIG    1        1.923   1.523   1.417  0.00  0.00    -0.014 C 
ATOM     15  C   LIG    1        1.353   1.550  -0.003  0.00  0.00    -0.078 C 
ATOM     16  C   LIG    1        2.234   0.702  -0.922  0.00  0.00    -0.014 C 
ENDBRANCH  11  15
ENDBRANCH   1  11
BRANCH   8  17
ATOM     17  O   LIG    1       -5.555   2.665  -5.224  0.00  0.00    -0.503 OA
ATOM     18  H   LIG    1       -6.416   2.896  -4.850  0.00  0.00    +0.292 HD
ENDBRANCH   8  17
BRANCH   9  19
ATOM     19  O   LIG    1       -3.878   4.363  -3.860  0.00  0.00    -0.503 OA
ATOM     20  H   LIG    1       -4.499   4.838  -3.292  0.00  0.00    +0.292 HD
ENDBRANCH   9  19
BRANCH  10  21
ATOM     21  O   LIG    1       -1.366  -0.641  -2.007  0.00  0.00    -0.389 OA
ATOM     22  H   LIG    1       -2.024  -1.308  -2.246  0.00  0.00    +0.210 HD
ENDBRANCH  10  21
TORSDOF 5
