REMARK  Name = ZINC09585591
REMARK                            x       y       z     vdW  Elec       q    Type
REMARK                         _______ _______ _______ _____ _____    ______ ____
ROOT
ATOM      1  N   LIG    1        1.264   0.270  -0.022  0.00  0.00    -0.285 N 
ATOM      2  H   LIG    1        0.679   0.997   0.245  0.00  0.00    +0.155 HD
ATOM      3  C   LIG    1        0.756  -0.962  -0.227  0.00  0.00    +0.220 C 
ATOM      4  O   LIG    1        1.464  -1.843  -0.668  0.00  0.00    -0.275 OA
ENDROOT
BRANCH   3   5
ATOM      5  C   LIG    1       -0.689  -1.244   0.090  0.00  0.00    +0.078 C 
ATOM      6  C   LIG    1       -0.946  -0.980   1.575  0.00  0.00    +0.032 C 
ATOM      7  C   LIG    1       -2.424  -1.235   1.887  0.00  0.00    +0.109 C 
ATOM      8  N   LIG    1       -2.774  -2.592   1.446  0.00  0.00    -0.297 N 
ATOM      9  C   LIG    1       -3.348  -3.464   2.298  0.00  0.00    +0.253 C 
ATOM     10  O   LIG    1       -3.462  -4.635   1.986  0.00  0.00    -0.269 OA
ATOM     11  C   LIG    1       -2.485  -2.980   0.059  0.00  0.00    +0.109 C 
ATOM     12  C   LIG    1       -1.006  -2.706  -0.232  0.00  0.00    +0.032 C 
BRANCH   9  13
ATOM     13  C   LIG    1       -3.837  -3.002   3.601  0.00  0.00    +0.074 A 
ATOM     14  C   LIG    1       -4.309  -3.747   4.670  0.00  0.00    +0.021 A 
ATOM     15  C   LIG    1       -4.705  -3.054   5.787  0.00  0.00    +0.008 A 
ATOM     16  C   LIG    1       -4.628  -1.698   5.789  0.00  0.00    +0.046 A 
ATOM     17  S   LIG    1       -3.986  -1.336   4.219  0.00  0.00    -0.092 S 
ENDBRANCH   9  13
ENDBRANCH   3   5
BRANCH   1  21
ATOM     18  C   LIG    1        5.340   0.961  -0.551  0.00  0.00    +0.007 A 
ATOM     19  C   LIG    1        4.419   1.981  -0.800  0.00  0.00    +0.012 A 
ATOM     20  C   LIG    1        3.072   1.749  -0.624  0.00  0.00    +0.024 A 
ATOM     21  C   LIG    1        2.630   0.502  -0.199  0.00  0.00    +0.033 A 
ATOM     22  C   LIG    1        3.544  -0.514   0.055  0.00  0.00    +0.024 A 
ATOM     23  C   LIG    1        4.892  -0.291  -0.124  0.00  0.00    +0.012 A 
BRANCH  18  31
ATOM     24  C   LIG    1       13.038   2.189  -1.531  0.00  0.00    +0.044 C 
ATOM     25  C   LIG    1       11.536   2.248  -1.432  0.00  0.00    -0.049 A 
ATOM     26  C   LIG    1       10.857   3.417  -1.747  0.00  0.00    +0.005 A 
ATOM     27  C   LIG    1        9.503   3.501  -1.669  0.00  0.00    +0.029 A 
ATOM     28  C   LIG    1        8.730   2.387  -1.259  0.00  0.00    +0.079 A 
ATOM     29  C   LIG    1        9.450   1.210  -0.945  0.00  0.00    +0.040 A 
ATOM     30  S   LIG    1        8.153   0.083  -0.492  0.00  0.00    -0.067 S 
ATOM     31  C   LIG    1        6.785   1.206  -0.739  0.00  0.00    +0.109 A 
ATOM     32  N   LIG    1        7.391   2.304  -1.136  0.00  0.00    -0.239 NA
ATOM     33  C   LIG    1       10.819   1.137  -1.028  0.00  0.00    +0.020 A 
ENDBRANCH  18  31
ENDBRANCH   1  21
TORSDOF 4
