REMARK  Name = ZINC08995178
REMARK                            x       y       z     vdW  Elec       q    Type
REMARK                         _______ _______ _______ _____ _____    ______ ____
ROOT
ATOM      1  C   LIG    1       -1.253  -0.756   0.010  0.00  0.00    +0.026 C 
ATOM      2  C   LIG    1       -1.234  -2.133  -0.101  0.00  0.00    +0.100 C 
ATOM      3  C   LIG    1        0.034  -2.888  -0.116  0.00  0.00    +0.256 C 
ATOM      4  N   LIG    1       -0.025  -4.231  -0.228  0.00  0.00    -0.236 N 
ATOM      5  H   LIG    1        0.799  -4.742  -0.238  0.00  0.00    +0.159 HD
ATOM      6  C   LIG    1       -1.197  -4.875  -0.325  0.00  0.00    +0.313 C 
ATOM      7  N   LIG    1       -2.385  -4.256  -0.318  0.00  0.00    -0.236 N 
ATOM      8  H   LIG    1       -3.195  -4.784  -0.393  0.00  0.00    +0.159 HD
ATOM      9  O   LIG    1       -1.180  -6.086  -0.424  0.00  0.00    -0.252 OA
ATOM     10  O   LIG    1        1.104  -2.315  -0.028  0.00  0.00    -0.270 OA
ATOM     11  C   LIG    1       -2.482  -2.915  -0.206  0.00  0.00    +0.256 C 
ATOM     12  O   LIG    1       -3.567  -2.365  -0.197  0.00  0.00    -0.270 OA
ENDROOT
BRANCH   1  18
ATOM     13  C   LIG    1        0.895  -0.281  -1.145  0.00  0.00    +0.011 A 
ATOM     14  C   LIG    1        2.054   0.433  -1.251  0.00  0.00    +0.046 A 
ATOM     15  C   LIG    1        2.340   1.442  -0.336  0.00  0.00    +0.117 A 
ATOM     16  C   LIG    1        1.448   1.730   0.693  0.00  0.00    +0.046 A 
ATOM     17  C   LIG    1        0.286   1.023   0.810  0.00  0.00    +0.011 A 
ATOM     18  C   LIG    1       -0.009   0.005  -0.109  0.00  0.00    -0.024 A 
BRANCH  15  19
ATOM     19  O   LIG    1        3.493   2.147  -0.447  0.00  0.00    -0.507 OA
ATOM     20  H   LIG    1        3.419   2.938  -0.999  0.00  0.00    +0.292 HD
ENDBRANCH  15  19
ENDBRANCH   1  18
TORSDOF 2
