REMARK  Name = ZINC12653902
REMARK                            x       y       z     vdW  Elec       q    Type
REMARK                         _______ _______ _______ _____ _____    ______ ____
ROOT
ATOM      1  N   LIG    1        5.450  -1.678   1.382  0.00  0.00    -0.310 N 
ATOM      2  H   LIG    1        5.864  -1.911   0.536  0.00  0.00    +0.149 HD
ATOM      3  C   LIG    1        6.050  -2.013   2.541  0.00  0.00    +0.260 C 
ATOM      4  O   LIG    1        5.530  -1.722   3.602  0.00  0.00    -0.269 OA
ENDROOT
BRANCH   3   5
ATOM      5  C   LIG    1        7.333  -2.731   2.524  0.00  0.00    +0.103 A 
ATOM      6  C   LIG    1        8.030  -3.126   3.622  0.00  0.00    +0.040 A 
ATOM      7  C   LIG    1        9.203  -3.780   3.176  0.00  0.00    +0.000 A 
ATOM      8  C   LIG    1       10.279  -4.385   3.839  0.00  0.00    +0.010 A 
ATOM      9  C   LIG    1       11.292  -4.947   3.118  0.00  0.00    +0.001 A 
ATOM     10  C   LIG    1       11.267  -4.926   1.729  0.00  0.00    +0.002 A 
ATOM     11  C   LIG    1       10.222  -4.338   1.054  0.00  0.00    +0.026 A 
ATOM     12  C   LIG    1        9.176  -3.758   1.768  0.00  0.00    +0.047 A 
ATOM     13  N   LIG    1        8.021  -3.116   1.389  0.00  0.00    -0.351 N 
ATOM     14  H   LIG    1        7.736  -2.958   0.476  0.00  0.00    +0.166 HD
ENDBRANCH   3   5
BRANCH   1  15
ATOM     15  C   LIG    1        4.171  -0.963   1.399  0.00  0.00    +0.109 C 
BRANCH  15  16
ATOM     16  C   LIG    1        3.711  -0.707  -0.038  0.00  0.00    +0.054 C 
BRANCH  16  20
ATOM     17  C   LIG    1       -0.017   1.378   0.010  0.00  0.00    +0.000 A 
ATOM     18  C   LIG    1        1.171   2.086   0.002  0.00  0.00    +0.000 A 
ATOM     19  C   LIG    1        2.377   1.411  -0.013  0.00  0.00    +0.004 A 
ATOM     20  C   LIG    1        2.396   0.029  -0.020  0.00  0.00    -0.046 A 
ATOM     21  C   LIG    1        1.208  -0.679  -0.012  0.00  0.00    +0.004 A 
ATOM     22  C   LIG    1        0.002  -0.004   0.002  0.00  0.00    +0.000 A 
ENDBRANCH  16  20
ENDBRANCH  15  16
ENDBRANCH   1  15
TORSDOF 4
