REMARK  Name = ZINC08681778
REMARK                            x       y       z     vdW  Elec       q    Type
REMARK                         _______ _______ _______ _____ _____    ______ ____
ROOT
ATOM      1  C   LIG    1        0.295   3.396  -3.930  0.00  0.00    +0.185 C 
ATOM      2  C   LIG    1       -0.801   4.392  -3.555  0.00  0.00    +0.052 C 
ATOM      3  C   LIG    1       -2.059   4.056  -4.367  0.00  0.00    +0.012 C 
ATOM      4  C   LIG    1       -1.740   4.113  -5.863  0.00  0.00    +0.012 C 
ATOM      5  C   LIG    1       -2.491   2.662  -3.990  0.00  0.00    -0.020 C 
ATOM      6  C   LIG    1       -1.608   1.766  -3.640  0.00  0.00    -0.044 C 
ATOM      7  C   LIG    1       -2.099   0.454  -3.158  0.00  0.00    -0.000 C 
ATOM      8  C   LIG    1       -1.279  -0.357  -2.513  0.00  0.00    -0.023 C 
ATOM      9  C   LIG    1        0.161  -0.050  -2.235  0.00  0.00    +0.012 C 
ATOM     10  C   LIG    1        0.511  -0.530  -0.826  0.00  0.00    +0.012 C 
ATOM     11  C   LIG    1        0.447   1.449  -2.337  0.00  0.00    +0.007 C 
ATOM     12  C   LIG    1       -0.122   1.970  -3.659  0.00  0.00    +0.063 C 
ENDROOT
BRANCH   1  13
ATOM     13  O   LIG    1        0.599   3.538  -5.343  0.00  0.00    -0.461 OA
BRANCH  13  14
ATOM     14  C   LIG    1        1.524   4.451  -5.678  0.00  0.00    +0.310 C 
ATOM     15  O   LIG    1        2.062   5.110  -4.820  0.00  0.00    -0.251 OA
BRANCH  14  16
ATOM     16  C   LIG    1        1.892   4.655  -7.125  0.00  0.00    +0.094 C 
ATOM     17  C   LIG    1        0.650   5.081  -7.912  0.00  0.00    +0.019 C 
BRANCH  16  19
ATOM     18  C   LIG    1        3.424   5.865  -8.684  0.00  0.00    +0.004 C 
ATOM     19  C   LIG    1        2.961   5.745  -7.231  0.00  0.00    +0.011 C 
ENDBRANCH  16  19
ENDBRANCH  14  16
ENDBRANCH  13  14
ENDBRANCH   1  13
BRANCH  11  20
ATOM     20  C   LIG    1       -0.218   2.179  -1.169  0.00  0.00    +0.008 C 
BRANCH  20  21
ATOM     21  C   LIG    1       -1.684   1.753  -1.069  0.00  0.00    +0.045 C 
BRANCH  21  22
ATOM     22  C   LIG    1       -2.309   2.366   0.185  0.00  0.00    +0.179 C 
ATOM     23  C   LIG    1       -3.739   1.844   0.352  0.00  0.00    +0.076 C 
ATOM     24  C   LIG    1       -4.380   2.502   1.578  0.00  0.00    +0.129 C 
ATOM     25  C   LIG    1       -4.400   4.022   1.376  0.00  0.00    +0.152 C 
ATOM     26  C   LIG    1       -3.000   4.476   1.030  0.00  0.00    +0.310 C 
ATOM     27  O   LIG    1       -2.486   5.404   1.609  0.00  0.00    -0.251 OA
ATOM     28  O   LIG    1       -2.341   3.816   0.055  0.00  0.00    -0.461 OA
BRANCH  24  29
ATOM     29  O   LIG    1       -3.619   2.184   2.745  0.00  0.00    -0.391 OA
ATOM     30  H   LIG    1       -3.966   2.574   3.559  0.00  0.00    +0.210 HD
ENDBRANCH  24  29
ENDBRANCH  21  22
ENDBRANCH  20  21
ENDBRANCH  11  20
TORSDOF 8
