REMARK  Name = ZINC12501627
REMARK                            x       y       z     vdW  Elec       q    Type
REMARK                         _______ _______ _______ _____ _____    ______ ____
ROOT
ATOM      1  C   LIG    1       -2.376   0.792  -0.592  0.00  0.00    +0.022 C 
ENDROOT
BRANCH   1   2
ATOM      2  C   LIG    1       -1.290   1.681   0.017  0.00  0.00    +0.070 C 
ATOM      3  C   LIG    1       -1.667   2.032   1.458  0.00  0.00    +0.028 C 
BRANCH   2   4
ATOM      4  N   LIG    1       -0.011   0.966   0.007  0.00  0.00    -0.315 N 
ATOM      5  H   LIG    1        0.002  -0.004   0.002  0.00  0.00    +0.149 HD
ATOM      6  C   LIG    1        1.147   1.655   0.000  0.00  0.00    +0.325 C 
ATOM      7  O   LIG    1        1.130   2.868   0.007  0.00  0.00    -0.280 OA
ENDBRANCH   2   4
ENDBRANCH   1   2
BRANCH   1   8
ATOM      8  C   LIG    1       -2.062   0.544  -2.069  0.00  0.00    +0.002 C 
BRANCH   8   9
ATOM      9  C   LIG    1       -3.149  -0.345  -2.678  0.00  0.00    +0.000 C 
BRANCH   9  10
ATOM     10  C   LIG    1       -2.835  -0.593  -4.155  0.00  0.00    -0.000 C 
BRANCH  10  12
ATOM     11  C   LIG    1       -3.608  -1.730  -6.241  0.00  0.00    +0.004 C 
ATOM     12  C   LIG    1       -3.922  -1.482  -4.764  0.00  0.00    -0.003 C 
ENDBRANCH  10  12
ENDBRANCH   9  10
ENDBRANCH   8   9
ENDBRANCH   1   8
TORSDOF 6
