REMARK  Name = ZINC12584311
REMARK                            x       y       z     vdW  Elec       q    Type
REMARK                         _______ _______ _______ _____ _____    ______ ____
ROOT
ATOM      1  C   LIG    1       -2.520   2.474  -0.261  0.00  0.00    +0.095 C 
ATOM      2  C   LIG    1       -3.349   2.711   1.004  0.00  0.00    +0.044 C 
ATOM      3  C   LIG    1       -3.485   4.218   1.245  0.00  0.00    +0.110 C 
ATOM      4  N   LIG    1       -4.038   4.842   0.035  0.00  0.00    -0.297 N 
ATOM      5  C   LIG    1       -5.138   5.619   0.104  0.00  0.00    +0.247 C 
ATOM      6  O   LIG    1       -5.545   6.184  -0.892  0.00  0.00    -0.270 OA
ATOM      7  C   LIG    1       -3.369   4.604  -1.252  0.00  0.00    +0.110 C 
ATOM      8  C   LIG    1       -3.235   3.093  -1.464  0.00  0.00    +0.044 C 
ENDROOT
BRANCH   1  18
ATOM      9  C   LIG    1        0.878  -1.531  -0.710  0.00  0.00    +0.002 A 
ATOM     10  C   LIG    1        1.183  -0.198  -0.491  0.00  0.00    +0.002 A 
ATOM     11  C   LIG    1        0.174   0.741  -0.399  0.00  0.00    +0.028 A 
ATOM     12  C   LIG    1       -1.149   0.347  -0.526  0.00  0.00    +0.070 A 
ATOM     13  C   LIG    1       -1.457  -0.997  -0.747  0.00  0.00    +0.067 A 
ATOM     14  N   LIG    1       -2.844  -1.084  -0.831  0.00  0.00    -0.306 N 
ATOM     15  C   LIG    1       -3.357   0.150  -0.667  0.00  0.00    +0.328 A 
ATOM     16  O   LIG    1       -4.543   0.424  -0.685  0.00  0.00    -0.247 OA
ATOM     17  H   LIG    1       -3.354  -1.896  -0.980  0.00  0.00    +0.170 HD
ATOM     18  N   LIG    1       -2.360   1.034  -0.476  0.00  0.00    -0.289 N 
ATOM     19  C   LIG    1       -0.437  -1.933  -0.839  0.00  0.00    +0.028 A 
ENDBRANCH   1  18
BRANCH   5  20
ATOM     20  C   LIG    1       -5.848   5.782   1.390  0.00  0.00    +0.037 A 
ATOM     21  C   LIG    1       -7.228   5.584   1.459  0.00  0.00    +0.013 A 
ATOM     22  C   LIG    1       -7.884   5.733   2.663  0.00  0.00    +0.013 A 
ATOM     23  C   LIG    1       -7.179   6.088   3.799  0.00  0.00    +0.055 A 
ATOM     24  C   LIG    1       -5.811   6.290   3.737  0.00  0.00    +0.013 A 
ATOM     25  C   LIG    1       -5.143   6.139   2.540  0.00  0.00    +0.013 A 
BRANCH  23  26
ATOM     26  C   LIG    1       -7.903   6.255   5.110  0.00  0.00    +0.417 C 
ATOM     27  F   LIG    1       -7.040   5.934   6.164  0.00  0.00    -0.166 F 
ATOM     28  F   LIG    1       -9.013   5.404   5.141  0.00  0.00    -0.166 F 
ATOM     29  F   LIG    1       -8.328   7.581   5.243  0.00  0.00    -0.166 F 
ENDBRANCH  23  26
ENDBRANCH   5  20
TORSDOF 3
