REMARK  Name = ZINC12957692
REMARK                            x       y       z     vdW  Elec       q    Type
REMARK                         _______ _______ _______ _____ _____    ______ ____
ROOT
ATOM      1  C   LIG    1       -1.233  -4.975   1.120  0.00  0.00    +0.180 C 
ENDROOT
BRANCH   1   2
ATOM      2  C   LIG    1       -0.629  -6.334   1.362  0.00  0.00    +0.006 A 
ATOM      3  C   LIG    1        0.472  -6.741   0.635  0.00  0.00    +0.008 A 
ATOM      4  C   LIG    1        1.027  -7.988   0.857  0.00  0.00    +0.000 A 
ATOM      5  C   LIG    1        0.481  -8.832   1.807  0.00  0.00    +0.002 A 
ATOM      6  C   LIG    1       -0.620  -8.431   2.538  0.00  0.00    +0.023 A 
ATOM      7  C   LIG    1       -1.176  -7.177   2.321  0.00  0.00    +0.031 A 
BRANCH   7   8
ATOM      8  N   LIG    1       -2.287  -6.766   3.062  0.00  0.00    -0.358 N 
ATOM      9  H   LIG    1       -2.668  -7.356   3.732  0.00  0.00    +0.142 HD
ATOM     10  H   LIG    1       -2.677  -5.891   2.908  0.00  0.00    +0.142 HD
ENDBRANCH   7   8
ENDBRANCH   1   2
BRANCH   1  11
ATOM     11  C   LIG    1       -2.378  -5.100   0.148  0.00  0.00    -0.014 A 
ATOM     12  C   LIG    1       -2.126  -5.197  -1.208  0.00  0.00    +0.006 A 
ATOM     13  C   LIG    1       -3.176  -5.312  -2.099  0.00  0.00    +0.000 A 
ATOM     14  C   LIG    1       -4.478  -5.329  -1.635  0.00  0.00    +0.000 A 
ATOM     15  C   LIG    1       -4.730  -5.232  -0.280  0.00  0.00    +0.000 A 
ATOM     16  C   LIG    1       -3.679  -5.122   0.612  0.00  0.00    +0.006 A 
ENDBRANCH   1  11
BRANCH   1  17
ATOM     17  O   LIG    1       -0.240  -4.103   0.577  0.00  0.00    -0.364 OA
BRANCH  17  25
ATOM     18  C   LIG    1       -0.018   1.465   0.010  0.00  0.00    -0.095 C 
ATOM     19  N   LIG    1        0.002  -0.004   0.002  0.00  0.00    +0.382 N 
ATOM     20  H   LIG    1        0.429  -0.349  -0.845  0.00  0.00    -0.081 HD
ATOM     21  C   LIG    1       -1.374  -0.547   0.157  0.00  0.00    -0.066 C 
ATOM     22  C   LIG    1       -1.682  -0.375   1.663  0.00  0.00    -0.017 C 
ATOM     23  C   LIG    1       -0.301  -0.360   2.350  0.00  0.00    -0.017 C 
ATOM     24  C   LIG    1       -1.308  -2.051  -0.154  0.00  0.00    +0.016 C 
ATOM     25  C   LIG    1       -0.424  -2.727   0.918  0.00  0.00    +0.117 C 
ATOM     26  C   LIG    1        0.938  -2.030   0.977  0.00  0.00    +0.016 C 
ATOM     27  C   LIG    1        0.717  -0.525   1.198  0.00  0.00    -0.066 C 
ENDBRANCH  17  25
ENDBRANCH   1  17
TORSDOF 5
