REMARK  Name = ZINC12405177
REMARK                            x       y       z     vdW  Elec       q    Type
REMARK                         _______ _______ _______ _____ _____    ______ ____
ROOT
ATOM      1  C   LIG    1       -2.325   4.092   5.229  0.00  0.00    +0.004 C 
ATOM      2  C   LIG    1       -2.669   2.916   4.677  0.00  0.00    -0.023 C 
ENDROOT
BRANCH   1   6
ATOM      3  C   LIG    1       -4.313   5.462   8.720  0.00  0.00    +0.030 A 
ATOM      4  C   LIG    1       -3.305   6.232   8.148  0.00  0.00    +0.024 A 
ATOM      5  C   LIG    1       -2.658   5.791   7.016  0.00  0.00    +0.010 A 
ATOM      6  C   LIG    1       -3.015   4.567   6.440  0.00  0.00    -0.025 A 
ATOM      7  C   LIG    1       -4.032   3.799   7.014  0.00  0.00    +0.010 A 
ATOM      8  C   LIG    1       -4.671   4.244   8.150  0.00  0.00    +0.024 A 
BRANCH   3   9
ATOM      9  N   LIG    1       -4.966   5.912   9.867  0.00  0.00    -0.330 N 
BRANCH   9  10
ATOM     10  C   LIG    1       -6.027   5.102  10.470  0.00  0.00    +0.105 C 
BRANCH  10  11
ATOM     11  C   LIG    1       -5.419   4.149  11.501  0.00  0.00    +0.019 C 
BRANCH  11  13
ATOM     12  C   LIG    1       -5.919   2.351  13.162  0.00  0.00    +0.004 C 
ATOM     13  C   LIG    1       -6.527   3.304  12.131  0.00  0.00    -0.002 C 
ENDBRANCH  11  13
ENDBRANCH  10  11
ENDBRANCH   9  10
BRANCH   9  14
ATOM     14  C   LIG    1       -4.590   7.194  10.468  0.00  0.00    +0.105 C 
BRANCH  14  15
ATOM     15  C   LIG    1       -5.438   8.311   9.857  0.00  0.00    +0.019 C 
BRANCH  15  16
ATOM     16  C   LIG    1       -5.046   9.650  10.485  0.00  0.00    -0.002 C 
ATOM     17  C   LIG    1       -5.893  10.768   9.874  0.00  0.00    +0.004 C 
ENDBRANCH  15  16
ENDBRANCH  14  15
ENDBRANCH   9  14
ENDBRANCH   3   9
ENDBRANCH   1   6
BRANCH   2  18
ATOM     18  C   LIG    1       -1.980   2.441   3.466  0.00  0.00    +0.014 C 
ATOM     19  C   LIG    1       -2.323   1.217   2.873  0.00  0.00    +0.023 C 
ATOM     20  C   LIG    1       -1.651   0.812   1.740  0.00  0.00    +0.085 C 
ATOM     21  N   LIG    1       -0.698   1.558   1.213  0.00  0.00    -0.302 NA
ATOM     22  C   LIG    1       -0.340   2.714   1.741  0.00  0.00    +0.085 C 
ATOM     23  C   LIG    1       -0.961   3.200   2.871  0.00  0.00    +0.023 C 
BRANCH  21  24
ATOM     24  C   LIG    1       -0.013   1.086   0.008  0.00  0.00    +0.082 C 
BRANCH  24  25
ATOM     25  C   LIG    1       -0.753   1.593  -1.232  0.00  0.00    -0.003 C 
BRANCH  25  26
ATOM     26  C   LIG    1       -0.037   1.099  -2.490  0.00  0.00    -0.074 C 
BRANCH  26  27
ATOM     27  N   LIG    1       -0.747   1.586  -3.680  0.00  0.00    +0.380 N 
BRANCH  27  28
ATOM     28  C   LIG    1       -0.767   3.055  -3.672  0.00  0.00    -0.079 C 
ATOM     29  C   LIG    1        0.668   3.584  -3.683  0.00  0.00    -0.016 C 
ENDBRANCH  27  28
BRANCH  27  30
ATOM     30  C   LIG    1       -0.059   1.112  -4.889  0.00  0.00    -0.079 C 
ATOM     31  C   LIG    1       -0.799   1.619  -6.129  0.00  0.00    -0.016 C 
ENDBRANCH  27  30
BRANCH  27  32
ATOM     32  C   LIG    1       -2.125   1.077  -3.670  0.00  0.00    -0.079 C 
ATOM     33  C   LIG    1       -2.104  -0.452  -3.678  0.00  0.00    -0.016 C 
ENDBRANCH  27  32
ENDBRANCH  26  27
ENDBRANCH  25  26
ENDBRANCH  24  25
ENDBRANCH  21  24
ENDBRANCH   2  18
TORSDOF 16
