REMARK  Name = ZINC09341556
REMARK                            x       y       z     vdW  Elec       q    Type
REMARK                         _______ _______ _______ _____ _____    ______ ____
ROOT
ATOM      1  C   LIG    1       -0.700   1.338   1.916  0.00  0.00    +0.143 C 
ATOM      2  N   LIG    1       -0.756  -0.126   1.889  0.00  0.00    -0.225 N 
ATOM      3  C   LIG    1       -1.498  -0.740   0.945  0.00  0.00    +0.259 C 
ATOM      4  C   LIG    1       -1.538  -2.212   0.938  0.00  0.00    +0.100 C 
ATOM      5  C   LIG    1       -0.755  -2.909   1.974  0.00  0.00    +0.257 C 
ATOM      6  N   LIG    1       -0.058  -2.164   2.855  0.00  0.00    -0.236 N 
ATOM      7  H   LIG    1        0.463  -2.608   3.543  0.00  0.00    +0.159 HD
ATOM      8  O   LIG    1       -0.739  -4.125   2.032  0.00  0.00    -0.270 OA
ATOM      9  C   LIG    1       -2.280  -2.913  -0.003  0.00  0.00    +0.028 C 
ATOM     10  O   LIG    1       -2.119  -0.094   0.121  0.00  0.00    -0.269 OA
ATOM     11  C   LIG    1       -0.063  -0.825   2.799  0.00  0.00    +0.315 C 
ATOM     12  O   LIG    1        0.592  -0.212   3.619  0.00  0.00    -0.252 OA
ENDROOT
BRANCH   9  13
ATOM     13  C   LIG    1       -2.149  -4.313  -0.104  0.00  0.00    +0.001 A 
ATOM     14  C   LIG    1       -0.971  -5.040  -0.113  0.00  0.00    +0.091 A 
ATOM     15  N   LIG    1       -1.251  -6.350  -0.223  0.00  0.00    -0.360 N 
ATOM     16  C   LIG    1       -2.617  -6.556  -0.292  0.00  0.00    +0.047 A 
ATOM     17  C   LIG    1       -3.397  -7.701  -0.410  0.00  0.00    +0.030 A 
ATOM     18  C   LIG    1       -4.771  -7.599  -0.441  0.00  0.00    +0.047 A 
ATOM     19  C   LIG    1       -5.390  -6.355  -0.369  0.00  0.00    +0.118 A 
ATOM     20  C   LIG    1       -4.628  -5.206  -0.257  0.00  0.00    +0.056 A 
ATOM     21  H   LIG    1       -0.586  -7.056  -0.250  0.00  0.00    +0.165 HD
ATOM     22  C   LIG    1       -3.241  -5.301  -0.216  0.00  0.00    +0.010 A 
BRANCH  19  23
ATOM     23  O   LIG    1       -6.747  -6.269  -0.409  0.00  0.00    -0.507 OA
ATOM     24  H   LIG    1       -7.109  -6.178  -1.301  0.00  0.00    +0.292 HD
ENDBRANCH  19  23
ENDBRANCH   9  13
TORSDOF 2
