REMARK  Name = ZINC12367068
REMARK                            x       y       z     vdW  Elec       q    Type
REMARK                         _______ _______ _______ _____ _____    ______ ____
ROOT
ATOM      1  C   LIG    1       -0.013   1.076   0.008  0.00  0.00    +0.004 A 
ATOM      2  C   LIG    1       -1.219   1.749   0.017  0.00  0.00    +0.030 A 
ATOM      3  C   LIG    1       -1.239   3.137   0.029  0.00  0.00    +0.093 A 
ATOM      4  C   LIG    1       -0.042   3.847   0.022  0.00  0.00    +0.166 A 
ATOM      5  F   LIG    1       -0.057   5.197   0.029  0.00  0.00    -0.202 F 
ATOM      6  C   LIG    1        1.162   3.166   0.007  0.00  0.00    +0.078 A 
ATOM      7 CL   LIG    1        2.657   4.048  -0.002  0.00  0.00    -0.081 Cl
ATOM      8  C   LIG    1        1.176   1.782   0.000  0.00  0.00    +0.023 A 
ENDROOT
BRANCH   3   9
ATOM      9  N   LIG    1       -2.459   3.821   0.044  0.00  0.00    -0.244 N 
ATOM     10  C   LIG    1       -3.227   4.140   1.107  0.00  0.00    +0.263 A 
ATOM     11  C   LIG    1       -4.402   4.829   0.867  0.00  0.00    +0.079 A 
ATOM     12  C   LIG    1       -4.689   5.119  -0.430  0.00  0.00    +0.069 A 
ATOM     13  O   LIG    1       -2.895   3.833   2.242  0.00  0.00    -0.267 OA
ATOM     14  S   LIG    1       -3.339   4.446  -1.281  0.00  0.00    -0.012 S 
ENDBRANCH   3   9
TORSDOF 1
