REMARK  Name = ZINC12880583
REMARK                            x       y       z     vdW  Elec       q    Type
REMARK                         _______ _______ _______ _____ _____    ______ ____
ROOT
ATOM      1  N   LIG    1        0.699  -6.133   3.597  0.00  0.00    -0.143 NA
ATOM      2  C   LIG    1        1.251  -6.678   4.683  0.00  0.00    +0.216 A 
ATOM      3  N   LIG    1        1.729  -6.008   5.764  0.00  0.00    -0.310 N 
ATOM      4  C   LIG    1        2.214  -6.933   6.663  0.00  0.00    +0.161 A 
ATOM      5  N   LIG    1        2.046  -8.127   6.165  0.00  0.00    -0.153 NA
ATOM      6  H   LIG    1        1.730  -5.045   5.883  0.00  0.00    +0.170 HD
ATOM      7  N   LIG    1        1.432  -7.997   4.911  0.00  0.00    -0.246 N 
ATOM      8  H   LIG    1        1.185  -8.721   4.316  0.00  0.00    +0.192 HD
ENDROOT
BRANCH   4   9
ATOM      9  C   LIG    1        2.824  -6.625   7.975  0.00  0.00    +0.019 A 
ATOM     10  C   LIG    1        2.942  -5.301   8.399  0.00  0.00    +0.011 A 
ATOM     11  C   LIG    1        3.512  -5.019   9.624  0.00  0.00    +0.001 A 
ATOM     12  C   LIG    1        3.965  -6.047  10.431  0.00  0.00    +0.000 A 
ATOM     13  C   LIG    1        3.851  -7.362  10.017  0.00  0.00    +0.001 A 
ATOM     14  C   LIG    1        3.278  -7.657   8.797  0.00  0.00    +0.011 A 
ENDBRANCH   4   9
BRANCH   1  15
ATOM     15  C   LIG    1        0.582  -4.814   3.503  0.00  0.00    +0.280 C 
ATOM     16  O   LIG    1        0.978  -4.102   4.406  0.00  0.00    -0.270 OA
BRANCH  15  17
ATOM     17  C   LIG    1       -0.043  -4.199   2.277  0.00  0.00    +0.258 C 
ATOM     18  C   LIG    1       -1.514  -4.611   2.192  0.00  0.00    +0.062 C 
BRANCH  17  19
ATOM     19  O   LIG    1        0.050  -2.776   2.358  0.00  0.00    -0.480 OA
BRANCH  19  25
ATOM     20  C   LIG    1        0.433   1.473  -0.013  0.00  0.00    +0.044 C 
ATOM     21  C   LIG    1        0.217  -0.018  -0.009  0.00  0.00    -0.047 A 
ATOM     22  C   LIG    1        0.001  -0.688  -1.199  0.00  0.00    +0.003 A 
ATOM     23  C   LIG    1       -0.198  -2.056  -1.199  0.00  0.00    +0.004 A 
ATOM     24  C   LIG    1       -0.182  -2.757  -0.009  0.00  0.00    +0.046 A 
ATOM     25  C   LIG    1        0.034  -2.088   1.187  0.00  0.00    +0.122 A 
ATOM     26  C   LIG    1        0.239  -0.716   1.183  0.00  0.00    +0.049 A 
ENDBRANCH  19  25
ENDBRANCH  17  19
ENDBRANCH  15  17
ENDBRANCH   1  15
TORSDOF 5
