REMARK  Name = ZINC12410091
REMARK                            x       y       z     vdW  Elec       q    Type
REMARK                         _______ _______ _______ _____ _____    ______ ____
ROOT
ATOM      1  C   LIG    1        0.031  -0.424   2.461  0.00  0.00    +0.039 C 
ATOM      2  C   LIG    1       -0.051  -1.364   3.470  0.00  0.00    +0.048 C 
ATOM      3  C   LIG    1       -0.165  -1.117   4.925  0.00  0.00    +0.008 A 
ATOM      4  C   LIG    1       -0.223   0.041   5.693  0.00  0.00    +0.010 A 
ATOM      5  C   LIG    1       -0.331  -0.053   7.066  0.00  0.00    +0.001 A 
ATOM      6  C   LIG    1       -0.383  -1.296   7.675  0.00  0.00    +0.002 A 
ATOM      7  C   LIG    1       -0.326  -2.451   6.921  0.00  0.00    +0.024 A 
ATOM      8  C   LIG    1       -0.217  -2.376   5.537  0.00  0.00    +0.042 A 
ATOM      9  N   LIG    1       -0.142  -3.361   4.560  0.00  0.00    -0.281 N 
ATOM     10  H   LIG    1       -0.159  -4.314   4.742  0.00  0.00    +0.155 HD
ATOM     11  C   LIG    1       -0.050  -2.826   3.331  0.00  0.00    +0.249 C 
ATOM     12  O   LIG    1        0.025  -3.445   2.284  0.00  0.00    -0.270 OA
ENDROOT
BRANCH   1  20
ATOM     13  C   LIG    1       -1.118   0.965  -0.083  0.00  0.00    +0.046 C 
ATOM     14  C   LIG    1       -0.211  -0.237  -0.015  0.00  0.00    -0.026 A 
ATOM     15  C   LIG    1        0.294  -0.958  -1.099  0.00  0.00    +0.026 A 
ATOM     16  C   LIG    1        1.067  -1.960  -0.611  0.00  0.00    +0.014 A 
ATOM     17  C   LIG    1        1.805  -2.979  -1.440  0.00  0.00    +0.063 C 
ATOM     18  N   LIG    1        1.066  -1.898   0.745  0.00  0.00    -0.358 N 
ATOM     19  H   LIG    1        1.540  -2.500   1.339  0.00  0.00    +0.166 HD
ATOM     20  C   LIG    1        0.284  -0.832   1.135  0.00  0.00    +0.043 A 
ENDBRANCH   1  20
TORSDOF 1
