REMARK  Name = ZINC12358966
REMARK                            x       y       z     vdW  Elec       q    Type
REMARK                         _______ _______ _______ _____ _____    ______ ____
ROOT
ATOM      1  C   LIG    1       -6.103   2.425   1.266  0.00  0.00    +0.135 A 
ATOM      2  C   LIG    1       -6.835   2.472   0.001  0.00  0.00    +0.015 A 
ATOM      3  C   LIG    1       -6.188   2.283  -1.226  0.00  0.00    +0.011 A 
ATOM      4  C   LIG    1       -6.909   2.328  -2.382  0.00  0.00    +0.001 A 
ATOM      5  C   LIG    1       -8.282   2.555  -2.360  0.00  0.00    +0.001 A 
ATOM      6  C   LIG    1       -8.944   2.738  -1.184  0.00  0.00    +0.010 A 
ATOM      7  C   LIG    1       -8.233   2.698   0.027  0.00  0.00    +0.012 A 
ATOM      8  C   LIG    1       -8.882   2.882   1.261  0.00  0.00    +0.128 A 
ATOM      9  C   LIG    1       -8.186   2.841   2.428  0.00  0.00    +0.077 A 
ATOM     10  C   LIG    1       -6.811   2.616   2.454  0.00  0.00    +0.146 A 
ENDROOT
BRANCH   8  11
ATOM     11  S   LIG    1      -10.620   3.171   1.295  0.00  0.00    +0.110 S 
ATOM     12  O   LIG    1      -11.043   2.948   2.633  0.00  0.00    -0.142 OA
ATOM     13  O   LIG    1      -11.171   2.463   0.193  0.00  0.00    -0.142 OA
BRANCH  11  14
ATOM     14  O   LIG    1      -10.836   4.651   1.012  0.00  0.00    -0.250 OA
ATOM     15  H   LIG    1      -10.559   4.851   0.104  0.00  0.00    +0.245 HD
ENDBRANCH  11  14
ENDBRANCH   8  11
BRANCH   1  17
ATOM     16  N   LIG    1       -4.128   2.171   2.407  0.00  0.00    -0.145 NA
ATOM     17  N   LIG    1       -4.761   2.205   1.284  0.00  0.00    -0.145 NA
BRANCH  16  23
ATOM     18  C   LIG    1        0.028   1.334  -0.036  0.00  0.00    +0.044 C 
ATOM     19  C   LIG    1       -0.724   1.539   1.254  0.00  0.00    -0.048 A 
ATOM     20  C   LIG    1       -0.044   1.503   2.461  0.00  0.00    +0.007 A 
ATOM     21  C   LIG    1       -0.721   1.689   3.651  0.00  0.00    +0.048 A 
ATOM     22  C   LIG    1       -2.088   1.914   3.645  0.00  0.00    +0.144 A 
ATOM     23  C   LIG    1       -2.781   1.951   2.425  0.00  0.00    +0.128 A 
ATOM     24  C   LIG    1       -2.083   1.766   1.228  0.00  0.00    +0.036 A 
BRANCH  22  25
ATOM     25  O   LIG    1       -2.755   2.097   4.813  0.00  0.00    -0.505 OA
ATOM     26  H   LIG    1       -2.805   3.021   5.097  0.00  0.00    +0.292 HD
ENDBRANCH  22  25
ENDBRANCH  16  23
ENDBRANCH   1  17
BRANCH  10  27
ATOM     27  O   LIG    1       -6.156   2.583   3.642  0.00  0.00    -0.505 OA
ATOM     28  H   LIG    1       -5.822   3.443   3.932  0.00  0.00    +0.292 HD
ENDBRANCH  10  27
TORSDOF 6
