REMARK  Name = ZINC12355112
REMARK                            x       y       z     vdW  Elec       q    Type
REMARK                         _______ _______ _______ _____ _____    ______ ____
ROOT
ATOM      1  N   LIG    1        4.910  -2.664   0.289  0.00  0.00    -0.177 N 
ATOM      2  C   LIG    1        5.157  -3.978   0.555  0.00  0.00    +0.219 A 
ATOM      3  N   LIG    1        6.461  -4.141   0.594  0.00  0.00    -0.180 NA
ATOM      4  C   LIG    1        7.070  -2.973   0.360  0.00  0.00    +0.241 A 
ATOM      5  N   LIG    1        6.164  -2.046   0.162  0.00  0.00    -0.126 NA
ENDROOT
BRANCH   2   6
ATOM      6  N   LIG    1        4.207  -4.960   0.751  0.00  0.00    -0.327 N 
ATOM      7  H   LIG    1        4.481  -5.885   0.857  0.00  0.00    +0.145 HD
ATOM      8  H   LIG    1        3.267  -4.726   0.783  0.00  0.00    +0.145 HD
ENDBRANCH   2   6
BRANCH   1   9
ATOM      9  C   LIG    1        3.703  -2.077   0.165  0.00  0.00    +0.174 C 
ATOM     10  S   LIG    1        2.278  -2.976   0.473  0.00  0.00    -0.014 S 
BRANCH   9  11
ATOM     11  N   LIG    1        3.617  -0.783  -0.201  0.00  0.00    -0.289 N 
ATOM     12  H   LIG    1        4.421  -0.289  -0.426  0.00  0.00    +0.154 HD
BRANCH  11  17
ATOM     13  C   LIG    1       -0.103   1.096  -0.367  0.00  0.00    +0.006 A 
ATOM     14  C   LIG    1        0.194   0.245   0.682  0.00  0.00    +0.040 A 
ATOM     15  C   LIG    1        1.426  -0.380   0.740  0.00  0.00    +0.147 A 
ATOM     16  F   LIG    1        1.716  -1.211   1.766  0.00  0.00    -0.203 F 
ATOM     17  C   LIG    1        2.367  -0.152  -0.257  0.00  0.00    +0.104 A 
ATOM     18  C   LIG    1        2.065   0.704  -1.310  0.00  0.00    +0.147 A 
ATOM     19  F   LIG    1        2.977   0.929  -2.282  0.00  0.00    -0.203 F 
ATOM     20  C   LIG    1        0.831   1.325  -1.361  0.00  0.00    +0.040 A 
ENDBRANCH  11  17
ENDBRANCH   9  11
ENDBRANCH   1   9
BRANCH   4  21
ATOM     21  N   LIG    1        8.449  -2.774   0.325  0.00  0.00    -0.282 N 
ATOM     22  H   LIG    1        8.808  -1.877   0.229  0.00  0.00    +0.155 HD
BRANCH  21  23
ATOM     23  C   LIG    1        9.316  -3.865   0.428  0.00  0.00    +0.034 A 
ATOM     24  C   LIG    1        8.943  -5.101  -0.088  0.00  0.00    +0.025 A 
ATOM     25  C   LIG    1        9.802  -6.177   0.016  0.00  0.00    +0.030 A 
ATOM     26  C   LIG    1       11.031  -6.027   0.631  0.00  0.00    +0.105 A 
ATOM     27  C   LIG    1       11.404  -4.799   1.146  0.00  0.00    +0.030 A 
ATOM     28  C   LIG    1       10.553  -3.717   1.040  0.00  0.00    +0.025 A 
BRANCH  26  29
ATOM     29  S   LIG    1       12.123  -7.404   0.761  0.00  0.00    +0.056 S 
ATOM     30  O   LIG    1       11.316  -8.571   0.688  0.00  0.00    -0.153 OA
ATOM     31  O   LIG    1       12.981  -7.139   1.862  0.00  0.00    -0.153 OA
BRANCH  29  32
ATOM     32  N   LIG    1       13.076  -7.402  -0.593  0.00  0.00    -0.204 NA
ATOM     33  H   LIG    1       12.731  -7.048  -1.428  0.00  0.00    +0.144 HD
ATOM     34  H   LIG    1       13.978  -7.755  -0.552  0.00  0.00    +0.144 HD
ENDBRANCH  29  32
ENDBRANCH  26  29
ENDBRANCH  21  23
ENDBRANCH   4  21
TORSDOF 8
