REMARK  Name = ZINC09225331
REMARK                            x       y       z     vdW  Elec       q    Type
REMARK                         _______ _______ _______ _____ _____    ______ ____
ROOT
ATOM      1  C   LIG    1       -0.017   1.380   0.010  0.00  0.00    +0.014 A 
ATOM      2  C   LIG    1        1.167   2.093   0.002  0.00  0.00    +0.029 A 
ATOM      3  C   LIG    1        2.378   1.419  -0.013  0.00  0.00    +0.075 A 
ATOM      4  C   LIG    1        2.397   0.022  -0.021  0.00  0.00    +0.068 A 
ATOM      5  N   LIG    1        3.736  -0.362  -0.035  0.00  0.00    -0.306 N 
ATOM      6  H   LIG    1        4.064  -1.275  -0.043  0.00  0.00    +0.170 HD
ATOM      7  C   LIG    1        4.496   0.749  -0.037  0.00  0.00    +0.332 A 
ATOM      8  O   LIG    1        5.713   0.765  -0.048  0.00  0.00    -0.246 OA
ATOM      9  C   LIG    1        1.204  -0.684  -0.013  0.00  0.00    +0.040 A 
ATOM     10  N   LIG    1        3.707   1.839  -0.023  0.00  0.00    -0.257 N 
ATOM     11  C   LIG    1        0.002  -0.004   0.002  0.00  0.00    +0.057 A 
ENDROOT
BRANCH  10  12
ATOM     12  C   LIG    1        4.146   3.171  -0.021  0.00  0.00    +0.093 A 
ATOM     13  C   LIG    1        4.381   3.824   1.181  0.00  0.00    +0.042 A 
ATOM     14  C   LIG    1        4.814   5.136   1.181  0.00  0.00    +0.057 A 
ATOM     15  C   LIG    1        5.014   5.802  -0.014  0.00  0.00    +0.016 A 
ATOM     16  C   LIG    1        4.782   5.158  -1.215  0.00  0.00    +0.048 A 
ATOM     17  C   LIG    1        4.354   3.841  -1.224  0.00  0.00    +0.141 A 
BRANCH  14  18
ATOM     18  C   LIG    1        5.068   5.843   2.488  0.00  0.00    +0.417 C 
ATOM     19  F   LIG    1        4.219   5.325   3.471  0.00  0.00    -0.166 F 
ATOM     20  F   LIG    1        4.823   7.212   2.333  0.00  0.00    -0.166 F 
ATOM     21  F   LIG    1        6.399   5.649   2.872  0.00  0.00    -0.166 F 
ENDBRANCH  14  18
BRANCH  17  22
ATOM     22  O   LIG    1        4.131   3.205  -2.405  0.00  0.00    -0.505 OA
ATOM     23  H   LIG    1        3.228   3.297  -2.737  0.00  0.00    +0.292 HD
ENDBRANCH  17  22
ENDBRANCH  10  12
BRANCH  11  24
ATOM     24  C   LIG    1       -1.294  -0.772   0.011  0.00  0.00    +0.417 C 
ATOM     25  F   LIG    1       -1.348  -1.583   1.149  0.00  0.00    -0.166 F 
ATOM     26  F   LIG    1       -1.371  -1.571  -1.135  0.00  0.00    -0.166 F 
ATOM     27  F   LIG    1       -2.368   0.125   0.026  0.00  0.00    -0.166 F 
ENDBRANCH  11  24
TORSDOF 4
