REMARK  Name = ZINC12686173
REMARK                            x       y       z     vdW  Elec       q    Type
REMARK                         _______ _______ _______ _____ _____    ______ ____
ROOT
ATOM      1  C   LIG    1       -3.811   1.657   0.222  0.00  0.00    -0.003 C 
ATOM      2  C   LIG    1       -3.996   2.428  -1.086  0.00  0.00    +0.015 C 
ATOM      3  C   LIG    1       -2.861   3.441  -1.246  0.00  0.00    -0.009 C 
ATOM      4  C   LIG    1       -2.881   4.420  -0.070  0.00  0.00    +0.007 C 
ATOM      5  C   LIG    1       -2.697   3.649   1.238  0.00  0.00    -0.009 C 
ATOM      6  C   LIG    1       -1.356   2.913   1.211  0.00  0.00    +0.019 C 
ATOM      7  C   LIG    1       -1.335   1.934   0.035  0.00  0.00    +0.048 C 
ATOM      8  C   LIG    1       -1.520   2.705  -1.273  0.00  0.00    +0.019 C 
ATOM      9  C   LIG    1       -2.470   0.921   0.195  0.00  0.00    +0.027 C 
ATOM     10  C   LIG    1       -3.832   2.636   1.398  0.00  0.00    +0.015 C 
ENDROOT
BRANCH   7  11
ATOM     11  C   LIG    1       -0.014   1.209   0.009  0.00  0.00    +0.222 C 
ATOM     12  N   LIG    1        1.134   1.904  -0.107  0.00  0.00    -0.299 N 
ATOM     13  C   LIG    1        1.117   3.359  -0.324  0.00  0.00    +0.123 C 
ATOM     14  C   LIG    1        2.037   4.012   0.720  0.00  0.00    +0.103 C 
ATOM     15  N   LIG    1        3.366   3.390   0.652  0.00  0.00    -0.295 NA
ATOM     16  C   LIG    1        3.305   1.964   1.000  0.00  0.00    +0.103 C 
ATOM     17  C   LIG    1        2.438   1.228  -0.026  0.00  0.00    +0.123 C 
ATOM     18  O   LIG    1        0.015  -0.001   0.086  0.00  0.00    -0.275 OA
BRANCH  15  19
ATOM     19  C   LIG    1        4.324   4.101   1.509  0.00  0.00    +0.119 C 
BRANCH  19  20
ATOM     20  C   LIG    1        4.543   5.492   0.971  0.00  0.00    -0.033 A 
ATOM     21  C   LIG    1        5.550   5.727   0.053  0.00  0.00    +0.005 A 
ATOM     22  C   LIG    1        5.748   7.002  -0.444  0.00  0.00    +0.000 A 
ATOM     23  C   LIG    1        4.946   8.043  -0.015  0.00  0.00    +0.000 A 
ATOM     24  C   LIG    1        3.943   7.809   0.907  0.00  0.00    +0.000 A 
ATOM     25  C   LIG    1        3.741   6.533   1.400  0.00  0.00    +0.005 A 
ENDBRANCH  19  20
ENDBRANCH  15  19
ENDBRANCH   7  11
BRANCH   1  30
ATOM     26  C   LIG    1       -8.100  -2.169   0.826  0.00  0.00    +0.044 C 
ATOM     27  C   LIG    1       -6.981  -1.171   0.669  0.00  0.00    -0.050 A 
ATOM     28  C   LIG    1       -6.000  -1.073   1.638  0.00  0.00    +0.003 A 
ATOM     29  C   LIG    1       -4.974  -0.158   1.494  0.00  0.00    +0.004 A 
ATOM     30  C   LIG    1       -4.929   0.659   0.380  0.00  0.00    -0.041 A 
ATOM     31  C   LIG    1       -5.913   0.565  -0.587  0.00  0.00    +0.004 A 
ATOM     32  C   LIG    1       -6.936  -0.354  -0.445  0.00  0.00    +0.003 A 
ENDBRANCH   1  30
TORSDOF 4
