REMARK  Name = ZINC12382914
REMARK                            x       y       z     vdW  Elec       q    Type
REMARK                         _______ _______ _______ _____ _____    ______ ____
ROOT
ATOM      1  C   LIG    1        0.419  -5.049   0.253  0.00  0.00    -0.045 A 
ATOM      2  C   LIG    1        1.803  -5.041   0.248  0.00  0.00    +0.004 A 
ATOM      3  C   LIG    1        2.489  -3.849   0.156  0.00  0.00    +0.008 A 
ATOM      4  C   LIG    1        1.781  -2.644   0.069  0.00  0.00    -0.024 A 
ATOM      5  C   LIG    1        0.382  -2.661   0.080  0.00  0.00    +0.008 A 
ATOM      6  C   LIG    1       -0.288  -3.863   0.167  0.00  0.00    +0.004 A 
ENDROOT
BRANCH   4   7
ATOM      7  C   LIG    1        2.505  -1.368  -0.029  0.00  0.00    +0.028 C 
ATOM      8  C   LIG    1        1.826  -0.223  -0.285  0.00  0.00    +0.080 C 
ATOM      9  C   LIG    1        2.303   1.177  -0.278  0.00  0.00    +0.258 C 
ATOM     10  N   LIG    1        1.410   2.108  -0.569  0.00  0.00    -0.243 N 
ATOM     11  H   LIG    1        1.681   3.039  -0.576  0.00  0.00    +0.159 HD
ATOM     12  C   LIG    1        0.131   1.792  -0.858  0.00  0.00    +0.283 C 
ATOM     13  O   LIG    1       -0.784   2.539  -1.146  0.00  0.00    -0.262 OA
ATOM     14  O   LIG    1        3.458   1.458  -0.016  0.00  0.00    -0.269 OA
ATOM     15  S   LIG    1        0.109   0.011  -0.724  0.00  0.00    -0.026 S 
ENDBRANCH   4   7
BRANCH   1  17
ATOM     16  C   LIG    1       -1.197  -6.354   1.609  0.00  0.00    +0.012 C 
ATOM     17  C   LIG    1       -0.323  -6.358   0.353  0.00  0.00    +0.013 C 
ATOM     18  C   LIG    1       -1.206  -6.539  -0.882  0.00  0.00    +0.012 C 
ENDBRANCH   1  17
TORSDOF 2
