REMARK  Name = ZINC09252703
REMARK                            x       y       z     vdW  Elec       q    Type
REMARK                         _______ _______ _______ _____ _____    ______ ____
ROOT
ATOM      1  N   LIG    1       -8.526   3.381   0.058  0.00  0.00    -0.299 N 
ATOM      2  H   LIG    1       -8.640   2.418   0.053  0.00  0.00    +0.150 HD
ATOM      3  C   LIG    1       -7.288   3.913   0.055  0.00  0.00    +0.251 C 
ATOM      4  O   LIG    1       -7.145   5.117   0.061  0.00  0.00    -0.272 OA
ENDROOT
BRANCH   1   5
ATOM      5  C   LIG    1       -9.700   4.257   0.067  0.00  0.00    +0.186 C 
BRANCH   5   6
ATOM      6  C   LIG    1      -10.023   4.650   1.486  0.00  0.00    +0.328 C 
ATOM      7  O   LIG    1       -9.342   4.240   2.396  0.00  0.00    -0.249 OA
BRANCH   6   9
ATOM      8  C   LIG    1      -11.318   5.792   3.129  0.00  0.00    +0.280 C 
ATOM      9  O   LIG    1      -11.066   5.455   1.739  0.00  0.00    -0.467 OA
ENDBRANCH   6   9
ENDBRANCH   5   6
BRANCH   5  10
ATOM     10  C   LIG    1      -10.894   3.518  -0.541  0.00  0.00    +0.069 C 
BRANCH  10  11
ATOM     11  C   LIG    1      -10.620   3.234  -1.996  0.00  0.00    -0.045 A 
ATOM     12  C   LIG    1      -10.996   4.148  -2.961  0.00  0.00    +0.004 A 
ATOM     13  C   LIG    1      -10.741   3.890  -4.295  0.00  0.00    +0.000 A 
ATOM     14  C   LIG    1      -10.119   2.712  -4.664  0.00  0.00    +0.000 A 
ATOM     15  C   LIG    1       -9.747   1.795  -3.699  0.00  0.00    +0.000 A 
ATOM     16  C   LIG    1       -9.998   2.056  -2.364  0.00  0.00    +0.004 A 
ENDBRANCH  10  11
ENDBRANCH   5  10
ENDBRANCH   1   5
BRANCH   3  17
ATOM     17  C   LIG    1       -6.081   3.011   0.046  0.00  0.00    +0.324 C 
BRANCH  17  18
ATOM     18  O   LIG    1       -4.893   3.806   0.045  0.00  0.00    -0.483 OA
BRANCH  18  19
ATOM     19  C   LIG    1       -3.709   3.143   0.036  0.00  0.00    +0.121 A 
ATOM     20  C   LIG    1       -2.515   3.857   0.035  0.00  0.00    +0.046 A 
ATOM     21  C   LIG    1       -1.316   3.193   0.026  0.00  0.00    +0.014 A 
ATOM     22  C   LIG    1       -1.294   1.793   0.018  0.00  0.00    +0.014 A 
ATOM     23  C   LIG    1       -2.499   1.079   0.014  0.00  0.00    +0.014 A 
ATOM     24  C   LIG    1       -3.693   1.753   0.029  0.00  0.00    +0.046 A 
BRANCH  22  25
ATOM     25  C   LIG    1       -0.013   1.076   0.008  0.00  0.00    +0.258 C 
ATOM     26  O   LIG    1        1.030   1.696   0.001  0.00  0.00    -0.296 OA
ENDBRANCH  22  25
ENDBRANCH  18  19
ENDBRANCH  17  18
ENDBRANCH   3  17
TORSDOF 9
