REMARK  Name = ZINC09260679
REMARK                            x       y       z     vdW  Elec       q    Type
REMARK                         _______ _______ _______ _____ _____    ______ ____
ROOT
ATOM      1  N   LIG    1       -1.006   1.816   0.901  0.00  0.00    -0.300 N 
ATOM      2  C   LIG    1       -1.940   1.114   1.631  0.00  0.00    +0.200 A 
ATOM      3  N   LIG    1       -2.138   1.782   2.747  0.00  0.00    -0.125 NA
ATOM      4  N   LIG    1       -1.403   2.835   2.763  0.00  0.00    -0.122 NA
ATOM      5  C   LIG    1       -0.686   2.904   1.663  0.00  0.00    +0.192 A 
ENDROOT
BRANCH   2   6
ATOM      6  C   LIG    1       -2.593  -0.144   1.236  0.00  0.00    +0.173 A 
ATOM      7  C   LIG    1       -3.278  -0.965   2.074  0.00  0.00    +0.061 A 
ATOM      8  C   LIG    1       -3.748  -2.081   1.252  0.00  0.00    +0.025 A 
ATOM      9  C   LIG    1       -4.495  -3.234   1.511  0.00  0.00    +0.012 A 
ATOM     10  C   LIG    1       -4.769  -4.109   0.497  0.00  0.00    +0.004 A 
ATOM     11  C   LIG    1       -4.310  -3.861  -0.788  0.00  0.00    +0.049 A 
ATOM     12  C   LIG    1       -3.569  -2.726  -1.067  0.00  0.00    +0.163 A 
ATOM     13  C   LIG    1       -3.279  -1.822  -0.047  0.00  0.00    +0.177 A 
ATOM     14  O   LIG    1       -2.597  -0.659  -0.010  0.00  0.00    -0.448 OA
BRANCH  12  15
ATOM     15  O   LIG    1       -3.125  -2.494  -2.331  0.00  0.00    -0.491 OA
ATOM     16  C   LIG    1       -3.460  -3.465  -3.324  0.00  0.00    +0.277 C 
ENDBRANCH  12  15
ENDBRANCH   2   6
BRANCH   1  18
ATOM     17  C   LIG    1       -1.333   2.092  -1.507  0.00  0.00    +0.027 C 
ATOM     18  C   LIG    1       -0.464   1.466  -0.414  0.00  0.00    +0.122 C 
ENDBRANCH   1  18
BRANCH   5  19
ATOM     19  S   LIG    1        0.470   4.167   1.247  0.00  0.00    -0.077 S 
BRANCH  19  20
ATOM     20  C   LIG    1        0.335   5.214   2.717  0.00  0.00    +0.173 C 
BRANCH  20  21
ATOM     21  C   LIG    1        1.262   6.394   2.580  0.00  0.00    +0.227 C 
ATOM     22  N   LIG    1        1.330   7.315   3.562  0.00  0.00    -0.285 N 
ATOM     23  H   LIG    1        0.728   7.261   4.321  0.00  0.00    +0.155 HD
ATOM     24  O   LIG    1        1.948   6.515   1.587  0.00  0.00    -0.275 OA
BRANCH  22  25
ATOM     25  C   LIG    1        2.266   8.346   3.488  0.00  0.00    +0.033 A 
ATOM     26  C   LIG    1        3.507   8.116   2.901  0.00  0.00    +0.024 A 
ATOM     27  C   LIG    1        4.431   9.132   2.822  0.00  0.00    +0.017 A 
ATOM     28  C   LIG    1        4.126  10.394   3.340  0.00  0.00    +0.059 A 
ATOM     29  C   LIG    1        2.880  10.620   3.933  0.00  0.00    +0.017 A 
ATOM     30  C   LIG    1        1.959   9.600   4.005  0.00  0.00    +0.024 A 
BRANCH  28  31
ATOM     31  C   LIG    1        5.116  11.485   3.262  0.00  0.00    +0.337 C 
ATOM     32  O   LIG    1        4.849  12.581   3.712  0.00  0.00    -0.245 OA
BRANCH  31  33
ATOM     33  O   LIG    1        6.316  11.265   2.690  0.00  0.00    -0.477 OA
ATOM     34  H   LIG    1        6.522  10.419   2.342  0.00  0.00    +0.295 HD
ENDBRANCH  31  33
ENDBRANCH  28  31
ENDBRANCH  22  25
ENDBRANCH  20  21
ENDBRANCH  19  20
ENDBRANCH   5  19
TORSDOF 9
