REMARK  Name = ZINC09176388
REMARK                            x       y       z     vdW  Elec       q    Type
REMARK                         _______ _______ _______ _____ _____    ______ ____
ROOT
ATOM      1  C   LIG    1        7.235  -5.593  -0.104  0.00  0.00    +0.281 C 
ATOM      2  N   LIG    1        8.583  -5.623  -0.114  0.00  0.00    -0.202 N 
ATOM      3  H   LIG    1        9.087  -4.794  -0.110  0.00  0.00    +0.178 HD
ATOM      4  O   LIG    1        6.603  -6.633  -0.109  0.00  0.00    -0.267 OA
ENDROOT
BRANCH   1   7
ATOM      5  C   LIG    1        4.983  -2.713  -0.060  0.00  0.00    +0.093 A 
ATOM      6  C   LIG    1        5.160  -4.108  -0.074  0.00  0.00    +0.062 A 
ATOM      7  C   LIG    1        6.529  -4.302  -0.086  0.00  0.00    +0.122 A 
ATOM      8  N   LIG    1        7.096  -3.059  -0.079  0.00  0.00    -0.272 N 
ATOM      9  H   LIG    1        8.050  -2.881  -0.085  0.00  0.00    +0.189 HD
ATOM     10  N   LIG    1        6.178  -2.160  -0.069  0.00  0.00    -0.173 NA
BRANCH   5  16
ATOM     11  C   LIG    1       -0.016   1.357   0.009  0.00  0.00    +0.001 A 
ATOM     12  C   LIG    1        1.168   2.091   0.002  0.00  0.00    +0.001 A 
ATOM     13  C   LIG    1        2.378   1.468  -0.013  0.00  0.00    +0.008 A 
ATOM     14  C   LIG    1        2.437   0.063  -0.021  0.00  0.00    -0.017 A 
ATOM     15  C   LIG    1        3.668  -0.612  -0.036  0.00  0.00    +0.018 A 
ATOM     16  C   LIG    1        3.685  -1.994  -0.044  0.00  0.00    +0.003 A 
ATOM     17  C   LIG    1        2.486  -2.723  -0.036  0.00  0.00    +0.011 A 
ATOM     18  C   LIG    1        1.284  -2.089  -0.022  0.00  0.00    +0.009 A 
ATOM     19  C   LIG    1        1.232  -0.684  -0.013  0.00  0.00    -0.018 A 
ATOM     20  C   LIG    1        0.002  -0.004   0.002  0.00  0.00    +0.008 A 
ENDBRANCH   5  16
ENDBRANCH   1   7
BRANCH   2  21
ATOM     21  N   LIG    1        9.256  -6.852  -0.131  0.00  0.00    -0.187 NA
ATOM     22  C   LIG    1       10.555  -6.881  -0.141  0.00  0.00    +0.142 C 
BRANCH  22  23
ATOM     23  C   LIG    1       11.261  -8.170  -0.159  0.00  0.00    +0.044 A 
ATOM     24  C   LIG    1       12.722  -8.222  -0.164  0.00  0.00    -0.006 A 
ATOM     25  C   LIG    1       13.494  -7.054  -0.152  0.00  0.00    +0.009 A 
ATOM     26  C   LIG    1       14.854  -7.145  -0.158  0.00  0.00    +0.001 A 
ATOM     27  C   LIG    1       15.488  -8.386  -0.174  0.00  0.00    +0.001 A 
ATOM     28  C   LIG    1       14.767  -9.541  -0.186  0.00  0.00    +0.008 A 
ATOM     29  C   LIG    1       13.363  -9.484  -0.181  0.00  0.00    -0.017 A 
ATOM     30  C   LIG    1       12.585 -10.656  -0.192  0.00  0.00    +0.012 A 
ATOM     31  C   LIG    1       11.228 -10.590  -0.186  0.00  0.00    +0.046 A 
ATOM     32  C   LIG    1       10.552  -9.371  -0.165  0.00  0.00    +0.126 A 
BRANCH  32  33
ATOM     33  O   LIG    1        9.194  -9.352  -0.154  0.00  0.00    -0.506 OA
ATOM     34  H   LIG    1        8.794  -9.339  -1.034  0.00  0.00    +0.292 HD
ENDBRANCH  32  33
ENDBRANCH  22  23
ENDBRANCH   2  21
TORSDOF 5
