REMARK  Name = ZINC09673186
REMARK                            x       y       z     vdW  Elec       q    Type
REMARK                         _______ _______ _______ _____ _____    ______ ____
ROOT
ATOM      1  C   LIG    1        3.102  -6.540  -0.051  0.00  0.00    +0.193 A 
ATOM      2  C   LIG    1        3.486  -7.842  -0.065  0.00  0.00    +0.008 A 
ATOM      3  C   LIG    1        2.586  -9.051  -0.073  0.00  0.00    +0.048 C 
ATOM      4  C   LIG    1        4.948  -7.834  -0.071  0.00  0.00    +0.026 A 
ATOM      5  C   LIG    1        5.927  -8.830  -0.085  0.00  0.00    +0.040 A 
ATOM      6  C   LIG    1        7.248  -8.481  -0.087  0.00  0.00    +0.106 A 
ATOM      7  C   LIG    1        7.623  -7.144  -0.074  0.00  0.00    +0.032 A 
ATOM      8  C   LIG    1        6.672  -6.147  -0.060  0.00  0.00    +0.049 A 
ATOM      9  C   LIG    1        5.322  -6.477  -0.059  0.00  0.00    +0.136 A 
ATOM     10  O   LIG    1        4.192  -5.744  -0.053  0.00  0.00    -0.450 OA
ENDROOT
BRANCH   1  13
ATOM     11  N   LIG    1        1.447  -4.746  -0.032  0.00  0.00    -0.305 N 
ATOM     12  H   LIG    1        2.176  -4.106  -0.032  0.00  0.00    +0.149 HD
ATOM     13  C   LIG    1        1.710  -6.067  -0.040  0.00  0.00    +0.280 C 
ATOM     14  O   LIG    1        0.796  -6.870  -0.040  0.00  0.00    -0.267 OA
BRANCH  11  15
ATOM     15  C   LIG    1        0.059  -4.275  -0.021  0.00  0.00    +0.140 C 
BRANCH  15  20
ATOM     16  C   LIG    1       -0.018   1.503   0.010  0.00  0.00    +0.044 C 
ATOM     17  C   LIG    1        0.002  -0.004   0.002  0.00  0.00    -0.050 A 
ATOM     18  C   LIG    1        0.006  -0.689  -1.199  0.00  0.00    +0.003 A 
ATOM     19  C   LIG    1        0.025  -2.071  -1.206  0.00  0.00    +0.005 A 
ATOM     20  C   LIG    1        0.040  -2.768  -0.013  0.00  0.00    -0.030 A 
ATOM     21  C   LIG    1        0.037  -2.084   1.188  0.00  0.00    +0.005 A 
ATOM     22  C   LIG    1        0.023  -0.702   1.195  0.00  0.00    +0.003 A 
ENDBRANCH  15  20
ENDBRANCH  11  15
ENDBRANCH   1  13
BRANCH   6  23
ATOM     23  S   LIG    1        8.485  -9.736  -0.104  0.00  0.00    +0.061 S 
ATOM     24  O   LIG    1        7.885 -10.905   0.437  0.00  0.00    -0.153 OA
ATOM     25  O   LIG    1        9.659  -9.157   0.448  0.00  0.00    -0.153 OA
BRANCH  23  26
ATOM     26  N   LIG    1        8.822 -10.069  -1.691  0.00  0.00    -0.176 NA
ATOM     27  C   LIG    1        8.070 -11.103  -2.415  0.00  0.00    +0.112 C 
ATOM     28  C   LIG    1        7.502 -10.490  -3.700  0.00  0.00    +0.002 C 
ATOM     29  C   LIG    1        6.830 -11.583  -4.532  0.00  0.00    +0.009 C 
ATOM     30  C   LIG    1        8.640  -9.860  -4.506  0.00  0.00    +0.009 C 
ATOM     31  C   LIG    1        9.291  -8.744  -3.686  0.00  0.00    +0.002 C 
ATOM     32  C   LIG    1       10.406  -8.092  -4.505  0.00  0.00    +0.009 C 
ATOM     33  C   LIG    1        9.875  -9.332  -2.403  0.00  0.00    +0.112 C 
ENDBRANCH  23  26
ENDBRANCH   6  23
TORSDOF 5
