REMARK  Name = ZINC09229229
REMARK                            x       y       z     vdW  Elec       q    Type
REMARK                         _______ _______ _______ _____ _____    ______ ____
ROOT
ATOM      1  N   LIG    1        0.688  -0.476  -1.203  0.00  0.00    -0.277 N 
ATOM      2  C   LIG    1       -0.033  -0.705  -2.365  0.00  0.00    +0.169 A 
ATOM      3  C   LIG    1        0.642  -1.153  -3.496  0.00  0.00    +0.149 A 
ATOM      4  N   LIG    1       -0.307  -1.295  -4.489  0.00  0.00    -0.332 N 
ATOM      5  C   LIG    1       -1.503  -0.937  -3.944  0.00  0.00    +0.141 A 
ATOM      6  H   LIG    1       -0.152  -1.592  -5.399  0.00  0.00    +0.168 HD
ATOM      7  C   LIG    1        2.036  -1.361  -3.426  0.00  0.00    +0.282 A 
ATOM      8  N   LIG    1        2.682  -1.121  -2.266  0.00  0.00    -0.259 N 
ATOM      9  O   LIG    1        2.650  -1.752  -4.403  0.00  0.00    -0.265 OA
ATOM     10  N   LIG    1       -1.322  -0.590  -2.685  0.00  0.00    -0.210 NA
ATOM     11  C   LIG    1        2.018  -0.683  -1.183  0.00  0.00    +0.334 A 
ATOM     12  O   LIG    1        2.634  -0.472  -0.156  0.00  0.00    -0.246 OA
ENDROOT
BRANCH   5  13
ATOM     13  C   LIG    1       -2.800  -0.936  -4.653  0.00  0.00    +0.017 A 
ATOM     14  C   LIG    1       -2.868  -1.330  -5.991  0.00  0.00    +0.011 A 
ATOM     15  C   LIG    1       -4.081  -1.327  -6.647  0.00  0.00    +0.001 A 
ATOM     16  C   LIG    1       -5.230  -0.935  -5.982  0.00  0.00    +0.000 A 
ATOM     17  C   LIG    1       -5.169  -0.544  -4.656  0.00  0.00    +0.001 A 
ATOM     18  C   LIG    1       -3.963  -0.547  -3.987  0.00  0.00    +0.011 A 
ENDBRANCH   5  13
BRANCH   1  20
ATOM     19  C   LIG    1       -0.019   1.526   0.010  0.00  0.00    +0.027 C 
ATOM     20  C   LIG    1        0.002  -0.004   0.002  0.00  0.00    +0.125 C 
ENDBRANCH   1  20
BRANCH   8  21
ATOM     21  C   LIG    1        4.129  -1.335  -2.188  0.00  0.00    +0.126 C 
ATOM     22  C   LIG    1        4.857  -0.044  -2.568  0.00  0.00    +0.027 C 
ENDBRANCH   8  21
TORSDOF 3
