REMARK  Name = ZINC09366804
REMARK                            x       y       z     vdW  Elec       q    Type
REMARK                         _______ _______ _______ _____ _____    ______ ____
ROOT
ATOM      1  C   LIG    1        1.279  -7.196  -1.708  0.00  0.00    +0.189 A 
ATOM      2  N   LIG    1        1.281  -6.553  -0.551  0.00  0.00    -0.125 NA
ATOM      3  N   LIG    1        1.265  -5.293  -0.487  0.00  0.00    -0.133 NA
ATOM      4  C   LIG    1        1.245  -4.537  -1.575  0.00  0.00    +0.160 A 
ATOM      5  S   LIG    1        1.243  -5.807  -2.837  0.00  0.00    -0.024 S 
ENDROOT
BRANCH   1   7
ATOM      6  C   LIG    1        1.315  -9.445  -0.952  0.00  0.00    +0.251 C 
ATOM      7  N   LIG    1        1.294  -8.563  -1.971  0.00  0.00    -0.259 N 
ATOM      8  H   LIG    1        1.290  -8.880  -2.888  0.00  0.00    +0.157 HD
ATOM      9  O   LIG    1        1.320  -9.047   0.197  0.00  0.00    -0.270 OA
BRANCH   6  15
ATOM     10  C   LIG    1        1.340 -12.711  -2.804  0.00  0.00    +0.001 A 
ATOM     11  C   LIG    1        1.361 -13.615  -1.756  0.00  0.00    +0.001 A 
ATOM     12  C   LIG    1        1.367 -13.168  -0.448  0.00  0.00    +0.021 A 
ATOM     13  C   LIG    1        1.352 -11.813  -0.178  0.00  0.00    +0.053 A 
ATOM     14 CL   LIG    1        1.359 -11.252   1.464  0.00  0.00    -0.083 Cl
ATOM     15  C   LIG    1        1.331 -10.895  -1.232  0.00  0.00    +0.055 A 
ATOM     16  C   LIG    1        1.319 -11.356  -2.550  0.00  0.00    +0.014 A 
ENDBRANCH   6  15
ENDBRANCH   1   7
BRANCH   4  17
ATOM     17  S   LIG    1        1.220  -2.782  -1.734  0.00  0.00    -0.092 S 
BRANCH  17  18
ATOM     18  C   LIG    1        1.228  -2.186  -0.020  0.00  0.00    +0.111 C 
BRANCH  18  19
ATOM     19  C   LIG    1        1.208  -0.679  -0.013  0.00  0.00    -0.037 A 
ATOM     20  C   LIG    1        0.002  -0.004   0.002  0.00  0.00    +0.005 A 
ATOM     21  C   LIG    1       -0.017   1.378   0.010  0.00  0.00    +0.015 A 
ATOM     22  C   LIG    1        1.172   2.086   0.002  0.00  0.00    +0.018 A 
ATOM     23 BR   LIG    1        1.147   3.976   0.013  0.00  0.00    -0.050 Br
ATOM     24  C   LIG    1        2.379   1.410  -0.013  0.00  0.00    +0.015 A 
ATOM     25  C   LIG    1        2.396   0.028  -0.021  0.00  0.00    +0.005 A 
ENDBRANCH  18  19
ENDBRANCH  17  18
ENDBRANCH   4  17
TORSDOF 5
