REMARK  Name = ZINC12468792
REMARK                            x       y       z     vdW  Elec       q    Type
REMARK                         _______ _______ _______ _____ _____    ______ ____
ROOT
ATOM      1  C   LIG    1       -7.577  -4.619  -3.890  0.00  0.00    +0.027 C 
ATOM      2  C   LIG    1       -7.909  -5.103  -5.317  0.00  0.00    +0.121 C 
ATOM      3  C   LIG    1       -7.857  -6.647  -5.217  0.00  0.00    +0.063 C 
ATOM      4  C   LIG    1       -8.475  -6.920  -3.822  0.00  0.00    +0.120 C 
ATOM      5  C   LIG    1       -7.937  -5.774  -2.939  0.00  0.00    +0.024 C 
ENDROOT
BRANCH   2   6
ATOM      6  O   LIG    1       -6.933  -4.626  -6.246  0.00  0.00    -0.391 OA
ATOM      7  H   LIG    1       -7.093  -4.901  -7.160  0.00  0.00    +0.210 HD
ENDBRANCH   2   6
BRANCH   4   8
ATOM      8  O   LIG    1       -8.041  -8.186  -3.322  0.00  0.00    -0.391 OA
ATOM      9  H   LIG    1       -8.304  -8.937  -3.872  0.00  0.00    +0.210 HD
ENDBRANCH   4   8
BRANCH   1  10
ATOM     10  C   LIG    1       -6.086  -4.295  -3.780  0.00  0.00    +0.033 C 
BRANCH  10  12
ATOM     11  C   LIG    1       -4.837  -4.351  -1.683  0.00  0.00    -0.031 C 
ATOM     12  C   LIG    1       -5.783  -3.789  -2.394  0.00  0.00    -0.031 C 
BRANCH  11  13
ATOM     13  C   LIG    1       -3.939  -5.387  -2.310  0.00  0.00    +0.027 C 
BRANCH  13  14
ATOM     14  C   LIG    1       -2.477  -5.002  -2.078  0.00  0.00    +0.015 C 
BRANCH  14  15
ATOM     15  C   LIG    1       -1.565  -6.053  -2.713  0.00  0.00    +0.121 C 
BRANCH  15  16
ATOM     16  C   LIG    1       -0.125  -5.674  -2.485  0.00  0.00    +0.307 C 
ATOM     17  O   LIG    1        0.145  -4.666  -1.876  0.00  0.00    -0.251 OA
BRANCH  16  18
ATOM     18  O   LIG    1        0.858  -6.456  -2.958  0.00  0.00    -0.462 OA
BRANCH  18  20
ATOM     19  C   LIG    1        2.680  -6.632  -1.379  0.00  0.00    +0.052 C 
ATOM     20  C   LIG    1        2.200  -6.036  -2.704  0.00  0.00    +0.170 C 
ATOM     21  C   LIG    1        3.108  -6.517  -3.838  0.00  0.00    +0.052 C 
ENDBRANCH  18  20
ENDBRANCH  16  18
ENDBRANCH  15  16
ENDBRANCH  14  15
ENDBRANCH  13  14
ENDBRANCH  11  13
ENDBRANCH  10  12
ENDBRANCH   1  10
BRANCH   5  22
ATOM     22  C   LIG    1       -9.015  -5.322  -1.951  0.00  0.00    +0.009 C 
BRANCH  22  23
ATOM     23  C   LIG    1       -9.274  -6.436  -0.935  0.00  0.00    +0.032 C 
BRANCH  23  24
ATOM     24  C   LIG    1      -10.351  -5.985   0.053  0.00  0.00    +0.115 C 
BRANCH  24  25
ATOM     25  O   LIG    1      -11.589  -5.810  -0.639  0.00  0.00    -0.392 OA
ATOM     26  H   LIG    1      -11.915  -6.612  -1.071  0.00  0.00    +0.210 HD
ENDBRANCH  24  25
BRANCH  24  27
ATOM     27  C   LIG    1      -10.522  -7.046   1.142  0.00  0.00    +0.036 C 
BRANCH  27  28
ATOM     28  C   LIG    1      -11.508  -6.540   2.197  0.00  0.00    +0.037 C 
BRANCH  28  29
ATOM     29  C   LIG    1      -11.676  -7.585   3.270  0.00  0.00    -0.047 A 
ATOM     30  C   LIG    1      -12.655  -8.553   3.144  0.00  0.00    +0.003 A 
ATOM     31  C   LIG    1      -12.809  -9.512   4.128  0.00  0.00    +0.000 A 
ATOM     32  C   LIG    1      -11.983  -9.503   5.237  0.00  0.00    +0.000 A 
ATOM     33  C   LIG    1      -11.004  -8.536   5.362  0.00  0.00    +0.000 A 
ATOM     34  C   LIG    1      -10.847  -7.580   4.376  0.00  0.00    +0.003 A 
ENDBRANCH  28  29
ENDBRANCH  27  28
ENDBRANCH  24  27
ENDBRANCH  23  24
ENDBRANCH  22  23
ENDBRANCH   5  22
TORSDOF 17
