REMARK  Name = ZINC09036122
REMARK                            x       y       z     vdW  Elec       q    Type
REMARK                         _______ _______ _______ _____ _____    ______ ____
ROOT
ATOM      1  C   LIG    1       -0.004   1.078  -0.229  0.00  0.00    +0.026 A 
ATOM      2  C   LIG    1        1.179   1.771   0.055  0.00  0.00    -0.022 A 
ATOM      3  C   LIG    1        1.124   3.126   0.406  0.00  0.00    +0.026 A 
ATOM      4  C   LIG    1       -0.092   3.769   0.470  0.00  0.00    +0.056 A 
ATOM      5  I   LIG    1       -0.177   5.795   0.995  0.00  0.00    -0.040 I 
ATOM      6  C   LIG    1       -1.264   3.075   0.188  0.00  0.00    +0.143 A 
ATOM      7  C   LIG    1       -1.214   1.732  -0.167  0.00  0.00    +0.056 A 
ATOM      8  I   LIG    1       -2.984   0.698  -0.600  0.00  0.00    -0.040 I 
ENDROOT
BRANCH   2   9
ATOM      9  C   LIG    1        2.473   1.081  -0.016  0.00  0.00    +0.028 C 
ATOM     10  C   LIG    1        2.545  -0.177  -0.521  0.00  0.00    +0.077 C 
ATOM     11  C   LIG    1        3.686  -1.113  -0.558  0.00  0.00    +0.256 C 
ATOM     12  N   LIG    1        3.468  -2.292  -1.116  0.00  0.00    -0.270 N 
ATOM     13  H   LIG    1        4.190  -2.938  -1.157  0.00  0.00    +0.156 HD
ATOM     14  C   LIG    1        2.265  -2.615  -1.633  0.00  0.00    +0.118 C 
ATOM     15  S   LIG    1        1.792  -4.073  -2.395  0.00  0.00    -0.027 S 
ATOM     16  O   LIG    1        4.772  -0.816  -0.095  0.00  0.00    -0.269 OA
ATOM     17  S   LIG    1        1.285  -1.153  -1.331  0.00  0.00    -0.061 S 
ENDBRANCH   2   9
BRANCH   6  18
ATOM     18  O   LIG    1       -2.461   3.714   0.254  0.00  0.00    -0.505 OA
ATOM     19  H   LIG    1       -2.734   4.122  -0.579  0.00  0.00    +0.292 HD
ENDBRANCH   6  18
TORSDOF 2
