REMARK  Name = ZINC08581881
REMARK                            x       y       z     vdW  Elec       q    Type
REMARK                         _______ _______ _______ _____ _____    ______ ____
ROOT
ATOM      1  C   LIG    1        3.860  -0.446   0.383  0.00  0.00    +0.105 A 
ATOM      2  C   LIG    1        4.096  -1.794   0.899  0.00  0.00    +0.086 A 
ATOM      3  C   LIG    1        3.326  -2.740   1.596  0.00  0.00    +0.131 A 
ATOM      4  N   LIG    1        3.889  -3.902   1.912  0.00  0.00    -0.220 NA
ATOM      5  C   LIG    1        5.140  -4.167   1.582  0.00  0.00    +0.225 A 
ATOM      6  N   LIG    1        5.899  -3.312   0.931  0.00  0.00    -0.216 NA
ATOM      7  C   LIG    1        5.425  -2.120   0.569  0.00  0.00    +0.161 A 
ATOM      8  N   LIG    1        5.942  -1.048  -0.094  0.00  0.00    -0.259 N 
ATOM      9  H   LIG    1        6.845  -0.988  -0.444  0.00  0.00    +0.191 HD
ATOM     10  N   LIG    1        4.968  -0.049  -0.196  0.00  0.00    -0.171 NA
ENDROOT
BRANCH   1  14
ATOM     11  C   LIG    1        0.245   1.770   0.688  0.00  0.00    +0.000 A 
ATOM     12  C   LIG    1        0.731   1.089   1.790  0.00  0.00    +0.001 A 
ATOM     13  C   LIG    1        1.904   0.368   1.697  0.00  0.00    +0.010 A 
ATOM     14  C   LIG    1        2.599   0.327   0.489  0.00  0.00    +0.003 A 
ATOM     15  C   LIG    1        2.104   1.014  -0.618  0.00  0.00    +0.010 A 
ATOM     16  C   LIG    1        0.930   1.732  -0.513  0.00  0.00    +0.001 A 
ENDBRANCH   1  14
BRANCH   3  17
ATOM     17  N   LIG    1        2.017  -2.469   1.944  0.00  0.00    -0.342 N 
ATOM     18  H   LIG    1        1.571  -3.011   2.615  0.00  0.00    +0.144 HD
ATOM     19  H   LIG    1        1.543  -1.738   1.519  0.00  0.00    +0.144 HD
ENDBRANCH   3  17
TORSDOF 2
