REMARK  Name = ZINC12343955
REMARK                            x       y       z     vdW  Elec       q    Type
REMARK                         _______ _______ _______ _____ _____    ______ ____
ROOT
ATOM      1  C   LIG    1       -4.186   2.461   2.364  0.00  0.00    +0.028 C 
ATOM      2  C   LIG    1       -4.967   1.795   1.478  0.00  0.00    +0.080 C 
ATOM      3  C   LIG    1       -6.415   1.930   1.212  0.00  0.00    +0.258 C 
ATOM      4  N   LIG    1       -6.921   1.141   0.279  0.00  0.00    -0.243 N 
ATOM      5  H   LIG    1       -7.867   1.196   0.073  0.00  0.00    +0.159 HD
ATOM      6  C   LIG    1       -6.151   0.260  -0.392  0.00  0.00    +0.283 C 
ATOM      7  O   LIG    1       -6.482  -0.518  -1.267  0.00  0.00    -0.262 OA
ATOM      8  O   LIG    1       -7.106   2.726   1.820  0.00  0.00    -0.269 OA
ATOM      9  S   LIG    1       -4.529   0.518   0.307  0.00  0.00    -0.026 S 
ENDROOT
BRANCH   1  15
ATOM     10  C   LIG    1       -0.107   0.618   0.168  0.00  0.00    +0.044 C 
ATOM     11  C   LIG    1       -0.757   1.391   1.286  0.00  0.00    -0.050 A 
ATOM     12  C   LIG    1        0.021   1.931   2.296  0.00  0.00    +0.003 A 
ATOM     13  C   LIG    1       -0.566   2.643   3.327  0.00  0.00    +0.001 A 
ATOM     14  C   LIG    1       -1.934   2.819   3.357  0.00  0.00    +0.008 A 
ATOM     15  C   LIG    1       -2.727   2.277   2.340  0.00  0.00    -0.024 A 
ATOM     16  C   LIG    1       -2.125   1.564   1.298  0.00  0.00    +0.011 A 
ENDBRANCH   1  15
TORSDOF 1
