REMARK  Name = ZINC12617413
REMARK                            x       y       z     vdW  Elec       q    Type
REMARK                         _______ _______ _______ _____ _____    ______ ____
ROOT
ATOM      1  C   LIG    1        1.680   3.078   0.003  0.00  0.00    +0.044 C 
ATOM      2  C   LIG    1        1.269   1.764  -0.018  0.00  0.00    +0.152 C 
ATOM      3  C   LIG    1        2.123   0.560  -0.039  0.00  0.00    +0.364 C 
ATOM      4  O   LIG    1        1.265  -0.483  -0.055  0.00  0.00    -0.402 OA
ATOM      5  C   LIG    1        0.005  -0.005  -0.046  0.00  0.00    +0.232 C 
ATOM      6  O   LIG    1        3.338   0.517  -0.042  0.00  0.00    -0.243 OA
ATOM      7  N   LIG    1       -0.014   1.299  -0.024  0.00  0.00    -0.205 NA
ENDROOT
BRANCH   5   8
ATOM      8  C   LIG    1       -1.203  -0.853  -0.059  0.00  0.00    +0.040 A 
ATOM      9  C   LIG    1       -2.471  -0.266  -0.043  0.00  0.00    +0.016 A 
ATOM     10  C   LIG    1       -3.597  -1.062  -0.061  0.00  0.00    +0.042 A 
ATOM     11  C   LIG    1       -3.474  -2.442  -0.084  0.00  0.00    +0.158 A 
ATOM     12  F   LIG    1       -4.581  -3.216  -0.096  0.00  0.00    -0.202 F 
ATOM     13  C   LIG    1       -2.217  -3.032  -0.094  0.00  0.00    +0.159 A 
ATOM     14  F   LIG    1       -2.104  -4.378  -0.116  0.00  0.00    -0.202 F 
ATOM     15  C   LIG    1       -1.083  -2.244  -0.082  0.00  0.00    +0.054 A 
ENDBRANCH   5   8
BRANCH   1  18
ATOM     16  C   LIG    1       -1.573   4.925  -0.173  0.00  0.00    +0.020 A 
ATOM     17  C   LIG    1       -0.684   3.871  -0.082  0.00  0.00    +0.011 A 
ATOM     18  C   LIG    1        0.691   4.157  -0.092  0.00  0.00    -0.005 A 
ATOM     19  C   LIG    1        1.101   5.494  -0.189  0.00  0.00    +0.118 A 
ATOM     20  N   LIG    1        0.212   6.460  -0.279  0.00  0.00    -0.263 NA
ATOM     21  C   LIG    1       -1.086   6.217  -0.272  0.00  0.00    +0.111 A 
ENDBRANCH   1  18
TORSDOF 2
