REMARK  Name = ZINC12371624
REMARK                            x       y       z     vdW  Elec       q    Type
REMARK                         _______ _______ _______ _____ _____    ______ ____
ROOT
ATOM      1  C   LIG    1       -2.505   1.301   0.021  0.00  0.00    +0.032 C 
ATOM      2  C   LIG    1       -3.684   1.969   0.133  0.00  0.00    +0.078 C 
ATOM      3  C   LIG    1       -5.063   1.444   0.252  0.00  0.00    +0.275 C 
ATOM      4  N   LIG    1       -6.022   2.339   0.351  0.00  0.00    -0.168 NA
ATOM      5  C   LIG    1       -5.783   3.640   0.334  0.00  0.00    +0.102 C 
ATOM      6  O   LIG    1       -5.298   0.246   0.263  0.00  0.00    -0.267 OA
ATOM      7  S   LIG    1       -4.006   3.728   0.170  0.00  0.00    -0.066 S 
ENDROOT
BRANCH   1  12
ATOM      8  C   LIG    1        1.145   2.157  -0.264  0.00  0.00    +0.162 A 
ATOM      9  C   LIG    1        1.072   3.441  -0.779  0.00  0.00    +0.049 A 
ATOM     10  C   LIG    1       -0.158   4.028  -1.029  0.00  0.00    +0.004 A 
ATOM     11  C   LIG    1       -1.323   3.341  -0.769  0.00  0.00    +0.012 A 
ATOM     12  C   LIG    1       -1.268   2.039  -0.253  0.00  0.00    +0.021 A 
ATOM     13  C   LIG    1       -0.020   1.448   0.006  0.00  0.00    +0.166 A 
BRANCH   8  15
ATOM     14  C   LIG    1        3.513   2.375  -0.321  0.00  0.00    +0.277 C 
ATOM     15  O   LIG    1        2.357   1.589  -0.021  0.00  0.00    -0.491 OA
ENDBRANCH   8  15
BRANCH  13  16
ATOM     16  O   LIG    1        0.047   0.190   0.510  0.00  0.00    -0.503 OA
ATOM     17  H   LIG    1        0.057   0.153   1.477  0.00  0.00    +0.292 HD
ENDBRANCH  13  16
ENDBRANCH   1  12
BRANCH   5  18
ATOM     18  C   LIG    1       -6.750   4.752   0.428  0.00  0.00    +0.005 A 
ATOM     19  C   LIG    1       -6.304   6.075   0.399  0.00  0.00    +0.010 A 
ATOM     20  C   LIG    1       -7.214   7.108   0.482  0.00  0.00    +0.001 A 
ATOM     21  C   LIG    1       -8.565   6.836   0.606  0.00  0.00    +0.000 A 
ATOM     22  C   LIG    1       -9.014   5.528   0.641  0.00  0.00    +0.001 A 
ATOM     23  C   LIG    1       -8.115   4.485   0.554  0.00  0.00    +0.010 A 
ENDBRANCH   5  18
TORSDOF 4
