REMARK  Name = ZINC09045952
REMARK                            x       y       z     vdW  Elec       q    Type
REMARK                         _______ _______ _______ _____ _____    ______ ____
ROOT
ATOM      1  C   LIG    1        4.937  -2.716  -0.062  0.00  0.00    +0.018 C 
ATOM      2  C   LIG    1        4.964  -4.102   0.035  0.00  0.00    +0.101 C 
ATOM      3  C   LIG    1        3.721  -4.901   0.042  0.00  0.00    +0.276 C 
ATOM      4  O   LIG    1        2.631  -4.360  -0.039  0.00  0.00    -0.268 OA
ATOM      5  N   LIG    1        3.822  -6.236   0.138  0.00  0.00    -0.127 NA
ATOM      6  C   LIG    1        4.980  -6.840   0.225  0.00  0.00    +0.278 C 
ATOM      7  N   LIG    1        6.172  -6.189   0.227  0.00  0.00    -0.238 N 
ATOM      8  H   LIG    1        6.994  -6.699   0.295  0.00  0.00    +0.159 HD
ATOM      9  C   LIG    1        6.233  -4.843   0.131  0.00  0.00    +0.256 C 
ATOM     10  O   LIG    1        7.302  -4.261   0.128  0.00  0.00    -0.270 OA
ENDROOT
BRANCH   1  12
ATOM     11  C   LIG    1        3.677  -0.687  -0.171  0.00  0.00    +0.008 C 
ATOM     12  C   LIG    1        3.719  -2.030   0.035  0.00  0.00    +0.001 C 
BRANCH  11  16
ATOM     13  C   LIG    1       -0.008   1.387   0.119  0.00  0.00    +0.000 A 
ATOM     14  C   LIG    1        1.150   2.082  -0.185  0.00  0.00    +0.001 A 
ATOM     15  C   LIG    1        2.353   1.415  -0.282  0.00  0.00    +0.008 A 
ATOM     16  C   LIG    1        2.401   0.032  -0.070  0.00  0.00    -0.025 A 
ATOM     17  C   LIG    1        1.224  -0.663   0.238  0.00  0.00    +0.008 A 
ATOM     18  C   LIG    1        0.030   0.019   0.330  0.00  0.00    +0.001 A 
ENDBRANCH  11  16
ENDBRANCH   1  12
BRANCH   6  19
ATOM     19  O   LIG    1        4.991  -8.184   0.318  0.00  0.00    -0.483 OA
ATOM     20  H   LIG    1        4.184  -8.660   0.319  0.00  0.00    +0.295 HD
ENDBRANCH   6  19
TORSDOF 3
