REMARK  Name = ZINC12577045
REMARK                            x       y       z     vdW  Elec       q    Type
REMARK                         _______ _______ _______ _____ _____    ______ ____
ROOT
ATOM      1  C   LIG    1        2.505  -1.368  -0.029  0.00  0.00    +0.028 C 
ATOM      2  C   LIG    1        1.826  -0.223  -0.285  0.00  0.00    +0.080 C 
ATOM      3  C   LIG    1        2.303   1.177  -0.278  0.00  0.00    +0.258 C 
ATOM      4  N   LIG    1        1.410   2.107  -0.570  0.00  0.00    -0.243 N 
ATOM      5  H   LIG    1        1.681   3.039  -0.576  0.00  0.00    +0.159 HD
ATOM      6  C   LIG    1        0.132   1.792  -0.859  0.00  0.00    +0.283 C 
ATOM      7  O   LIG    1       -0.784   2.539  -1.146  0.00  0.00    -0.262 OA
ATOM      8  O   LIG    1        3.458   1.457  -0.016  0.00  0.00    -0.269 OA
ATOM      9  S   LIG    1        0.109   0.011  -0.725  0.00  0.00    -0.026 S 
ENDROOT
BRANCH   1  16
ATOM     10  C   LIG    1        0.382  -2.661   0.080  0.00  0.00    +0.009 A 
ATOM     11  C   LIG    1       -0.288  -3.862   0.165  0.00  0.00    +0.016 A 
ATOM     12  C   LIG    1        0.419  -5.050   0.252  0.00  0.00    +0.018 A 
ATOM     13 BR   LIG    1       -0.511  -6.691   0.376  0.00  0.00    -0.050 Br
ATOM     14  C   LIG    1        1.804  -5.041   0.247  0.00  0.00    +0.016 A 
ATOM     15  C   LIG    1        2.489  -3.849   0.156  0.00  0.00    +0.009 A 
ATOM     16  C   LIG    1        1.782  -2.644   0.068  0.00  0.00    -0.024 A 
ENDBRANCH   1  16
TORSDOF 1
