REMARK  Name = ZINC09227024
REMARK                            x       y       z     vdW  Elec       q    Type
REMARK                         _______ _______ _______ _____ _____    ______ ____
ROOT
ATOM      1  C   LIG    1        0.605  -2.143  -1.026  0.00  0.00    +0.141 C 
ATOM      2  C   LIG    1        1.214  -2.817  -2.081  0.00  0.00    +0.038 C 
ATOM      3  C   LIG    1        1.222  -4.209  -2.068  0.00  0.00    +0.044 C 
ATOM      4  C   LIG    1        1.747  -5.247  -2.968  0.00  0.00    -0.022 A 
ATOM      5  C   LIG    1        2.438  -5.212  -4.178  0.00  0.00    +0.006 A 
ATOM      6  C   LIG    1        2.802  -6.389  -4.793  0.00  0.00    +0.000 A 
ATOM      7  C   LIG    1        2.484  -7.608  -4.214  0.00  0.00    +0.002 A 
ATOM      8  C   LIG    1        1.800  -7.658  -3.018  0.00  0.00    +0.023 A 
ATOM      9  C   LIG    1        1.424  -6.480  -2.380  0.00  0.00    +0.031 A 
ATOM     10  N   LIG    1        0.747  -6.237  -1.199  0.00  0.00    -0.339 N 
ATOM     11  H   LIG    1        0.412  -6.924  -0.602  0.00  0.00    +0.146 HD
ATOM     12  C   LIG    1        0.614  -4.882  -0.992  0.00  0.00    +0.092 C 
ATOM     13  C   LIG    1        0.027  -4.126   0.023  0.00  0.00    +0.104 C 
ATOM     14  N   LIG    1        0.045  -2.814  -0.022  0.00  0.00    -0.304 NA
ATOM     15  H   LIG    1       -0.368  -2.316   0.700  0.00  0.00    +0.123 HD
ENDROOT
BRANCH   1  19
ATOM     16  C   LIG    1       -0.018   1.461   0.010  0.00  0.00    +0.128 C 
ATOM     17  N   LIG    1        0.002  -0.004   0.002  0.00  0.00    -0.317 N 
ATOM     18  H   LIG    1       -0.404  -0.499   0.731  0.00  0.00    +0.148 HD
ATOM     19  C   LIG    1        0.585  -0.664  -1.018  0.00  0.00    +0.230 C 
ATOM     20  O   LIG    1        1.094  -0.045  -1.931  0.00  0.00    -0.274 OA
ENDBRANCH   1  19
TORSDOF 1
