REMARK  Name = ZINC09686362
REMARK                            x       y       z     vdW  Elec       q    Type
REMARK                         _______ _______ _______ _____ _____    ______ ____
ROOT
ATOM      1  N   LIG    1       -2.005   1.230   1.467  0.00  0.00    -0.315 N 
ATOM      2  H   LIG    1       -2.474   0.669   0.829  0.00  0.00    +0.149 HD
ATOM      3  C   LIG    1       -0.721   1.573   1.246  0.00  0.00    +0.216 C 
ATOM      4  O   LIG    1       -0.135   2.274   2.043  0.00  0.00    -0.276 OA
ENDROOT
BRANCH   3   5
ATOM      5  C   LIG    1       -0.013   1.086   0.008  0.00  0.00    +0.078 C 
ATOM      6  C   LIG    1       -0.746   1.595  -1.236  0.00  0.00    +0.031 C 
ATOM      7  C   LIG    1        0.012   1.147  -2.488  0.00  0.00    +0.107 C 
ATOM      8  N   LIG    1        1.379   1.681  -2.451  0.00  0.00    -0.314 N 
ATOM      9  C   LIG    1        2.118   1.169  -1.290  0.00  0.00    +0.107 C 
ATOM     10  C   LIG    1        1.423   1.617  -0.003  0.00  0.00    +0.031 C 
BRANCH   8  11
ATOM     11  C   LIG    1        2.055   1.403  -3.635  0.00  0.00    +0.144 A 
ATOM     12  C   LIG    1        1.517   1.808  -4.858  0.00  0.00    +0.047 A 
ATOM     13  C   LIG    1        2.223   1.510  -6.008  0.00  0.00    +0.034 A 
ATOM     14  C   LIG    1        3.436   0.821  -5.875  0.00  0.00    +0.100 A 
ATOM     15  N   LIG    1        3.868   0.476  -4.668  0.00  0.00    -0.147 NA
ATOM     16  N   LIG    1        3.212   0.759  -3.602  0.00  0.00    -0.134 NA
BRANCH  14  17
ATOM     17  C   LIG    1        4.230   0.479  -7.073  0.00  0.00    +0.039 A 
ATOM     18  C   LIG    1        5.426  -0.183  -7.155  0.00  0.00    +0.018 A 
ATOM     19  C   LIG    1        5.984  -0.391  -8.397  0.00  0.00    +0.008 A 
ATOM     20  C   LIG    1        5.335   0.066  -9.499  0.00  0.00    +0.046 A 
ATOM     21  S   LIG    1        3.877   0.814  -8.790  0.00  0.00    -0.095 S 
ENDBRANCH  14  17
ENDBRANCH   8  11
ENDBRANCH   3   5
BRANCH   1  22
ATOM     22  C   LIG    1       -2.693   1.703   2.671  0.00  0.00    +0.105 C 
BRANCH  22  26
ATOM     23  N   LIG    1       -5.726   0.603   4.412  0.00  0.00    +0.383 N 
ATOM     24  H   LIG    1       -5.424   0.364   5.364  0.00  0.00    -0.081 HD
ATOM     25  C   LIG    1       -4.901   1.710   3.903  0.00  0.00    -0.073 C 
ATOM     26  C   LIG    1       -4.129   1.174   2.679  0.00  0.00    -0.012 C 
ATOM     27  C   LIG    1       -4.146  -0.362   2.894  0.00  0.00    -0.015 C 
ATOM     28  C   LIG    1       -5.543  -0.570   3.534  0.00  0.00    -0.078 C 
BRANCH  23  29
ATOM     29  C   LIG    1       -7.157   1.002   4.443  0.00  0.00    -0.043 C 
BRANCH  29  34
ATOM     30  C   LIG    1      -10.197  -3.011   7.279  0.00  0.00    +0.044 C 
ATOM     31  C   LIG    1       -9.405  -1.964   6.539  0.00  0.00    -0.050 A 
ATOM     32  C   LIG    1       -8.851  -0.902   7.228  0.00  0.00    +0.003 A 
ATOM     33  C   LIG    1       -8.124   0.058   6.550  0.00  0.00    +0.002 A 
ATOM     34  C   LIG    1       -7.950  -0.045   5.182  0.00  0.00    -0.064 A 
ATOM     35  C   LIG    1       -8.508  -1.105   4.492  0.00  0.00    +0.002 A 
ATOM     36  C   LIG    1       -9.232  -2.067   5.172  0.00  0.00    +0.003 A 
ENDBRANCH  29  34
ENDBRANCH  23  29
ENDBRANCH  22  26
ENDBRANCH   1  22
TORSDOF 7
