REMARK  Name = ZINC12418314
REMARK                            x       y       z     vdW  Elec       q    Type
REMARK                         _______ _______ _______ _____ _____    ______ ____
ROOT
ATOM      1  C   LIG    1        5.301   6.766  -0.015  0.00  0.00    +0.032 C 
ATOM      2  C   LIG    1        4.463   5.752   0.332  0.00  0.00    +0.078 C 
ATOM      3  C   LIG    1        4.764   4.335   0.635  0.00  0.00    +0.275 C 
ATOM      4  N   LIG    1        3.737   3.574   0.945  0.00  0.00    -0.168 NA
ATOM      5  C   LIG    1        2.498   4.036   0.988  0.00  0.00    +0.102 C 
ATOM      6  O   LIG    1        5.903   3.896   0.598  0.00  0.00    -0.267 OA
ATOM      7  S   LIG    1        2.688   5.756   0.544  0.00  0.00    -0.066 S 
ENDROOT
BRANCH   1  13
ATOM      8  C   LIG    1        5.021  10.406  -0.910  0.00  0.00    +0.163 A 
ATOM      9  C   LIG    1        3.822  10.735  -0.296  0.00  0.00    +0.069 A 
ATOM     10  C   LIG    1        3.108   9.776   0.406  0.00  0.00    +0.045 A 
ATOM     11 CL   LIG    1        1.608  10.204   1.168  0.00  0.00    -0.083 Cl
ATOM     12  C   LIG    1        3.579   8.484   0.497  0.00  0.00    +0.031 A 
ATOM     13  C   LIG    1        4.792   8.137  -0.113  0.00  0.00    +0.023 A 
ATOM     14  C   LIG    1        5.514   9.110  -0.824  0.00  0.00    +0.166 A 
BRANCH   8  16
ATOM     15  C   LIG    1        5.149  12.665  -1.644  0.00  0.00    +0.277 C 
ATOM     16  O   LIG    1        5.715  11.353  -1.596  0.00  0.00    -0.491 OA
ENDBRANCH   8  16
BRANCH  14  17
ATOM     17  O   LIG    1        6.688   8.785  -1.423  0.00  0.00    -0.503 OA
ATOM     18  H   LIG    1        6.593   8.476  -2.334  0.00  0.00    +0.292 HD
ENDBRANCH  14  17
ENDBRANCH   1  13
BRANCH   5  19
ATOM     19  C   LIG    1        1.258   3.305   1.316  0.00  0.00    +0.005 A 
ATOM     20  C   LIG    1        1.308   1.947   1.636  0.00  0.00    +0.010 A 
ATOM     21  C   LIG    1        0.145   1.270   1.942  0.00  0.00    +0.001 A 
ATOM     22  C   LIG    1       -1.069   1.934   1.926  0.00  0.00    +0.000 A 
ATOM     23  C   LIG    1       -1.125   3.281   1.616  0.00  0.00    +0.001 A 
ATOM     24  C   LIG    1        0.029   3.970   1.309  0.00  0.00    +0.010 A 
ENDBRANCH   5  19
TORSDOF 4
