REMARK  Name = ZINC12503861
REMARK                            x       y       z     vdW  Elec       q    Type
REMARK                         _______ _______ _______ _____ _____    ______ ____
ROOT
ATOM      1  C   LIG    1        3.564   2.181  -0.020  0.00  0.00    +0.273 C 
ATOM      2  C   LIG    1        4.604   1.550   0.933  0.00  0.00    +0.197 C 
ATOM      3  C   LIG    1        5.951   1.750   0.205  0.00  0.00    +0.178 C 
ATOM      4  C   LIG    1        5.567   2.478  -1.103  0.00  0.00    +0.178 C 
ATOM      5  O   LIG    1        4.182   2.131  -1.324  0.00  0.00    -0.344 OA
ENDROOT
BRANCH   1  10
ATOM      6  C   LIG    1        1.291  -0.701  -0.014  0.00  0.00    +0.203 A 
ATOM      7  C   LIG    1        0.002  -0.004   0.002  0.00  0.00    +0.272 A 
ATOM      8  N   LIG    1       -0.016   1.345   0.009  0.00  0.00    -0.272 N 
ATOM      9  C   LIG    1        1.140   2.034   0.002  0.00  0.00    +0.348 A 
ATOM     10  N   LIG    1        2.325   1.399  -0.013  0.00  0.00    -0.183 N 
ATOM     11  O   LIG    1        1.112   3.250   0.009  0.00  0.00    -0.245 OA
ATOM     12  H   LIG    1       -0.863   1.818   0.016  0.00  0.00    +0.174 HD
ATOM     13  O   LIG    1       -1.039  -0.634   0.008  0.00  0.00    -0.266 OA
ATOM     14  N   LIG    1        2.391   0.001  -0.021  0.00  0.00    -0.168 NA
ENDBRANCH   1  10
BRANCH   2  15
ATOM     15  O   LIG    1        4.608   2.230   2.190  0.00  0.00    -0.385 OA
ATOM     16  H   LIG    1        5.243   1.875   2.827  0.00  0.00    +0.210 HD
ENDBRANCH   2  15
BRANCH   3  17
ATOM     17  O   LIG    1        6.830   2.559   0.989  0.00  0.00    -0.386 OA
ATOM     18  H   LIG    1        7.103   2.150   1.821  0.00  0.00    +0.210 HD
ENDBRANCH   3  17
BRANCH   4  19
ATOM     19  C   LIG    1        6.432   1.981  -2.263  0.00  0.00    +0.206 C 
BRANCH  19  20
ATOM     20  O   LIG    1        6.090   2.697  -3.452  0.00  0.00    -0.284 OA
BRANCH  20  21
ATOM     21  P   LIG    1        6.805   2.432  -4.870  0.00  0.00    +0.472 P 
ATOM     22  O   LIG    1        6.695   0.998  -5.218  0.00  0.00    -0.228 OA
BRANCH  21  23
ATOM     23  O   LIG    1        8.358   2.844  -4.774  0.00  0.00    -0.303 OA
ATOM     24  H   LIG    1        8.792   2.311  -4.089  0.00  0.00    +0.222 HD
ENDBRANCH  21  23
BRANCH  21  25
ATOM     25  O   LIG    1        6.085   3.316  -6.007  0.00  0.00    -0.303 OA
ATOM     26  H   LIG    1        5.149   3.068  -6.065  0.00  0.00    +0.222 HD
ENDBRANCH  21  25
ENDBRANCH  20  21
ENDBRANCH  19  20
ENDBRANCH   4  19
TORSDOF 8
