REMARK  Name = ZINC08589514
REMARK                            x       y       z     vdW  Elec       q    Type
REMARK                         _______ _______ _______ _____ _____    ______ ____
ROOT
ATOM      1  C   LIG    1       -5.814   4.611   0.079  0.00  0.00    +0.249 A 
ATOM      2  C   LIG    1       -4.850   4.071   0.915  0.00  0.00    +0.204 A 
ATOM      3  N   LIG    1       -3.696   3.429   0.668  0.00  0.00    -0.209 NA
ATOM      4  C   LIG    1       -2.940   3.004   1.666  0.00  0.00    +0.137 A 
ATOM      5  C   LIG    1       -3.345   3.220   2.987  0.00  0.00    +0.077 A 
ATOM      6  C   LIG    1       -4.535   3.889   3.291  0.00  0.00    +0.087 A 
ATOM      7  C   LIG    1       -4.816   4.042   4.650  0.00  0.00    +0.036 A 
ATOM      8  C   LIG    1       -3.960   3.562   5.581  0.00  0.00    +0.048 A 
ATOM      9  S   LIG    1       -2.666   2.845   4.582  0.00  0.00    -0.092 S 
ATOM     10  N   LIG    1       -5.284   4.309   2.188  0.00  0.00    -0.192 N 
ATOM     11  N   LIG    1       -6.502   4.988   2.079  0.00  0.00    -0.057 NA
ATOM     12  N   LIG    1       -6.772   5.142   0.829  0.00  0.00    -0.108 NA
ENDROOT
BRANCH   1  13
ATOM     13  S   LIG    1       -5.775   4.595  -1.683  0.00  0.00    +0.047 S 
ATOM     14  O   LIG    1       -4.411   4.466  -2.058  0.00  0.00    -0.163 OA
ATOM     15  O   LIG    1       -6.586   5.678  -2.117  0.00  0.00    -0.163 OA
BRANCH  13  22
ATOM     16  C   LIG    1       -5.854   1.960  -2.392  0.00  0.00    +0.028 A 
ATOM     17  C   LIG    1       -6.488   0.801  -2.799  0.00  0.00    +0.017 A 
ATOM     18  C   LIG    1       -7.851   0.805  -3.034  0.00  0.00    +0.018 A 
ATOM     19 BR   LIG    1       -8.718  -0.778  -3.598  0.00  0.00    -0.050 Br
ATOM     20  C   LIG    1       -8.580   1.967  -2.856  0.00  0.00    +0.017 A 
ATOM     21  C   LIG    1       -7.946   3.124  -2.443  0.00  0.00    +0.028 A 
ATOM     22  C   LIG    1       -6.583   3.120  -2.208  0.00  0.00    +0.096 A 
ENDBRANCH  13  22
ENDBRANCH   1  13
BRANCH   4  23
ATOM     23  N   LIG    1       -1.753   2.342   1.404  0.00  0.00    -0.324 N 
ATOM     24  H   LIG    1       -1.199   2.031   2.137  0.00  0.00    +0.148 HD
BRANCH  23  25
ATOM     25  C   LIG    1       -1.333   2.112   0.020  0.00  0.00    +0.138 C 
BRANCH  25  26
ATOM     26  C   LIG    1       -0.017   1.378   0.010  0.00  0.00    -0.027 A 
ATOM     27  C   LIG    1        1.169   2.089   0.002  0.00  0.00    +0.009 A 
ATOM     28  C   LIG    1        2.379   1.420  -0.012  0.00  0.00    +0.050 A 
ATOM     29  C   LIG    1        2.405   0.035  -0.021  0.00  0.00    +0.166 A 
ATOM     30  C   LIG    1        1.211  -0.681  -0.013  0.00  0.00    +0.167 A 
ATOM     31  O   LIG    1        1.501  -2.015  -0.024  0.00  0.00    -0.453 OA
ATOM     32  C   LIG    1        2.873  -2.106  -0.450  0.00  0.00    +0.466 C 
ATOM     33  O   LIG    1        3.444  -0.851  -0.036  0.00  0.00    -0.453 OA
ATOM     34  C   LIG    1        0.002  -0.004   0.002  0.00  0.00    +0.054 A 
ENDBRANCH  25  26
ENDBRANCH  23  25
ENDBRANCH   4  23
TORSDOF 5
