REMARK  Name = ZINC11681341
REMARK                            x       y       z     vdW  Elec       q    Type
REMARK                         _______ _______ _______ _____ _____    ______ ____
ROOT
ATOM      1  N   LIG    1       -0.719   1.711   3.793  0.00  0.00    +0.386 N 
ATOM      2  H   LIG    1       -0.755   2.735   3.861  0.00  0.00    -0.081 HD
ATOM      3  C   LIG    1        0.075   1.184   4.924  0.00  0.00    -0.011 C 
ATOM      4  C   LIG    1       -0.537   1.683   6.235  0.00  0.00    +0.134 C 
ATOM      5  C   LIG    1       -1.981   1.185   6.341  0.00  0.00    +0.168 C 
ATOM      6  C   LIG    1       -2.772   1.677   5.126  0.00  0.00    +0.129 C 
ATOM      7  C   LIG    1       -2.096   1.177   3.847  0.00  0.00    -0.044 C 
ENDROOT
BRANCH   4   8
ATOM      8  O   LIG    1        0.223   1.183   7.337  0.00  0.00    -0.391 OA
ATOM      9  H   LIG    1       -0.110   1.458   8.202  0.00  0.00    +0.210 HD
ENDBRANCH   4   8
BRANCH   5  10
ATOM     10  O   LIG    1       -1.994  -0.243   6.374  0.00  0.00    -0.387 OA
ATOM     11  H   LIG    1       -2.879  -0.627   6.436  0.00  0.00    +0.210 HD
ENDBRANCH   5  10
BRANCH   6  12
ATOM     12  O   LIG    1       -2.804   3.105   5.123  0.00  0.00    -0.391 OA
ATOM     13  H   LIG    1       -3.288   3.486   4.377  0.00  0.00    +0.210 HD
ENDBRANCH   6  12
BRANCH   1  14
ATOM     14  C   LIG    1       -0.083   1.337   2.513  0.00  0.00    -0.078 C 
BRANCH  14  15
ATOM     15  C   LIG    1       -0.807   2.058   1.374  0.00  0.00    -0.019 C 
BRANCH  15  17
ATOM     16  C   LIG    1       -0.869   2.420  -1.097  0.00  0.00    +0.004 C 
ATOM     17  C   LIG    1       -0.145   1.700   0.042  0.00  0.00    -0.005 C 
ENDBRANCH  15  17
ENDBRANCH  14  15
ENDBRANCH   1  14
BRANCH   3  18
ATOM     18  C   LIG    1        1.511   1.696   4.804  0.00  0.00    +0.143 C 
BRANCH  18  19
ATOM     19  O   LIG    1        1.518   3.122   4.892  0.00  0.00    -0.397 OA
ATOM     20  H   LIG    1        2.398   3.517   4.824  0.00  0.00    +0.209 HD
ENDBRANCH  18  19
ENDBRANCH   3  18
TORSDOF 8
