REMARK  Name = ZINC08687060
REMARK                            x       y       z     vdW  Elec       q    Type
REMARK                         _______ _______ _______ _____ _____    ______ ____
ROOT
ATOM      1  N   LIG    1        2.829  -7.399  -3.308  0.00  0.00    -0.312 N 
ATOM      2  C   LIG    1        2.029  -8.006  -2.235  0.00  0.00    +0.107 C 
ATOM      3  C   LIG    1        2.707  -9.305  -1.789  0.00  0.00    +0.026 C 
ATOM      4  C   LIG    1        2.916 -10.210  -3.005  0.00  0.00    +0.033 C 
ATOM      5  C   LIG    1        3.830  -9.510  -4.013  0.00  0.00    +0.026 C 
ATOM      6  C   LIG    1        3.161  -8.211  -4.486  0.00  0.00    +0.107 C 
ENDROOT
BRANCH   1   7
ATOM      7  C   LIG    1        3.245  -6.121  -3.215  0.00  0.00    +0.137 C 
ATOM      8  S   LIG    1        4.053  -5.386  -4.533  0.00  0.00    -0.018 S 
BRANCH   7   9
ATOM      9  N   LIG    1        3.027  -5.421  -2.083  0.00  0.00    -0.297 N 
ATOM     10  H   LIG    1        2.650  -5.862  -1.306  0.00  0.00    +0.154 HD
BRANCH   9  14
ATOM     11  C   LIG    1        3.970  -1.363  -1.926  0.00  0.00    +0.121 A 
ATOM     12  C   LIG    1        3.425  -1.904  -3.081  0.00  0.00    +0.047 A 
ATOM     13  C   LIG    1        3.113  -3.248  -3.134  0.00  0.00    +0.027 A 
ATOM     14  C   LIG    1        3.344  -4.058  -2.030  0.00  0.00    +0.033 A 
ATOM     15  C   LIG    1        3.890  -3.516  -0.875  0.00  0.00    +0.027 A 
ATOM     16  C   LIG    1        4.207  -2.173  -0.825  0.00  0.00    +0.047 A 
BRANCH  11  17
ATOM     17  O   LIG    1        4.278  -0.039  -1.874  0.00  0.00    -0.492 OA
BRANCH  17  19
ATOM     18  C   LIG    1        4.417   2.189  -2.799  0.00  0.00    +0.048 C 
ATOM     19  C   LIG    1        4.008   0.735  -3.044  0.00  0.00    +0.225 C 
ENDBRANCH  17  19
ENDBRANCH  11  17
ENDBRANCH   9  14
ENDBRANCH   7   9
ENDBRANCH   1   7
BRANCH   4  20
ATOM     20  C   LIG    1        3.562 -11.523  -2.558  0.00  0.00    +0.119 C 
BRANCH  20  21
ATOM     21  C   LIG    1        3.744 -12.425  -3.752  0.00  0.00    -0.011 A 
ATOM     22  C   LIG    1        2.822 -12.405  -4.781  0.00  0.00    +0.007 A 
ATOM     23  C   LIG    1        2.990 -13.232  -5.876  0.00  0.00    +0.000 A 
ATOM     24  C   LIG    1        4.080 -14.079  -5.942  0.00  0.00    +0.000 A 
ATOM     25  C   LIG    1        5.004 -14.098  -4.913  0.00  0.00    +0.000 A 
ATOM     26  C   LIG    1        4.838 -13.268  -3.820  0.00  0.00    +0.007 A 
ENDBRANCH  20  21
BRANCH  20  27
ATOM     27  C   LIG    1        2.672 -12.202  -1.548  0.00  0.00    -0.011 A 
ATOM     28  C   LIG    1        1.307 -12.254  -1.754  0.00  0.00    +0.007 A 
ATOM     29  C   LIG    1        0.491 -12.876  -0.827  0.00  0.00    +0.000 A 
ATOM     30  C   LIG    1        1.042 -13.447   0.305  0.00  0.00    +0.000 A 
ATOM     31  C   LIG    1        2.408 -13.395   0.511  0.00  0.00    +0.000 A 
ATOM     32  C   LIG    1        3.224 -12.777  -0.418  0.00  0.00    +0.007 A 
ENDBRANCH  20  27
BRANCH  20  33
ATOM     33  O   LIG    1        4.834 -11.252  -1.967  0.00  0.00    -0.379 OA
ATOM     34  H   LIG    1        4.792 -10.676  -1.191  0.00  0.00    +0.211 HD
ENDBRANCH  20  33
ENDBRANCH   4  20
TORSDOF 9
