REMARK  Name = ZINC11847508
REMARK                            x       y       z     vdW  Elec       q    Type
REMARK                         _______ _______ _______ _____ _____    ______ ____
ROOT
ATOM      1  N   LIG    1        5.090  -2.800   0.224  0.00  0.00    +0.381 N 
ATOM      2  H   LIG    1        5.505  -2.293   1.015  0.00  0.00    -0.082 HD
ATOM      3  C   LIG    1        5.176  -4.252   0.488  0.00  0.00    -0.078 C 
ATOM      4  C   LIG    1        6.638  -4.624   0.747  0.00  0.00    -0.014 C 
ATOM      5  C   LIG    1        7.475  -4.273  -0.486  0.00  0.00    +0.005 C 
ATOM      6  C   LIG    1        7.318  -2.781  -0.792  0.00  0.00    -0.014 C 
ATOM      7  C   LIG    1        5.837  -2.462  -1.006  0.00  0.00    -0.078 C 
ENDROOT
BRANCH   1   8
ATOM      8  C   LIG    1        3.676  -2.396   0.084  0.00  0.00    -0.044 C 
BRANCH   8   9
ATOM      9  C   LIG    1        3.051  -2.310   1.478  0.00  0.00    +0.135 C 
BRANCH   9  10
ATOM     10  O   LIG    1        3.762  -1.348   2.260  0.00  0.00    -0.390 OA
ATOM     11  H   LIG    1        3.754  -0.456   1.888  0.00  0.00    +0.210 HD
ENDBRANCH   9  10
BRANCH   9  12
ATOM     12  C   LIG    1        1.586  -1.885   1.355  0.00  0.00    +0.258 C 
BRANCH  12  13
ATOM     13  O   LIG    1        0.971  -1.917   2.644  0.00  0.00    -0.489 OA
BRANCH  13  19
ATOM     14  C   LIG    1       -0.999  -1.573   3.931  0.00  0.00    +0.003 A 
ATOM     15  C   LIG    1       -2.332  -1.215   3.999  0.00  0.00    +0.053 A 
ATOM     16  C   LIG    1       -3.011  -0.846   2.848  0.00  0.00    +0.121 A 
ATOM     17  C   LIG    1       -2.350  -0.832   1.628  0.00  0.00    +0.049 A 
ATOM     18  C   LIG    1       -1.019  -1.195   1.559  0.00  0.00    +0.049 A 
ATOM     19  C   LIG    1       -0.340  -1.564   2.711  0.00  0.00    +0.125 A 
BRANCH  14  21
ATOM     20  C   LIG    1       -1.212  -1.900   6.380  0.00  0.00    +0.015 C 
ATOM     21  C   LIG    1       -0.262  -1.975   5.183  0.00  0.00    -0.009 C 
ATOM     22  C   LIG    1        0.917  -1.026   5.407  0.00  0.00    +0.015 C 
ATOM     23  C   LIG    1        0.257  -3.406   5.032  0.00  0.00    +0.015 C 
ENDBRANCH  14  21
BRANCH  16  24
ATOM     24  O   LIG    1       -4.322  -0.494   2.914  0.00  0.00    -0.495 OA
ATOM     25  C   LIG    1       -4.958  -0.125   1.689  0.00  0.00    +0.277 C 
ENDBRANCH  16  24
ENDBRANCH  13  19
ENDBRANCH  12  13
ENDBRANCH   9  12
ENDBRANCH   8   9
ENDBRANCH   1   8
BRANCH   5  26
ATOM     26  C   LIG    1        8.947  -4.586  -0.211  0.00  0.00    +0.132 C 
BRANCH  26  27
ATOM     27  N   LIG    1        9.730  -4.363  -1.429  0.00  0.00    -0.275 N 
ATOM     28  C   LIG    1        9.902  -5.387  -2.286  0.00  0.00    +0.262 A 
ATOM     29  C   LIG    1       10.678  -5.200  -3.521  0.00  0.00    +0.048 A 
ATOM     30  C   LIG    1       10.875  -6.226  -4.434  0.00  0.00    +0.014 A 
ATOM     31  C   LIG    1       11.620  -6.002  -5.586  0.00  0.00    +0.001 A 
ATOM     32  C   LIG    1       12.174  -4.782  -5.853  0.00  0.00    +0.008 A 
ATOM     33  C   LIG    1       11.997  -3.716  -4.954  0.00  0.00    -0.016 A 
ATOM     34  C   LIG    1       12.546  -2.443  -5.185  0.00  0.00    +0.008 A 
ATOM     35  C   LIG    1       12.347  -1.439  -4.282  0.00  0.00    +0.001 A 
ATOM     36  C   LIG    1       11.606  -1.638  -3.123  0.00  0.00    +0.014 A 
ATOM     37  C   LIG    1       11.047  -2.880  -2.858  0.00  0.00    +0.048 A 
ATOM     38  C   LIG    1       11.243  -3.932  -3.781  0.00  0.00    +0.007 A 
ATOM     39  O   LIG    1        9.410  -6.471  -2.039  0.00  0.00    -0.267 OA
ATOM     40  C   LIG    1       10.255  -3.142  -1.647  0.00  0.00    +0.262 A 
ATOM     41  O   LIG    1       10.074  -2.252  -0.839  0.00  0.00    -0.267 OA
ENDBRANCH  26  27
ENDBRANCH   5  26
TORSDOF 10
