REMARK  Name = ZINC12428618
REMARK                            x       y       z     vdW  Elec       q    Type
REMARK                         _______ _______ _______ _____ _____    ______ ____
ROOT
ATOM      1  C   LIG    1       -0.069   5.316   0.033  0.00  0.00    +0.028 C 
ATOM      2  C   LIG    1       -1.046   5.986  -0.628  0.00  0.00    +0.080 C 
ATOM      3  C   LIG    1       -1.214   7.439  -0.842  0.00  0.00    +0.258 C 
ATOM      4  N   LIG    1       -2.276   7.816  -1.534  0.00  0.00    -0.243 N 
ATOM      5  H   LIG    1       -2.424   8.761  -1.696  0.00  0.00    +0.159 HD
ATOM      6  C   LIG    1       -3.157   6.918  -2.017  0.00  0.00    +0.283 C 
ATOM      7  O   LIG    1       -4.167   7.124  -2.664  0.00  0.00    -0.262 OA
ATOM      8  O   LIG    1       -0.416   8.246  -0.404  0.00  0.00    -0.269 OA
ATOM      9  S   LIG    1       -2.481   5.353  -1.486  0.00  0.00    -0.026 S 
ENDROOT
BRANCH   1  12
ATOM     10  C   LIG    1        0.737   1.792   1.026  0.00  0.00    +0.002 A 
ATOM     11  C   LIG    1        0.872   3.144   0.796  0.00  0.00    +0.008 A 
ATOM     12  C   LIG    1       -0.205   3.874   0.280  0.00  0.00    -0.023 A 
ATOM     13  C   LIG    1       -1.412   3.223   0.001  0.00  0.00    +0.023 A 
ATOM     14  C   LIG    1       -1.529   1.868   0.232  0.00  0.00    +0.018 A 
ATOM     15 BR   LIG    1       -3.156   0.983  -0.152  0.00  0.00    -0.050 Br
ATOM     16  C   LIG    1       -0.460   1.155   0.748  0.00  0.00    +0.015 A 
ENDBRANCH   1  12
TORSDOF 1
