REMARK  Name = ZINC08699907
REMARK                            x       y       z     vdW  Elec       q    Type
REMARK                         _______ _______ _______ _____ _____    ______ ____
ROOT
ATOM      1  C   LIG    1       -0.735   2.019   1.269  0.00  0.00    +0.160 C 
ENDROOT
BRANCH   1   2
ATOM      2  O   LIG    1       -0.754   3.448   1.277  0.00  0.00    -0.375 OA
BRANCH   2   3
ATOM      3  C   LIG    1       -1.404   4.014   2.417  0.00  0.00    +0.195 C 
BRANCH   3  10
ATOM      4  C   LIG    1       -0.309   6.218   2.872  0.00  0.00    +0.007 A 
ATOM      5  C   LIG    1       -0.271   7.597   2.780  0.00  0.00    +0.015 A 
ATOM      6  C   LIG    1       -1.296   8.276   2.147  0.00  0.00    +0.018 A 
ATOM      7 BR   LIG    1       -1.248  10.163   2.028  0.00  0.00    -0.050 Br
ATOM      8  C   LIG    1       -2.357   7.575   1.602  0.00  0.00    +0.015 A 
ATOM      9  C   LIG    1       -2.391   6.196   1.689  0.00  0.00    +0.007 A 
ATOM     10  C   LIG    1       -1.366   5.518   2.322  0.00  0.00    -0.022 A 
ENDBRANCH   3  10
ENDBRANCH   2   3
ENDBRANCH   1   2
BRANCH   1  11
ATOM     11  C   LIG    1       -0.019   1.526   0.010  0.00  0.00    +0.034 C 
BRANCH  11  12
ATOM     12  C   LIG    1        0.002  -0.004   0.002  0.00  0.00    +0.057 C 
BRANCH  12  13
ATOM     13  C   LIG    1        0.707  -0.490  -1.238  0.00  0.00    +0.033 A 
ATOM     14  N   LIG    1        0.394  -0.169  -2.501  0.00  0.00    -0.350 N 
ATOM     15  H   LIG    1       -0.374   0.453  -2.782  0.00  0.00    +0.166 HD
ATOM     16  C   LIG    1        1.216  -0.768  -3.316  0.00  0.00    +0.171 A 
ATOM     17  N   LIG    1        2.084  -1.506  -2.590  0.00  0.00    -0.352 N 
ATOM     18  H   LIG    1        2.824  -2.075  -2.949  0.00  0.00    +0.166 HD
ATOM     19  C   LIG    1        1.761  -1.329  -1.272  0.00  0.00    +0.105 A 
ENDBRANCH  12  13
ENDBRANCH  11  12
ENDBRANCH   1  11
TORSDOF 6
