REMARK  Name = ZINC12957760
REMARK                            x       y       z     vdW  Elec       q    Type
REMARK                         _______ _______ _______ _____ _____    ______ ____
ROOT
ATOM      1  S   LIG    1        0.062  -4.537  -0.037  0.00  0.00    -0.087 S 
ENDROOT
BRANCH   1   6
ATOM      2  C   LIG    1        1.085   1.416  -0.054  0.00  0.00    +0.044 C 
ATOM      3  C   LIG    1        0.833  -0.070  -0.051  0.00  0.00    -0.049 A 
ATOM      4  C   LIG    1       -0.416  -0.556   0.289  0.00  0.00    +0.004 A 
ATOM      5  C   LIG    1       -0.654  -1.918   0.294  0.00  0.00    +0.017 A 
ATOM      6  C   LIG    1        0.362  -2.801  -0.043  0.00  0.00    +0.033 A 
ATOM      7  C   LIG    1        1.621  -2.309  -0.387  0.00  0.00    +0.039 A 
ATOM      8  C   LIG    1        1.849  -0.942  -0.395  0.00  0.00    +0.027 A 
BRANCH   7   9
ATOM      9  N   LIG    1        2.651  -3.194  -0.729  0.00  0.00    -0.357 N 
ATOM     10  H   LIG    1        3.526  -2.851  -0.968  0.00  0.00    +0.142 HD
ATOM     11  H   LIG    1        2.489  -4.151  -0.727  0.00  0.00    +0.142 HD
ENDBRANCH   7   9
ENDBRANCH   1   6
BRANCH   1  12
ATOM     12  C   LIG    1       -0.090  -4.949  -1.743  0.00  0.00    +0.014 A 
ATOM     13  C   LIG    1       -0.082  -3.947  -2.706  0.00  0.00    +0.015 A 
ATOM     14  C   LIG    1       -0.202  -4.274  -4.042  0.00  0.00    +0.001 A 
ATOM     15  C   LIG    1       -0.329  -5.597  -4.423  0.00  0.00    +0.000 A 
ATOM     16  C   LIG    1       -0.338  -6.597  -3.468  0.00  0.00    +0.003 A 
ATOM     17  C   LIG    1       -0.213  -6.278  -2.130  0.00  0.00    -0.050 A 
BRANCH  17  18
ATOM     18  C   LIG    1       -0.217  -7.370  -1.091  0.00  0.00    -0.043 C 
BRANCH  18  19
ATOM     19  N   LIG    1       -1.551  -7.462  -0.483  0.00  0.00    +0.379 N 
ATOM     20  H   LIG    1       -1.818  -6.559  -0.119  0.00  0.00    -0.082 HD
ATOM     21  C   LIG    1       -1.523  -8.442   0.611  0.00  0.00    -0.096 C 
ATOM     22  C   LIG    1       -2.523  -7.889  -1.498  0.00  0.00    -0.096 C 
ENDBRANCH  18  19
ENDBRANCH  17  18
ENDBRANCH   1  12
TORSDOF 5
