REMARK  Name = ZINC12503817
REMARK                            x       y       z     vdW  Elec       q    Type
REMARK                         _______ _______ _______ _____ _____    ______ ____
ROOT
ATOM      1  C   LIG    1        1.370   1.839  -0.001  0.00  0.00    +0.226 C 
ATOM      2  C   LIG    1        2.073   0.852   0.957  0.00  0.00    +0.087 C 
ATOM      3  C   LIG    1        1.152  -0.389   0.959  0.00  0.00    +0.177 C 
ATOM      4  C   LIG    1        0.002  -0.004   0.002  0.00  0.00    +0.174 C 
ATOM      5  O   LIG    1       -0.018   1.440   0.010  0.00  0.00    -0.349 OA
ENDROOT
BRANCH   1   9
ATOM      6  C   LIG    1        3.025   6.440  -0.638  0.00  0.00    +0.051 C 
ATOM      7  C   LIG    1        2.300   5.405   0.183  0.00  0.00    +0.030 A 
ATOM      8  C   LIG    1        2.171   4.140  -0.269  0.00  0.00    +0.101 A 
ATOM      9  N   LIG    1        1.510   3.213   0.489  0.00  0.00    -0.274 N 
ATOM     10  C   LIG    1        0.981   3.552   1.679  0.00  0.00    +0.331 A 
ATOM     11  N   LIG    1        1.099   4.806   2.156  0.00  0.00    -0.275 N 
ATOM     12  H   LIG    1        0.706   5.039   3.046  0.00  0.00    +0.173 HD
ATOM     13  O   LIG    1        0.393   2.714   2.335  0.00  0.00    -0.246 OA
ATOM     14  C   LIG    1        1.743   5.748   1.439  0.00  0.00    +0.257 A 
ATOM     15  O   LIG    1        1.845   6.883   1.867  0.00  0.00    -0.267 OA
ENDBRANCH   1   9
BRANCH   3  16
ATOM     16  N   LIG    1        1.870  -1.561   0.454  0.00  0.00    -0.106 NA
ATOM     17  N   LIG    1        2.686  -2.029   1.070  0.00  0.00    -0.197 NA
ATOM     18  N   LIG    1        3.501  -2.497   1.686  0.00  0.00    -0.128 NA
ATOM     19  H   LIG    1        3.864  -3.378   1.435  0.00  0.00    +0.228 HD
ENDBRANCH   3  16
BRANCH   4  20
ATOM     20  C   LIG    1       -1.328  -0.558   0.518  0.00  0.00    +0.206 C 
BRANCH  20  21
ATOM     21  O   LIG    1       -2.370  -0.228  -0.403  0.00  0.00    -0.284 OA
BRANCH  21  22
ATOM     22  P   LIG    1       -3.906  -0.654  -0.177  0.00  0.00    +0.472 P 
ATOM     23  O   LIG    1       -4.365  -0.165   1.142  0.00  0.00    -0.228 OA
BRANCH  22  24
ATOM     24  O   LIG    1       -4.031  -2.258  -0.229  0.00  0.00    -0.303 OA
ATOM     25  H   LIG    1       -3.482  -2.648   0.469  0.00  0.00    +0.222 HD
ENDBRANCH  22  24
BRANCH  22  26
ATOM     26  O   LIG    1       -4.818  -0.007  -1.336  0.00  0.00    -0.303 OA
ATOM     27  H   LIG    1       -4.743   0.960  -1.305  0.00  0.00    +0.222 HD
ENDBRANCH  22  26
ENDBRANCH  21  22
ENDBRANCH  20  21
ENDBRANCH   4  20
TORSDOF 7
