REMARK  Name = ZINC12501629
REMARK                            x       y       z     vdW  Elec       q    Type
REMARK                         _______ _______ _______ _____ _____    ______ ____
ROOT
ATOM      1  C   LIG    1       -0.037   1.099  -2.490  0.00  0.00    +0.022 C 
ENDROOT
BRANCH   1   2
ATOM      2  C   LIG    1       -0.777   1.606  -3.730  0.00  0.00    +0.070 C 
ATOM      3  C   LIG    1       -0.135   1.012  -4.985  0.00  0.00    +0.028 C 
BRANCH   2   4
ATOM      4  N   LIG    1       -0.694   3.068  -3.784  0.00  0.00    -0.315 N 
ATOM      5  H   LIG    1        0.039   3.529  -3.347  0.00  0.00    +0.149 HD
ATOM      6  C   LIG    1       -1.636   3.772  -4.442  0.00  0.00    +0.325 C 
ATOM      7  O   LIG    1       -2.552   3.196  -4.989  0.00  0.00    -0.280 OA
ENDBRANCH   2   4
ENDBRANCH   1   2
BRANCH   1   8
ATOM      8  C   LIG    1       -0.753   1.593  -1.232  0.00  0.00    +0.002 C 
BRANCH   8   9
ATOM      9  C   LIG    1       -0.013   1.086   0.008  0.00  0.00    +0.000 C 
BRANCH   9  10
ATOM     10  C   LIG    1       -0.729   1.579   1.267  0.00  0.00    -0.000 C 
BRANCH  10  12
ATOM     11  C   LIG    1       -0.705   1.566   3.765  0.00  0.00    +0.004 C 
ATOM     12  C   LIG    1        0.011   1.072   2.506  0.00  0.00    -0.003 C 
ENDBRANCH  10  12
ENDBRANCH   9  10
ENDBRANCH   8   9
ENDBRANCH   1   8
TORSDOF 6
