REMARK  Name = ZINC11847507
REMARK                            x       y       z     vdW  Elec       q    Type
REMARK                         _______ _______ _______ _____ _____    ______ ____
ROOT
ATOM      1  N   LIG    1       -1.558   3.973   0.038  0.00  0.00    +0.381 N 
ATOM      2  H   LIG    1       -2.481   3.523   0.043  0.00  0.00    -0.082 HD
ATOM      3  C   LIG    1       -0.810   3.549   1.240  0.00  0.00    -0.078 C 
ATOM      4  C   LIG    1       -0.738   2.021   1.268  0.00  0.00    -0.014 C 
ATOM      5  C   LIG    1       -0.019   1.526   0.010  0.00  0.00    +0.005 C 
ATOM      6  C   LIG    1       -0.762   2.034  -1.228  0.00  0.00    -0.014 C 
ATOM      7  C   LIG    1       -0.832   3.562  -1.183  0.00  0.00    -0.078 C 
ENDROOT
BRANCH   1   8
ATOM      8  C   LIG    1       -1.740   5.440   0.047  0.00  0.00    -0.044 C 
BRANCH   8   9
ATOM      9  C   LIG    1       -2.679   5.812   1.196  0.00  0.00    +0.135 C 
BRANCH   9  10
ATOM     10  O   LIG    1       -3.934   5.152   1.018  0.00  0.00    -0.390 OA
ATOM     11  H   LIG    1       -4.386   5.381   0.195  0.00  0.00    +0.210 HD
ENDBRANCH   9  10
BRANCH   9  12
ATOM     12  C   LIG    1       -2.896   7.327   1.206  0.00  0.00    +0.258 C 
BRANCH  12  13
ATOM     13  O   LIG    1       -3.678   7.689   2.346  0.00  0.00    -0.489 OA
BRANCH  13  19
ATOM     14  C   LIG    1       -4.723   9.428   3.587  0.00  0.00    +0.003 A 
ATOM     15  C   LIG    1       -5.009  10.769   3.752  0.00  0.00    +0.053 A 
ATOM     16  C   LIG    1       -4.545  11.695   2.830  0.00  0.00    +0.121 A 
ATOM     17  C   LIG    1       -3.791  11.275   1.744  0.00  0.00    +0.049 A 
ATOM     18  C   LIG    1       -3.501   9.935   1.583  0.00  0.00    +0.049 A 
ATOM     19  C   LIG    1       -3.964   9.008   2.506  0.00  0.00    +0.125 A 
BRANCH  14  21
ATOM     20  C   LIG    1       -6.034   9.140   5.672  0.00  0.00    +0.015 C 
ATOM     21  C   LIG    1       -5.231   8.421   4.587  0.00  0.00    -0.009 C 
ATOM     22  C   LIG    1       -4.046   7.694   5.226  0.00  0.00    +0.015 C 
ATOM     23  C   LIG    1       -6.129   7.406   3.877  0.00  0.00    +0.015 C 
ENDBRANCH  14  21
BRANCH  16  24
ATOM     24  O   LIG    1       -4.831  13.015   2.989  0.00  0.00    -0.495 OA
ATOM     25  C   LIG    1       -4.322  13.913   2.001  0.00  0.00    +0.277 C 
ENDBRANCH  16  24
ENDBRANCH  13  19
ENDBRANCH  12  13
ENDBRANCH   9  12
ENDBRANCH   8   9
ENDBRANCH   1   8
BRANCH   5  26
ATOM     26  C   LIG    1        0.002  -0.004   0.002  0.00  0.00    +0.132 C 
BRANCH  26  27
ATOM     27  N   LIG    1        0.812  -0.488   1.123  0.00  0.00    -0.275 N 
ATOM     28  C   LIG    1        2.129  -0.690   0.932  0.00  0.00    +0.262 A 
ATOM     29  C   LIG    1        2.975  -1.171   2.034  0.00  0.00    +0.048 A 
ATOM     30  C   LIG    1        4.337  -1.387   1.883  0.00  0.00    +0.014 A 
ATOM     31  C   LIG    1        5.094  -1.846   2.954  0.00  0.00    +0.001 A 
ATOM     32  C   LIG    1        4.532  -2.095   4.173  0.00  0.00    +0.008 A 
ATOM     33  C   LIG    1        3.155  -1.889   4.369  0.00  0.00    -0.016 A 
ATOM     34  C   LIG    1        2.529  -2.130   5.604  0.00  0.00    +0.008 A 
ATOM     35  C   LIG    1        1.189  -1.913   5.745  0.00  0.00    +0.001 A 
ATOM     36  C   LIG    1        0.410  -1.455   4.689  0.00  0.00    +0.014 A 
ATOM     37  C   LIG    1        0.989  -1.205   3.454  0.00  0.00    +0.048 A 
ATOM     38  C   LIG    1        2.376  -1.423   3.289  0.00  0.00    +0.007 A 
ATOM     39  O   LIG    1        2.623  -0.470  -0.158  0.00  0.00    -0.267 OA
ATOM     40  C   LIG    1        0.210  -0.718   2.305  0.00  0.00    +0.262 A 
ATOM     41  O   LIG    1       -0.985  -0.524   2.424  0.00  0.00    -0.267 OA
ENDBRANCH  26  27
ENDBRANCH   5  26
TORSDOF 10
