REMARK  Name = ZINC12405523
REMARK                            x       y       z     vdW  Elec       q    Type
REMARK                         _______ _______ _______ _____ _____    ______ ____
ROOT
ATOM      1  C   LIG    1       -2.487   1.393   0.018  0.00  0.00    +0.116 C 
ENDROOT
BRANCH   1   2
ATOM      2  N   LIG    1       -1.095   1.849   0.042  0.00  0.00    -0.331 N 
ATOM      3  C   LIG    1       -0.677   3.137   0.061  0.00  0.00    +0.120 A 
ATOM      4  C   LIG    1        0.687   3.110   0.073  0.00  0.00    +0.143 A 
ATOM      5  N   LIG    1        1.071   1.807   0.068  0.00  0.00    -0.231 NA
ATOM      6  C   LIG    1        0.008   1.056   0.053  0.00  0.00    +0.200 A 
BRANCH   4   7
ATOM      7  C   LIG    1        1.581   4.280   0.090  0.00  0.00    +0.261 C 
ATOM      8  N   LIG    1        2.918   4.107   0.101  0.00  0.00    -0.324 N 
ATOM      9  H   LIG    1        3.507   4.878   0.112  0.00  0.00    +0.145 HD
ATOM     10  H   LIG    1        3.291   3.212   0.098  0.00  0.00    +0.145 HD
ATOM     11  O   LIG    1        1.113   5.403   0.094  0.00  0.00    -0.269 OA
ENDBRANCH   4   7
ENDBRANCH   1   2
BRANCH   1  12
ATOM     12  C   LIG    1       -2.766   0.541   1.258  0.00  0.00    +0.134 C 
ATOM     13  C   LIG    1       -2.377   1.324   2.514  0.00  0.00    +0.040 C 
BRANCH  12  14
ATOM     14  O   LIG    1       -4.157   0.218   1.311  0.00  0.00    -0.390 OA
ATOM     15  H   LIG    1       -4.739   0.989   1.358  0.00  0.00    +0.210 HD
ENDBRANCH  12  14
ENDBRANCH   1  12
BRANCH   1  16
ATOM     16  C   LIG    1       -2.729   0.558  -1.240  0.00  0.00    +0.028 C 
BRANCH  16  17
ATOM     17  C   LIG    1       -4.217   0.221  -1.351  0.00  0.00    +0.002 C 
BRANCH  17  18
ATOM     18  C   LIG    1       -4.481  -0.493  -2.678  0.00  0.00    +0.000 C 
BRANCH  18  19
ATOM     19  C   LIG    1       -5.970  -0.830  -2.788  0.00  0.00    -0.000 C 
BRANCH  19  21
ATOM     20  C   LIG    1       -7.722  -1.881  -4.226  0.00  0.00    +0.004 C 
ATOM     21  C   LIG    1       -6.234  -1.544  -4.116  0.00  0.00    -0.003 C 
ENDBRANCH  19  21
ENDBRANCH  18  19
ENDBRANCH  17  18
ENDBRANCH  16  17
ENDBRANCH   1  16
TORSDOF 9
