REMARK  Name = ZINC08582038
REMARK                            x       y       z     vdW  Elec       q    Type
REMARK                         _______ _______ _______ _____ _____    ______ ____
ROOT
ATOM      1  C   LIG    1        1.213   1.961   0.106  0.00  0.00    +0.085 A 
ATOM      2  C   LIG    1        0.008   1.305   0.117  0.00  0.00    +0.139 A 
ATOM      3  N   LIG    1        0.019  -0.009   0.074  0.00  0.00    -0.213 NA
ATOM      4  C   LIG    1        1.151  -0.686   0.023  0.00  0.00    +0.263 A 
ATOM      5  S   LIG    1        2.341   0.578   0.032  0.00  0.00    -0.021 S 
ENDROOT
BRANCH   1   7
ATOM      6  C   LIG    1        1.716   4.518   0.173  0.00  0.00    -0.074 C 
ATOM      7  C   LIG    1        1.490   3.366   0.143  0.00  0.00    -0.056 C 
BRANCH   6   9
ATOM      8  C   LIG    1        3.514   6.184   0.178  0.00  0.00    +0.042 C 
ATOM      9  C   LIG    1        2.000   5.961   0.211  0.00  0.00    +0.146 C 
BRANCH   9  10
ATOM     10  N   LIG    1        1.386   6.611  -0.950  0.00  0.00    -0.302 N 
ATOM     11  H   LIG    1        1.211   6.099  -1.755  0.00  0.00    +0.150 HD
ATOM     12  C   LIG    1        1.065   7.918  -0.899  0.00  0.00    +0.211 C 
ATOM     13  C   LIG    1        0.433   8.586  -2.093  0.00  0.00    +0.109 C 
ATOM     14  O   LIG    1        1.284   8.558   0.108  0.00  0.00    -0.276 OA
ENDBRANCH   9  10
ENDBRANCH   6   9
ENDBRANCH   1   7
BRANCH   4  15
ATOM     15  O   LIG    1        1.336  -2.027  -0.024  0.00  0.00    -0.433 OA
BRANCH  15  16
ATOM     16  C   LIG    1        0.242  -2.827   0.087  0.00  0.00    +0.131 A 
ATOM     17  C   LIG    1        0.395  -4.203   0.172  0.00  0.00    +0.050 A 
ATOM     18  C   LIG    1       -0.716  -5.015   0.291  0.00  0.00    +0.050 A 
ATOM     19  C   LIG    1       -1.985  -4.455   0.313  0.00  0.00    +0.129 A 
ATOM     20  C   LIG    1       -2.138  -3.079   0.223  0.00  0.00    +0.050 A 
ATOM     21  C   LIG    1       -1.027  -2.267   0.110  0.00  0.00    +0.050 A 
BRANCH  19  22
ATOM     22  O   LIG    1       -3.079  -5.255   0.424  0.00  0.00    -0.456 OA
BRANCH  22  23
ATOM     23  C   LIG    1       -3.356  -5.792   1.641  0.00  0.00    +0.128 A 
ATOM     24  C   LIG    1       -2.476  -5.607   2.699  0.00  0.00    +0.046 A 
ATOM     25  C   LIG    1       -2.763  -6.150   3.936  0.00  0.00    +0.004 A 
ATOM     26  C   LIG    1       -3.919  -6.886   4.119  0.00  0.00    +0.000 A 
ATOM     27  C   LIG    1       -4.794  -7.077   3.066  0.00  0.00    +0.004 A 
ATOM     28  C   LIG    1       -4.515  -6.532   1.827  0.00  0.00    +0.046 A 
ENDBRANCH  22  23
ENDBRANCH  19  22
ENDBRANCH  15  16
ENDBRANCH   4  15
TORSDOF 7
