REMARK  Name = ZINC08637042
REMARK                            x       y       z     vdW  Elec       q    Type
REMARK                         _______ _______ _______ _____ _____    ______ ____
ROOT
ATOM      1  C   LIG    1        5.987   2.656  -0.042  0.00  0.00    +0.069 A 
ATOM      2  C   LIG    1        5.831   1.272   0.064  0.00  0.00    +0.048 A 
ATOM      3  C   LIG    1        6.934   0.444   0.043  0.00  0.00    +0.123 A 
ATOM      4  C   LIG    1        8.208   0.972  -0.071  0.00  0.00    +0.043 A 
ATOM      5  C   LIG    1        8.389   2.348  -0.171  0.00  0.00    +0.015 A 
ATOM      6  C   LIG    1        9.605   3.186  -0.301  0.00  0.00    +0.118 C 
ATOM      7  N   LIG    1       10.835   2.764  -0.350  0.00  0.00    -0.086 NA
ATOM      8  C   LIG    1        9.152   4.596  -0.364  0.00  0.00    +0.014 A 
ATOM      9  C   LIG    1        9.842   5.797  -0.484  0.00  0.00    +0.043 A 
ATOM     10  C   LIG    1        9.147   6.991  -0.518  0.00  0.00    +0.122 A 
ATOM     11  C   LIG    1        7.765   6.998  -0.433  0.00  0.00    +0.033 A 
ATOM     12  C   LIG    1        7.065   5.814  -0.313  0.00  0.00    +0.011 A 
ATOM     13  C   LIG    1        7.749   4.600  -0.277  0.00  0.00    -0.007 A 
ATOM     14  C   LIG    1        7.277   3.204  -0.158  0.00  0.00    +0.006 A 
ENDROOT
BRANCH   1  15
ATOM     15  C   LIG    1        4.806   3.539  -0.026  0.00  0.00    +0.340 C 
ATOM     16  O   LIG    1        4.801   4.534   0.671  0.00  0.00    -0.245 OA
BRANCH  15  17
ATOM     17  O   LIG    1        3.732   3.242  -0.784  0.00  0.00    -0.456 OA
BRANCH  17  18
ATOM     18  C   LIG    1        2.606   4.155  -0.719  0.00  0.00    +0.269 C 
BRANCH  18  24
ATOM     19  C   LIG    1        0.673   2.051  -3.187  0.00  0.00    +0.000 A 
ATOM     20  C   LIG    1       -0.506   2.765  -3.296  0.00  0.00    +0.001 A 
ATOM     21  C   LIG    1       -0.682   3.925  -2.564  0.00  0.00    +0.015 A 
ATOM     22  C   LIG    1        0.326   4.376  -1.731  0.00  0.00    +0.024 A 
ATOM     23 BR   LIG    1        0.089   5.965  -0.734  0.00  0.00    -0.050 Br
ATOM     24  C   LIG    1        1.507   3.664  -1.626  0.00  0.00    +0.004 A 
ATOM     25  C   LIG    1        1.680   2.502  -2.355  0.00  0.00    +0.008 A 
ENDBRANCH  18  24
ENDBRANCH  17  18
ENDBRANCH  15  17
ENDBRANCH   1  15
BRANCH   3  26
ATOM     26  N   LIG    1        6.754  -1.022   0.149  0.00  0.00    +0.006 N 
ATOM     27  O   LIG    1        7.724  -1.757   0.137  0.00  0.00    -0.130 OA
BRANCH  26  28
ATOM     28  O   LIG    1        5.635  -1.492   0.250  0.00  0.00    -0.396 OA
ATOM     29  H   LIG    1        4.888  -0.926   0.259  0.00  0.00    +0.329 HD
ENDBRANCH  26  28
ENDBRANCH   3  26
BRANCH   7  30
ATOM     30  O   LIG    1       11.897   3.693  -0.476  0.00  0.00    -0.409 OA
ATOM     31  H   LIG    1       12.774   3.286  -0.505  0.00  0.00    +0.328 HD
ENDBRANCH   7  30
BRANCH  10  32
ATOM     32  N   LIG    1        9.883   8.269  -0.646  0.00  0.00    +0.006 N 
ATOM     33  O   LIG    1       11.099   8.266  -0.722  0.00  0.00    -0.130 OA
BRANCH  32  34
ATOM     34  O   LIG    1        9.274   9.322  -0.676  0.00  0.00    -0.396 OA
ATOM     35  H   LIG    1        8.338   9.325  -0.618  0.00  0.00    +0.329 HD
ENDBRANCH  32  34
ENDBRANCH  10  32
TORSDOF 9
