REMARK  Name = ZINC08582290
REMARK                            x       y       z     vdW  Elec       q    Type
REMARK                         _______ _______ _______ _____ _____    ______ ____
ROOT
ATOM      1  C   LIG    1        3.698  -0.688  -0.038  0.00  0.00    +0.077 A 
ATOM      2  C   LIG    1        3.700  -2.087  -0.052  0.00  0.00    +0.074 A 
ATOM      3  C   LIG    1        4.903  -2.766  -0.068  0.00  0.00    +0.130 A 
ATOM      4  C   LIG    1        6.095  -2.006  -0.070  0.00  0.00    +0.061 A 
ATOM      5  C   LIG    1        7.355  -2.624  -0.087  0.00  0.00    +0.018 A 
ATOM      6  C   LIG    1        8.466  -1.827  -0.089  0.00  0.00    +0.041 A 
ATOM      7  C   LIG    1        8.323  -0.441  -0.074  0.00  0.00    +0.132 A 
ATOM      8 CL   LIG    1        9.745   0.555  -0.076  0.00  0.00    -0.062 Cl
ATOM      9  N   LIG    1        7.142   0.132  -0.059  0.00  0.00    -0.216 NA
ATOM     10  C   LIG    1        6.016  -0.592  -0.056  0.00  0.00    +0.165 A 
ATOM     11  N   LIG    1        4.822   0.007  -0.046  0.00  0.00    -0.227 NA
ENDROOT
BRANCH   1  15
ATOM     12  C   LIG    1       -0.017   1.379   0.010  0.00  0.00    +0.000 A 
ATOM     13  C   LIG    1        1.169   2.092   0.002  0.00  0.00    +0.001 A 
ATOM     14  C   LIG    1        2.377   1.427  -0.013  0.00  0.00    +0.010 A 
ATOM     15  C   LIG    1        2.402   0.033  -0.021  0.00  0.00    +0.001 A 
ATOM     16  C   LIG    1        1.205  -0.680  -0.013  0.00  0.00    +0.010 A 
ATOM     17  C   LIG    1        0.002  -0.004   0.002  0.00  0.00    +0.001 A 
ENDBRANCH   1  15
BRANCH   3  18
ATOM     18  O   LIG    1        4.940  -4.121  -0.081  0.00  0.00    -0.506 OA
ATOM     19  H   LIG    1        4.141  -4.612  -0.079  0.00  0.00    +0.292 HD
ENDBRANCH   3  18
TORSDOF 2
