REMARK  Name = ZINC09678795
REMARK                            x       y       z     vdW  Elec       q    Type
REMARK                         _______ _______ _______ _____ _____    ______ ____
ROOT
ATOM      1  C   LIG    1        5.533  -2.753   3.965  0.00  0.00    +0.105 A 
ATOM      2  C   LIG    1        4.704  -2.089   4.849  0.00  0.00    +0.030 A 
ATOM      3  C   LIG    1        3.957  -2.802   5.766  0.00  0.00    +0.026 A 
ATOM      4  C   LIG    1        4.040  -4.188   5.800  0.00  0.00    +0.048 A 
ATOM      5  C   LIG    1        4.875  -4.853   4.910  0.00  0.00    +0.026 A 
ATOM      6  C   LIG    1        5.614  -4.133   3.991  0.00  0.00    +0.030 A 
ENDROOT
BRANCH   1   7
ATOM      7  S   LIG    1        6.484  -1.839   2.796  0.00  0.00    +0.058 S 
ATOM      8  O   LIG    1        6.647  -0.535   3.336  0.00  0.00    -0.153 OA
ATOM      9  O   LIG    1        7.588  -2.660   2.441  0.00  0.00    -0.153 OA
BRANCH   7  10
ATOM     10  N   LIG    1        5.558  -1.675   1.433  0.00  0.00    -0.190 NA
ATOM     11  H   LIG    1        5.837  -2.095   0.604  0.00  0.00    +0.148 HD
BRANCH  10  12
ATOM     12  C   LIG    1        4.318  -0.896   1.479  0.00  0.00    +0.110 C 
BRANCH  12  13
ATOM     13  C   LIG    1        3.858  -0.585   0.053  0.00  0.00    +0.052 C 
BRANCH  13  17
ATOM     14  C   LIG    1        0.242   1.686   0.186  0.00  0.00    +0.000 A 
ATOM     15  C   LIG    1        1.464   2.332   0.180  0.00  0.00    +0.000 A 
ATOM     16  C   LIG    1        2.634   1.597   0.138  0.00  0.00    +0.003 A 
ATOM     17  C   LIG    1        2.582   0.216   0.101  0.00  0.00    -0.046 A 
ATOM     18  C   LIG    1        1.360  -0.430   0.107  0.00  0.00    +0.003 A 
ATOM     19  C   LIG    1        0.190   0.305   0.148  0.00  0.00    +0.000 A 
ENDBRANCH  13  17
ENDBRANCH  12  13
ENDBRANCH  10  12
ENDBRANCH   7  10
ENDBRANCH   1   7
BRANCH   4  20
ATOM     20  N   LIG    1        3.287  -4.913   6.726  0.00  0.00    -0.216 N 
ATOM     21  H   LIG    1        3.259  -4.632   7.654  0.00  0.00    +0.174 HD
BRANCH  20  22
ATOM     22  S   LIG    1        2.442  -6.252   6.241  0.00  0.00    +0.072 S 
ATOM     23  O   LIG    1        1.706  -6.699   7.371  0.00  0.00    -0.150 OA
ATOM     24  O   LIG    1        3.364  -7.087   5.553  0.00  0.00    -0.150 OA
BRANCH  22  25
ATOM     25  C   LIG    1        1.260  -5.718   5.048  0.00  0.00    +0.109 A 
ATOM     26  C   LIG    1        0.040  -5.217   5.461  0.00  0.00    +0.030 A 
ATOM     27  C   LIG    1       -0.887  -4.798   4.526  0.00  0.00    +0.022 A 
ATOM     28  C   LIG    1       -0.594  -4.880   3.176  0.00  0.00    +0.041 A 
ATOM     29 CL   LIG    1       -1.759  -4.355   2.001  0.00  0.00    -0.084 Cl
ATOM     30  C   LIG    1        0.627  -5.382   2.764  0.00  0.00    +0.022 A 
ATOM     31  C   LIG    1        1.556  -5.795   3.700  0.00  0.00    +0.030 A 
ENDBRANCH  22  25
ENDBRANCH  20  22
ENDBRANCH   4  20
TORSDOF 8
