REMARK  Name = ZINC12357004
REMARK                            x       y       z     vdW  Elec       q    Type
REMARK                         _______ _______ _______ _____ _____    ______ ____
ROOT
ATOM      1  C   LIG    1        1.161   3.166   0.008  0.00  0.00    -0.060 A 
ATOM      2  C   LIG    1        1.176   1.783   0.000  0.00  0.00    +0.002 A 
ATOM      3  C   LIG    1       -0.013   1.076   0.008  0.00  0.00    +0.002 A 
ATOM      4  C   LIG    1       -1.218   1.749   0.017  0.00  0.00    +0.023 A 
ATOM      5  C   LIG    1       -1.236   3.138   0.031  0.00  0.00    +0.030 A 
ATOM      6  C   LIG    1       -0.040   3.845   0.024  0.00  0.00    +0.025 A 
ENDROOT
BRANCH   5   7
ATOM      7  N   LIG    1       -2.454   3.822   0.046  0.00  0.00    -0.326 N 
ATOM      8  C   LIG    1       -2.530   4.737   1.195  0.00  0.00    +0.133 C 
ATOM      9  C   LIG    1       -3.852   5.508   1.140  0.00  0.00    +0.178 C 
ATOM     10  O   LIG    1       -4.939   4.579   1.114  0.00  0.00    -0.377 OA
ATOM     11  C   LIG    1       -4.896   3.674   0.008  0.00  0.00    +0.178 C 
ATOM     12  C   LIG    1       -3.586   2.884   0.051  0.00  0.00    +0.133 C 
ENDBRANCH   5   7
BRANCH   1  14
ATOM     13  C   LIG    1        3.040   3.967   1.415  0.00  0.00    -0.009 C 
ATOM     14  C   LIG    1        2.459   3.932   0.000  0.00  0.00    -0.047 C 
BRANCH  14  15
ATOM     15  N   LIG    1        3.414   3.250  -0.892  0.00  0.00    +0.382 N 
ATOM     16  H   LIG    1        3.596   2.305  -0.532  0.00  0.00    -0.089 HD
ATOM     17  H   LIG    1        4.290   3.767  -0.926  0.00  0.00    -0.089 HD
ATOM     18  H   LIG    1        3.025   3.178  -1.830  0.00  0.00    -0.089 HD
ENDBRANCH  14  15
ENDBRANCH   1  14
TORSDOF 3
