REMARK  Name = ZINC08602241
REMARK                            x       y       z     vdW  Elec       q    Type
REMARK                         _______ _______ _______ _____ _____    ______ ____
ROOT
ATOM      1  C   LIG    1       -3.335  -1.973  -1.518  0.00  0.00    +0.169 A 
ATOM      2  N   LIG    1       -4.012  -2.371  -2.630  0.00  0.00    -0.302 N 
ATOM      3  C   LIG    1       -5.166  -3.059  -2.498  0.00  0.00    +0.255 A 
ATOM      4  C   LIG    1       -5.639  -3.349  -1.206  0.00  0.00    +0.038 A 
ATOM      5  C   LIG    1       -4.920  -2.927  -0.126  0.00  0.00    +0.052 A 
ATOM      6  C   LIG    1       -5.612  -3.348   1.152  0.00  0.00    +0.056 C 
ATOM      7  C   LIG    1       -7.056  -3.697   0.732  0.00  0.00    +0.011 C 
ATOM      8  C   LIG    1       -6.877  -4.089  -0.751  0.00  0.00    +0.043 C 
ATOM      9  O   LIG    1       -5.787  -3.424  -3.483  0.00  0.00    -0.267 OA
ATOM     10  H   LIG    1       -3.668  -2.160  -3.512  0.00  0.00    +0.171 HD
ATOM     11  N   LIG    1       -3.783  -2.253  -0.311  0.00  0.00    -0.228 NA
ENDROOT
BRANCH   1  12
ATOM     12  S   LIG    1       -1.829  -1.075  -1.696  0.00  0.00    -0.083 S 
BRANCH  12  13
ATOM     13  C   LIG    1       -1.293  -0.775   0.011  0.00  0.00    +0.112 C 
BRANCH  13  20
ATOM     14  C   LIG    1       -0.017   1.378   0.010  0.00  0.00    +0.006 A 
ATOM     15  C   LIG    1        1.171   2.086   0.002  0.00  0.00    +0.020 A 
ATOM     16  C   LIG    1        2.378   1.410  -0.013  0.00  0.00    +0.041 A 
ATOM     17 CL   LIG    1        3.870   2.298  -0.023  0.00  0.00    -0.084 Cl
ATOM     18  C   LIG    1        2.396   0.027  -0.021  0.00  0.00    +0.020 A 
ATOM     19  C   LIG    1        1.208  -0.679  -0.013  0.00  0.00    +0.006 A 
ATOM     20  C   LIG    1        0.002  -0.004   0.002  0.00  0.00    -0.037 A 
ENDBRANCH  13  20
ENDBRANCH  12  13
ENDBRANCH   1  12
TORSDOF 3
