REMARK  Name = ZINC08741242
REMARK                            x       y       z     vdW  Elec       q    Type
REMARK                         _______ _______ _______ _____ _____    ______ ____
ROOT
ATOM      1  C   LIG    1        3.711  -0.707  -0.038  0.00  0.00    +0.150 C 
ATOM      2  C   LIG    1        4.390  -0.430  -1.367  0.00  0.00    +0.240 C 
ATOM      3  N   LIG    1        5.616   0.136  -1.326  0.00  0.00    -0.241 N 
ATOM      4  H   LIG    1        6.078   0.326  -2.158  0.00  0.00    +0.159 HD
ATOM      5  C   LIG    1        6.216   0.445  -0.146  0.00  0.00    +0.278 C 
ATOM      6  N   LIG    1        5.693   0.236   1.038  0.00  0.00    -0.130 NA
ATOM      7  O   LIG    1        3.855  -0.706  -2.419  0.00  0.00    -0.274 OA
ATOM      8  C   LIG    1        4.488  -0.315   1.205  0.00  0.00    +0.260 C 
ATOM      9  O   LIG    1        4.030  -0.496   2.315  0.00  0.00    -0.272 OA
ENDROOT
BRANCH   1  13
ATOM     10  C   LIG    1       -0.017   1.378   0.010  0.00  0.00    +0.000 A 
ATOM     11  C   LIG    1        1.171   2.086   0.002  0.00  0.00    +0.000 A 
ATOM     12  C   LIG    1        2.377   1.411  -0.013  0.00  0.00    +0.005 A 
ATOM     13  C   LIG    1        2.396   0.029  -0.020  0.00  0.00    -0.024 A 
ATOM     14  C   LIG    1        1.208  -0.679  -0.012  0.00  0.00    +0.005 A 
ATOM     15  C   LIG    1        0.002  -0.004   0.002  0.00  0.00    +0.000 A 
ENDBRANCH   1  13
BRANCH   5  16
ATOM     16  O   LIG    1        7.437   1.007  -0.197  0.00  0.00    -0.483 OA
ATOM     17  H   LIG    1        7.843   1.172  -1.025  0.00  0.00    +0.295 HD
ENDBRANCH   5  16
BRANCH   1  18
ATOM     18  C   LIG    1        3.416  -2.206   0.039  0.00  0.00    +0.035 C 
BRANCH  18  19
ATOM     19  C   LIG    1        4.732  -2.987   0.023  0.00  0.00    +0.037 C 
BRANCH  19  20
ATOM     20  C   LIG    1        4.441  -4.464   0.099  0.00  0.00    -0.044 A 
ATOM     21  C   LIG    1        4.343  -5.106   1.323  0.00  0.00    +0.023 A 
ATOM     22  C   LIG    1        4.075  -6.462   1.353  0.00  0.00    +0.111 A 
ATOM     23  N   LIG    1        3.913  -7.142   0.235  0.00  0.00    -0.263 NA
ATOM     24  C   LIG    1        3.999  -6.564  -0.947  0.00  0.00    +0.111 A 
ATOM     25  C   LIG    1        4.259  -5.211  -1.055  0.00  0.00    +0.023 A 
ENDBRANCH  19  20
ENDBRANCH  18  19
ENDBRANCH   1  18
TORSDOF 5
