REMARK  Name = ZINC12503187
REMARK                            x       y       z     vdW  Elec       q    Type
REMARK                         _______ _______ _______ _____ _____    ______ ____
ROOT
ATOM      1  C   LIG    1       -1.152   5.910  -5.291  0.00  0.00    +0.037 A 
ATOM      2  C   LIG    1       -0.445   5.471  -6.415  0.00  0.00    +0.015 A 
ATOM      3  C   LIG    1        0.739   6.081  -6.763  0.00  0.00    +0.024 A 
ATOM      4  C   LIG    1        1.232   7.133  -5.998  0.00  0.00    +0.034 A 
ATOM      5  C   LIG    1        0.532   7.572  -4.878  0.00  0.00    +0.024 A 
ATOM      6  C   LIG    1       -0.656   6.971  -4.528  0.00  0.00    +0.015 A 
ENDROOT
BRANCH   1  19
ATOM      7  C   LIG    1       -5.120  10.114  -2.392  0.00  0.00    +0.086 C 
ATOM      8  C   LIG    1       -4.487   8.754  -2.245  0.00  0.00    +0.105 A 
ATOM      9  N   LIG    1       -3.161   8.517  -2.089  0.00  0.00    -0.342 N 
ATOM     10  H   LIG    1       -2.455   9.181  -2.048  0.00  0.00    +0.167 HD
ATOM     11  C   LIG    1       -3.012   7.165  -2.000  0.00  0.00    +0.071 A 
ATOM     12  C   LIG    1       -1.798   6.340  -1.849  0.00  0.00    +0.021 A 
ATOM     13  C   LIG    1       -0.802   6.638  -0.931  0.00  0.00    +0.012 A 
ATOM     14  C   LIG    1        0.292   5.801  -0.818  0.00  0.00    +0.001 A 
ATOM     15  C   LIG    1        0.394   4.671  -1.611  0.00  0.00    +0.002 A 
ATOM     16  C   LIG    1       -0.587   4.373  -2.540  0.00  0.00    +0.024 A 
ATOM     17  C   LIG    1       -1.679   5.207  -2.678  0.00  0.00    +0.046 A 
ATOM     18  N   LIG    1       -2.677   4.976  -3.623  0.00  0.00    -0.266 N 
ATOM     19  C   LIG    1       -2.421   5.259  -4.915  0.00  0.00    +0.251 C 
ATOM     20  O   LIG    1       -3.238   4.978  -5.772  0.00  0.00    -0.270 OA
ATOM     21  C   LIG    1       -3.994   4.435  -3.267  0.00  0.00    +0.120 C 
ATOM     22  C   LIG    1       -4.524   5.136  -2.011  0.00  0.00    +0.077 C 
ATOM     23  C   LIG    1       -4.260   6.615  -2.093  0.00  0.00    +0.069 A 
ATOM     24  N   LIG    1       -5.129   7.614  -2.242  0.00  0.00    -0.237 NA
ENDBRANCH   1  19
BRANCH   4  25
ATOM     25  N   LIG    1        2.432   7.748  -6.353  0.00  0.00    -0.281 N 
ATOM     26  H   LIG    1        2.561   8.693  -6.180  0.00  0.00    +0.155 HD
ATOM     27  C   LIG    1        3.411   7.029  -6.936  0.00  0.00    +0.249 C 
ATOM     28  O   LIG    1        3.286   5.826  -7.068  0.00  0.00    -0.270 OA
BRANCH  27  29
ATOM     29  C   LIG    1        4.634   7.700  -7.415  0.00  0.00    +0.045 A 
ATOM     30  C   LIG    1        4.590   9.034  -7.822  0.00  0.00    +0.013 A 
ATOM     31  C   LIG    1        5.736   9.657  -8.269  0.00  0.00    +0.001 A 
ATOM     32  C   LIG    1        6.936   8.966  -8.317  0.00  0.00    +0.001 A 
ATOM     33  C   LIG    1        6.999   7.646  -7.919  0.00  0.00    +0.009 A 
ATOM     34  C   LIG    1        5.854   7.002  -7.459  0.00  0.00    -0.006 A 
BRANCH  34  35
ATOM     35  C   LIG    1        5.919   5.587  -7.024  0.00  0.00    -0.017 A 
ATOM     36  C   LIG    1        5.491   5.227  -5.747  0.00  0.00    +0.008 A 
ATOM     37  C   LIG    1        5.553   3.907  -5.348  0.00  0.00    +0.001 A 
ATOM     38  C   LIG    1        6.039   2.942  -6.212  0.00  0.00    +0.000 A 
ATOM     39  C   LIG    1        6.465   3.293  -7.480  0.00  0.00    +0.001 A 
ATOM     40  C   LIG    1        6.402   4.609  -7.893  0.00  0.00    +0.008 A 
ENDBRANCH  34  35
ENDBRANCH  27  29
ENDBRANCH   4  25
TORSDOF 4
