REMARK  Name = ZINC11597154
REMARK                            x       y       z     vdW  Elec       q    Type
REMARK                         _______ _______ _______ _____ _____    ______ ____
ROOT
ATOM      1  C   LIG    1       -0.076   5.774   0.034  0.00  0.00    -0.010 C 
ATOM      2  N   LIG    1       -1.154   6.246  -0.846  0.00  0.00    +0.386 N 
ATOM      3  H   LIG    1       -0.927   6.010  -1.819  0.00  0.00    -0.085 HD
ATOM      4  H   LIG    1       -2.035   5.790  -0.580  0.00  0.00    -0.085 HD
ATOM      5  C   LIG    1       -1.302   7.708  -0.719  0.00  0.00    -0.077 C 
ATOM      6  C   LIG    1       -1.913   8.018   0.648  0.00  0.00    +0.016 C 
ATOM      7  C   LIG    1       -1.143   7.306   1.730  0.00  0.00    -0.047 A 
ATOM      8  C   LIG    1       -1.306   7.723   3.042  0.00  0.00    +0.004 A 
ATOM      9  C   LIG    1       -0.622   7.096   4.064  0.00  0.00    +0.000 A 
ATOM     10  C   LIG    1        0.230   6.045   3.777  0.00  0.00    +0.000 A 
ATOM     11  C   LIG    1        0.395   5.630   2.471  0.00  0.00    +0.002 A 
ATOM     12  C   LIG    1       -0.291   6.261   1.443  0.00  0.00    -0.054 A 
ENDROOT
BRANCH   1  17
ATOM     13  C   LIG    1        0.002  -0.004   0.002  0.00  0.00    +0.044 C 
ATOM     14  C   LIG    1       -0.018   1.503   0.010  0.00  0.00    -0.050 A 
ATOM     15  C   LIG    1       -1.225   2.178   0.020  0.00  0.00    +0.003 A 
ATOM     16  C   LIG    1       -1.244   3.560   0.033  0.00  0.00    +0.002 A 
ATOM     17  C   LIG    1       -0.056   4.267   0.025  0.00  0.00    -0.057 A 
ATOM     18  C   LIG    1        1.151   3.592   0.010  0.00  0.00    +0.002 A 
ATOM     19  C   LIG    1        1.169   2.210   0.003  0.00  0.00    +0.003 A 
ENDBRANCH   1  17
TORSDOF 1
