REMARK  Name = ZINC12653902
REMARK                            x       y       z     vdW  Elec       q    Type
REMARK                         _______ _______ _______ _____ _____    ______ ____
ROOT
ATOM      1  N   LIG    1        5.450  -1.678   1.382  0.00  0.00    -0.354 N 
ATOM      2  H   LIG    1        5.498  -2.578   1.022  0.00  0.00    +0.163 HD
ATOM      3  C   LIG    1        6.522  -1.106   1.850  0.00  0.00    +0.210 C 
ENDROOT
BRANCH   3   4
ATOM      4  C   LIG    1        7.808  -1.826   1.833  0.00  0.00    +0.100 A 
ATOM      5  C   LIG    1        8.001  -3.080   1.352  0.00  0.00    +0.041 A 
ATOM      6  C   LIG    1        9.371  -3.401   1.520  0.00  0.00    +0.000 A 
ATOM      7  C   LIG    1       10.139  -4.532   1.217  0.00  0.00    +0.010 A 
ATOM      8  C   LIG    1       11.472  -4.545   1.506  0.00  0.00    +0.001 A 
ATOM      9  C   LIG    1       12.078  -3.445   2.099  0.00  0.00    +0.002 A 
ATOM     10  C   LIG    1       11.344  -2.321   2.407  0.00  0.00    +0.026 A 
ATOM     11  C   LIG    1        9.983  -2.284   2.121  0.00  0.00    +0.047 A 
ATOM     12  N   LIG    1        9.008  -1.329   2.299  0.00  0.00    -0.351 N 
ATOM     13  H   LIG    1        9.143  -0.451   2.689  0.00  0.00    +0.166 HD
ENDBRANCH   3   4
BRANCH   3  14
ATOM     14  O   LIG    1        6.456   0.148   2.353  0.00  0.00    -0.492 OA
ATOM     15  H   LIG    1        7.301   0.488   2.676  0.00  0.00    +0.294 HD
ENDBRANCH   3  14
BRANCH   1  16
ATOM     16  C   LIG    1        4.171  -0.963   1.399  0.00  0.00    +0.120 C 
BRANCH  16  17
ATOM     17  C   LIG    1        3.711  -0.707  -0.038  0.00  0.00    +0.056 C 
BRANCH  17  21
ATOM     18  C   LIG    1       -0.017   1.378   0.010  0.00  0.00    +0.000 A 
ATOM     19  C   LIG    1        1.171   2.086   0.002  0.00  0.00    +0.000 A 
ATOM     20  C   LIG    1        2.377   1.411  -0.013  0.00  0.00    +0.004 A 
ATOM     21  C   LIG    1        2.396   0.029  -0.020  0.00  0.00    -0.046 A 
ATOM     22  C   LIG    1        1.208  -0.679  -0.012  0.00  0.00    +0.004 A 
ATOM     23  C   LIG    1        0.002  -0.004   0.002  0.00  0.00    +0.000 A 
ENDBRANCH  17  21
ENDBRANCH  16  17
ENDBRANCH   1  16
TORSDOF 5
