REMARK  Name = ZINC11726787
REMARK                            x       y       z     vdW  Elec       q    Type
REMARK                         _______ _______ _______ _____ _____    ______ ____
ROOT
ATOM      1  N   LIG    1        4.408 -10.013  -5.068  0.00  0.00    -0.300 N 
ATOM      2  H   LIG    1        5.220  -9.852  -4.562  0.00  0.00    +0.150 HD
ATOM      3  C   LIG    1        4.198 -11.213  -5.643  0.00  0.00    +0.245 C 
ATOM      4  O   LIG    1        3.180 -11.414  -6.276  0.00  0.00    -0.270 OA
ENDROOT
BRANCH   3   5
ATOM      5  C   LIG    1        5.206 -12.287  -5.503  0.00  0.00    +0.037 A 
ATOM      6  C   LIG    1        6.373 -12.058  -4.771  0.00  0.00    +0.014 A 
ATOM      7  C   LIG    1        7.311 -13.058  -4.641  0.00  0.00    +0.017 A 
ATOM      8  C   LIG    1        7.096 -14.299  -5.241  0.00  0.00    +0.066 A 
ATOM      9  C   LIG    1        5.931 -14.528  -5.973  0.00  0.00    +0.017 A 
ATOM     10  C   LIG    1        4.989 -13.531  -6.098  0.00  0.00    +0.014 A 
BRANCH   8  11
ATOM     11  C   LIG    1        8.106 -15.374  -5.101  0.00  0.00    +0.306 C 
ATOM     12  N   LIG    1        9.366 -15.071  -4.969  0.00  0.00    -0.285 N 
ATOM     13  H   LIG    1        9.643 -14.142  -4.962  0.00  0.00    +0.301 HD
ATOM     14  H   LIG    1       10.027 -15.775  -4.877  0.00  0.00    +0.301 HD
BRANCH  11  15
ATOM     15  N   LIG    1        7.713 -16.695  -5.111  0.00  0.00    -0.132 N 
ATOM     16  H   LIG    1        6.774 -16.920  -5.209  0.00  0.00    +0.348 HD
BRANCH  15  17
ATOM     17  O   LIG    1        8.678 -17.722  -4.977  0.00  0.00    -0.209 OA
ATOM     18  H   LIG    1        8.307 -18.615  -4.995  0.00  0.00    +0.271 HD
ENDBRANCH  15  17
ENDBRANCH  11  15
ENDBRANCH   8  11
ENDBRANCH   3   5
BRANCH   1  19
ATOM     19  C   LIG    1        3.410  -8.950  -5.206  0.00  0.00    +0.156 C 
ATOM     20  C   LIG    1        2.337  -9.114  -4.128  0.00  0.00    +0.038 C 
BRANCH  19  25
ATOM     21  C   LIG    1        2.731  -4.363  -7.176  0.00  0.00    +0.122 C 
ATOM     22  C   LIG    1        2.261  -5.790  -7.467  0.00  0.00    +0.050 C 
ATOM     23  C   LIG    1        2.157  -6.567  -6.152  0.00  0.00    +0.110 C 
ATOM     24  N   LIG    1        3.447  -6.489  -5.453  0.00  0.00    -0.300 N 
ATOM     25  C   LIG    1        4.079  -7.608  -5.049  0.00  0.00    +0.236 C 
ATOM     26  O   LIG    1        5.186  -7.537  -4.558  0.00  0.00    -0.274 OA
ATOM     27  C   LIG    1        4.035  -5.165  -5.202  0.00  0.00    +0.110 C 
ATOM     28  C   LIG    1        4.117  -4.403  -6.528  0.00  0.00    +0.050 C 
BRANCH  21  29
ATOM     29  O   LIG    1        2.798  -3.625  -8.398  0.00  0.00    -0.365 OA
BRANCH  29  30
ATOM     30  C   LIG    1        1.585  -2.949  -8.736  0.00  0.00    +0.280 C 
BRANCH  30  31
ATOM     31  C   LIG    1        1.769  -2.208 -10.035  0.00  0.00    +0.333 C 
ATOM     32  O   LIG    1        2.829  -2.253 -10.612  0.00  0.00    -0.248 OA
BRANCH  31  33
ATOM     33  O   LIG    1        0.754  -1.497 -10.551  0.00  0.00    -0.463 OA
BRANCH  33  35
ATOM     34  C   LIG    1       -0.265  -0.068 -12.213  0.00  0.00    +0.048 C 
ATOM     35  C   LIG    1        0.998  -0.819 -11.785  0.00  0.00    +0.229 C 
ENDBRANCH  33  35
ENDBRANCH  31  33
ENDBRANCH  30  31
ENDBRANCH  29  30
ENDBRANCH  21  29
ENDBRANCH  19  25
ENDBRANCH   1  19
TORSDOF 11
