REMARK  Name = ZINC08585017
REMARK                            x       y       z     vdW  Elec       q    Type
REMARK                         _______ _______ _______ _____ _____    ______ ____
ROOT
ATOM      1  C   LIG    1       -0.628   0.437  -1.774  0.00  0.00    +0.003 A 
ATOM      2  C   LIG    1        0.357   1.200  -2.332  0.00  0.00    +0.011 A 
ATOM      3  C   LIG    1        1.697   0.879  -2.098  0.00  0.00    +0.014 A 
ATOM      4  C   LIG    1        2.019  -0.233  -1.285  0.00  0.00    +0.041 A 
ATOM      5  C   LIG    1        3.371  -0.556  -1.050  0.00  0.00    +0.133 A 
ATOM      6  C   LIG    1        4.369   0.183  -1.592  0.00  0.00    +0.061 A 
ATOM      7  C   LIG    1        4.106   1.294  -2.404  0.00  0.00    +0.071 A 
ATOM      8  N   LIG    1        5.152   2.021  -2.936  0.00  0.00    -0.316 N 
ATOM      9  H   LIG    1        6.070   1.767  -2.752  0.00  0.00    +0.169 HD
ATOM     10  C   LIG    1        4.881   3.090  -3.716  0.00  0.00    +0.311 A 
ATOM     11  O   LIG    1        5.786   3.748  -4.198  0.00  0.00    -0.262 OA
ATOM     12  C   LIG    1        3.480   3.448  -3.976  0.00  0.00    +0.280 A 
ATOM     13  N   LIG    1        2.516   2.732  -3.452  0.00  0.00    -0.206 NA
ATOM     14  C   LIG    1        0.982  -0.996  -0.726  0.00  0.00    +0.115 A 
ATOM     15  C   LIG    1        2.785   1.671  -2.677  0.00  0.00    +0.099 A 
ATOM     16  C   LIG    1       -0.315  -0.657  -0.974  0.00  0.00    +0.029 A 
ENDROOT
BRANCH  14  17
ATOM     17  S   LIG    1        1.355  -2.387   0.290  0.00  0.00    +0.057 S 
ATOM     18  O   LIG    1        2.230  -1.922   1.309  0.00  0.00    -0.153 OA
ATOM     19  O   LIG    1        1.704  -3.449  -0.588  0.00  0.00    -0.153 OA
BRANCH  17  20
ATOM     20  N   LIG    1       -0.051  -2.836   1.041  0.00  0.00    -0.203 NA
ATOM     21  H   LIG    1       -0.473  -2.238   1.677  0.00  0.00    +0.144 HD
ATOM     22  H   LIG    1       -0.452  -3.697   0.844  0.00  0.00    +0.144 HD
ENDBRANCH  17  20
ENDBRANCH  14  17
BRANCH   5  23
ATOM     23  N   LIG    1        3.705  -1.720  -0.199  0.00  0.00    +0.007 N 
ATOM     24  O   LIG    1        4.121  -1.549   0.923  0.00  0.00    -0.130 OA
BRANCH  23  25
ATOM     25  O   LIG    1        3.561  -2.842  -0.626  0.00  0.00    -0.396 OA
ATOM     26  H   LIG    1        3.239  -2.975  -1.495  0.00  0.00    +0.329 HD
ENDBRANCH  23  25
ENDBRANCH   5  23
BRANCH  12  27
ATOM     27  O   LIG    1        3.185   4.516  -4.756  0.00  0.00    -0.489 OA
ATOM     28  H   LIG    1        2.291   4.744  -4.921  0.00  0.00    +0.294 HD
ENDBRANCH  12  27
TORSDOF 5
