REMARK  Name = ZINC09848627
REMARK                            x       y       z     vdW  Elec       q    Type
REMARK                         _______ _______ _______ _____ _____    ______ ____
ROOT
ATOM      1  C   LIG    1       -4.249  -1.038  -0.886  0.00  0.00    +0.243 C 
ENDROOT
BRANCH   1   4
ATOM      2  C   LIG    1       -2.143   1.058   1.278  0.00  0.00    +0.135 A 
ATOM      3  N   LIG    1       -2.549   0.322   0.300  0.00  0.00    -0.154 NA
ATOM      4  N   LIG    1       -3.844  -0.202   0.247  0.00  0.00    -0.217 N 
ATOM      5  C   LIG    1       -4.726   0.068   1.236  0.00  0.00    +0.292 A 
ATOM      6  C   LIG    1       -4.274   0.909   2.348  0.00  0.00    +0.116 A 
ATOM      7  C   LIG    1       -4.892   1.368   3.487  0.00  0.00    +0.048 A 
ATOM      8  C   LIG    1       -3.964   2.132   4.179  0.00  0.00    +0.038 A 
ATOM      9  S   LIG    1       -3.615   3.126   5.607  0.00  0.00    -0.092 S 
ATOM     10  C   LIG    1       -1.918   3.529   5.227  0.00  0.00    -0.011 A 
ATOM     11  C   LIG    1       -0.950   4.369   6.020  0.00  0.00    +0.051 C 
ATOM     12  C   LIG    1       -1.719   2.894   4.054  0.00  0.00    +0.037 A 
ATOM     13  C   LIG    1       -2.757   2.154   3.469  0.00  0.00    +0.063 A 
ATOM     14  O   LIG    1       -5.861  -0.374   1.204  0.00  0.00    -0.264 OA
ATOM     15  N   LIG    1       -2.973   1.384   2.331  0.00  0.00    -0.291 N 
BRANCH   2  17
ATOM     16  C   LIG    1       -0.013   1.086   0.008  0.00  0.00    +0.012 C 
ATOM     17  C   LIG    1       -0.729   1.579   1.267  0.00  0.00    +0.073 C 
ENDBRANCH   2  17
ENDBRANCH   1   4
BRANCH   1  18
ATOM     18  C   LIG    1       -4.820  -0.167  -1.975  0.00  0.00    +0.235 C 
ATOM     19  N   LIG    1       -5.261  -0.722  -3.121  0.00  0.00    -0.314 N 
ATOM     20  H   LIG    1       -5.211  -1.683  -3.245  0.00  0.00    +0.149 HD
ATOM     21  O   LIG    1       -4.883   1.035  -1.820  0.00  0.00    -0.274 OA
BRANCH  19  22
ATOM     22  C   LIG    1       -5.816   0.125  -4.180  0.00  0.00    +0.102 C 
BRANCH  22  23
ATOM     23  C   LIG    1       -6.239  -0.749  -5.362  0.00  0.00    +0.000 C 
BRANCH  23  24
ATOM     24  C   LIG    1       -6.819   0.136  -6.468  0.00  0.00    -0.077 C 
BRANCH  24  25
ATOM     25  N   LIG    1       -7.243  -0.724  -7.592  0.00  0.00    +0.380 N 
ATOM     26  H   LIG    1       -7.850  -1.469  -7.232  0.00  0.00    -0.082 HD
ATOM     27  C   LIG    1       -7.998   0.074  -8.582  0.00  0.00    -0.076 C 
ATOM     28  C   LIG    1       -8.526  -0.859  -9.673  0.00  0.00    -0.031 C 
ATOM     29  C   LIG    1       -9.441  -1.913  -9.046  0.00  0.00    +0.005 C 
ATOM     30  C   LIG    1       -7.346  -1.551 -10.361  0.00  0.00    +0.003 C 
ATOM     31  C   LIG    1       -6.530  -2.313  -9.314  0.00  0.00    -0.031 C 
ATOM     32  C   LIG    1       -5.314  -2.958  -9.983  0.00  0.00    +0.005 C 
ATOM     33  C   LIG    1       -6.059  -1.338  -8.232  0.00  0.00    -0.076 C 
ENDBRANCH  24  25
ENDBRANCH  23  24
ENDBRANCH  22  23
ENDBRANCH  19  22
ENDBRANCH   1  18
TORSDOF 7
