REMARK  Name = ZINC11616526
REMARK                            x       y       z     vdW  Elec       q    Type
REMARK                         _______ _______ _______ _____ _____    ______ ____
ROOT
ATOM      1  N   LIG    1        0.713  -0.491   1.192  0.00  0.00    +0.386 N 
ATOM      2  H   LIG    1        1.632  -0.076   1.228  0.00  0.00    -0.085 HD
ATOM      3  H   LIG    1        0.798  -1.495   1.145  0.00  0.00    -0.085 HD
ENDROOT
BRANCH   1   5
ATOM      4  C   LIG    1       -0.019   1.526   0.010  0.00  0.00    -0.010 C 
ATOM      5  C   LIG    1        0.002  -0.004   0.002  0.00  0.00    -0.036 C 
BRANCH   5   6
ATOM      6  C   LIG    1        0.718  -0.497  -1.257  0.00  0.00    +0.213 C 
BRANCH   6   7
ATOM      7  O   LIG    1        2.019   0.090  -1.326  0.00  0.00    -0.494 OA
BRANCH   7   8
ATOM      8  C   LIG    1        2.792  -0.246  -2.392  0.00  0.00    +0.120 A 
ATOM      9  C   LIG    1        2.306  -1.120  -3.354  0.00  0.00    +0.045 A 
ATOM     10  C   LIG    1        3.094  -1.460  -4.437  0.00  0.00    +0.004 A 
ATOM     11  C   LIG    1        4.365  -0.931  -4.562  0.00  0.00    +0.000 A 
ATOM     12  C   LIG    1        4.852  -0.060  -3.604  0.00  0.00    +0.004 A 
ATOM     13  C   LIG    1        4.066   0.288  -2.523  0.00  0.00    +0.045 A 
ENDBRANCH   7   8
ENDBRANCH   6   7
ENDBRANCH   5   6
ENDBRANCH   1   5
BRANCH   1  14
ATOM     14  C   LIG    1       -0.040  -0.119   2.398  0.00  0.00    -0.041 C 
ATOM     15  C   LIG    1       -1.385  -0.847   2.404  0.00  0.00    -0.011 C 
BRANCH  14  16
ATOM     16  C   LIG    1        0.760  -0.515   3.640  0.00  0.00    +0.130 C 
BRANCH  16  17
ATOM     17  C   LIG    1        2.085   0.202   3.635  0.00  0.00    -0.020 A 
ATOM     18  C   LIG    1        3.122  -0.271   2.852  0.00  0.00    +0.009 A 
ATOM     19  C   LIG    1        4.338   0.384   2.845  0.00  0.00    +0.046 A 
ATOM     20  C   LIG    1        4.519   1.518   3.624  0.00  0.00    +0.117 A 
ATOM     21  C   LIG    1        3.477   1.991   4.408  0.00  0.00    +0.046 A 
ATOM     22  C   LIG    1        2.261   1.335   4.407  0.00  0.00    +0.009 A 
BRANCH  20  23
ATOM     23  O   LIG    1        5.714   2.164   3.619  0.00  0.00    -0.507 OA
ATOM     24  H   LIG    1        5.785   2.856   2.947  0.00  0.00    +0.292 HD
ENDBRANCH  20  23
ENDBRANCH  16  17
BRANCH  16  25
ATOM     25  O   LIG    1        0.982  -1.927   3.634  0.00  0.00    -0.389 OA
ATOM     26  H   LIG    1        1.474  -2.244   2.865  0.00  0.00    +0.210 HD
ENDBRANCH  16  25
ENDBRANCH  14  16
ENDBRANCH   1  14
TORSDOF 9
