REMARK  Name = ZINC12370057
REMARK                            x       y       z     vdW  Elec       q    Type
REMARK                         _______ _______ _______ _____ _____    ______ ____
ROOT
ATOM      1  N   LIG    1       -3.607  -0.747   0.016  0.00  0.00    -0.238 N 
ATOM      2  C   LIG    1       -3.756  -2.085  -0.093  0.00  0.00    +0.349 A 
ATOM      3  N   LIG    1       -5.076  -2.348  -0.044  0.00  0.00    -0.225 N 
ATOM      4  N   LIG    1       -5.729  -1.246   0.080  0.00  0.00    -0.144 NA
ATOM      5  H   LIG    1       -5.473  -3.231  -0.097  0.00  0.00    +0.194 HD
ATOM      6  O   LIG    1       -2.864  -2.901  -0.211  0.00  0.00    -0.245 OA
ATOM      7  C   LIG    1       -4.876  -0.226   0.122  0.00  0.00    +0.203 A 
ENDROOT
BRANCH   1  17
ATOM      8  C   LIG    1       -1.190  -0.711   0.033  0.00  0.00    +0.030 A 
ATOM      9  C   LIG    1       -0.001  -0.007   0.037  0.00  0.00    +0.051 A 
ATOM     10  C   LIG    1       -0.013   1.380   0.017  0.00  0.00    +0.162 A 
ATOM     11  C   LIG    1       -1.224   2.063  -0.003  0.00  0.00    +0.164 A 
ATOM     12  O   LIG    1       -1.256   3.424  -0.024  0.00  0.00    -0.485 OA
ATOM     13  C   LIG    1       -0.053   4.101   0.356  0.00  0.00    +0.270 C 
ATOM     14  C   LIG    1        1.123   3.433  -0.369  0.00  0.00    +0.270 C 
ATOM     15  C   LIG    1       -2.416   1.357  -0.004  0.00  0.00    +0.075 A 
ATOM     16  O   LIG    1        1.168   2.057   0.023  0.00  0.00    -0.485 OA
ATOM     17  C   LIG    1       -2.400  -0.031   0.015  0.00  0.00    +0.057 A 
ENDBRANCH   1  17
BRANCH   7  18
ATOM     18  S   LIG    1       -5.282   1.430   0.280  0.00  0.00    -0.023 S 
BRANCH  18  19
ATOM     19  C   LIG    1       -6.989   1.311   0.354  0.00  0.00    +0.144 A 
ATOM     20  N   LIG    1       -7.763   0.220   0.295  0.00  0.00    -0.238 NA
ATOM     21  C   LIG    1       -9.052   0.331   0.374  0.00  0.00    +0.152 A 
ATOM     22  C   LIG    1       -9.618   1.603   0.508  0.00  0.00    +0.179 A 
ATOM     23  S   LIG    1       -8.203   2.610   0.522  0.00  0.00    -0.037 S 
BRANCH  22  24
ATOM     24  N   LIG    1      -11.044   1.989   0.610  0.00  0.00    +0.014 N 
ATOM     25  O   LIG    1      -11.981   1.063   0.579  0.00  0.00    -0.129 OA
BRANCH  24  26
ATOM     26  O   LIG    1      -11.377   3.257   0.733  0.00  0.00    -0.396 OA
ATOM     27  H   LIG    1      -10.710   3.916   0.755  0.00  0.00    +0.329 HD
ENDBRANCH  24  26
ENDBRANCH  22  24
ENDBRANCH  18  19
ENDBRANCH   7  18
TORSDOF 5
