REMARK  Name = ZINC11616926
REMARK                            x       y       z     vdW  Elec       q    Type
REMARK                         _______ _______ _______ _____ _____    ______ ____
ROOT
ATOM      1  C   UNK A  0       -0.734   1.961   1.269  0.00  0.00    +0.037 C 
ENDROOT
BRANCH   1   2
ATOM      2  C   UNK A  0        0.061   1.567   2.487  0.00  0.00    -0.043 A 
ATOM      3  C   UNK A  0        1.361   2.016   2.636  0.00  0.00    +0.005 A 
ATOM      4  C   UNK A  0        2.093   1.663   3.750  0.00  0.00    +0.013 A 
ATOM      5  C   UNK A  0        1.523   0.841   4.724  0.00  0.00    +0.037 A 
ATOM      6  C   UNK A  0        0.213   0.386   4.565  0.00  0.00    +0.013 A 
ATOM      7  C   UNK A  0       -0.510   0.751   3.448  0.00  0.00    +0.005 A 
BRANCH   5   8
ATOM      8  C   UNK A  0        2.303   0.454   5.918  0.00  0.00    +0.245 C 
ATOM      9  N   GLU A  1        3.568   0.894   6.069  0.00  0.00    -0.298 N 
ATOM     10  H   GLU A  1        3.966   1.465   5.394  0.00  0.00    +0.150 HD
ATOM     11  O   UNK A  0        1.804  -0.262   6.765  0.00  0.00    -0.270 OA
BRANCH   9  12
ATOM     12  CA  GLU A  1        4.341   0.510   7.253  0.00  0.00    +0.182 C 
BRANCH  12  13
ATOM     13  C   GLU A  1        4.989  -0.830   7.017  0.00  0.00    +0.325 C 
ATOM     14  O   GLU A  1        4.823  -1.405   5.968  0.00  0.00    -0.249 OA
BRANCH  13  15
ATOM     15  OXT GLU A  1        5.752  -1.384   7.973  0.00  0.00    -0.479 OA
ATOM     16  HXT GLU A  1        5.881  -0.937   8.786  0.00  0.00    +0.295 HD
ENDBRANCH  13  15
ENDBRANCH  12  13
BRANCH  12  17
ATOM     17  CB  GLU A  1        5.422   1.560   7.518  0.00  0.00    +0.045 C 
BRANCH  17  18
ATOM     18  CG  GLU A  1        4.762   2.892   7.880  0.00  0.00    +0.123 C 
BRANCH  18  19
ATOM     19  CD  GLU A  1        5.826   3.926   8.142  0.00  0.00    +0.305 C 
ATOM     20  OE1 GLU A  1        6.994   3.628   8.048  0.00  0.00    -0.251 OA
BRANCH  19  21
ATOM     21  OE2 GLU A  1        5.478   5.178   8.479  0.00  0.00    -0.481 OA
ATOM     22  HE2 GLU A  1        4.573   5.409   8.551  0.00  0.00    +0.295 HD
ENDBRANCH  19  21
ENDBRANCH  18  19
ENDBRANCH  17  18
ENDBRANCH  12  17
ENDBRANCH   9  12
ENDBRANCH   5   8
ENDBRANCH   1   2
BRANCH   1  23
ATOM     23  C   UNK A  0       -0.018   1.468   0.010  0.00  0.00    +0.097 C 
BRANCH  23  25
ATOM     24  C   UNK A  0        0.018  -1.178  -0.004  0.00  0.00    +0.004 C 
ATOM     25  C   UNK A  0        0.002  -0.004   0.002  0.00  0.00    -0.105 C 
ENDBRANCH  23  25
ENDBRANCH   1  23
BRANCH   1  26
ATOM     26  C   UNK A  0       -0.865   3.485   1.217  0.00  0.00    +0.066 C 
BRANCH  26  27
ATOM     27  C   UNK A  0       -1.762   3.873   0.070  0.00  0.00    +0.061 A 
ATOM     28  C   UNK A  0       -3.145   3.886   0.249  0.00  0.00    +0.136 A 
ATOM     29  N   UNK A  0       -3.948   4.226  -0.737  0.00  0.00    -0.232 NA
ATOM     30  C   UNK A  0       -3.433   4.553  -1.924  0.00  0.00    +0.185 A 
ATOM     31  C   UNK A  0       -2.027   4.533  -2.102  0.00  0.00    +0.148 A 
ATOM     32  C   UNK A  0       -1.499   4.898  -3.418  0.00  0.00    +0.149 A 
ATOM     33  N   UNK A  0       -2.370   5.225  -4.362  0.00  0.00    -0.198 NA
ATOM     34  C   UNK A  0       -3.678   5.222  -4.125  0.00  0.00    +0.216 A 
ATOM     35  N   UNK A  0       -4.205   4.902  -2.960  0.00  0.00    -0.193 NA
ATOM     36  N   UNK A  0       -1.233   4.191  -1.092  0.00  0.00    -0.243 NA
BRANCH  32  37
ATOM     37  N   UNK A  0       -0.144   4.902  -3.666  0.00  0.00    -0.341 N 
ATOM     38  H   UNK A  0        0.188   5.147  -4.544  0.00  0.00    +0.144 HD
ATOM     39  H   UNK A  0        0.479   4.660  -2.962  0.00  0.00    +0.144 HD
ENDBRANCH  32  37
BRANCH  34  40
ATOM     40  N   UNK A  0       -4.530   5.573  -5.155  0.00  0.00    -0.327 N 
ATOM     41  H   UNK A  0       -4.169   5.813  -6.023  0.00  0.00    +0.145 HD
ATOM     42  H   UNK A  0       -5.489   5.579  -5.010  0.00  0.00    +0.145 HD
ENDBRANCH  34  40
ENDBRANCH  26  27
ENDBRANCH   1  26
TORSDOF 15
