REMARK  Name = ZINC09045952
REMARK                            x       y       z     vdW  Elec       q    Type
REMARK                         _______ _______ _______ _____ _____    ______ ____
ROOT
ATOM      1  C   LIG    1        4.937  -2.716  -0.062  0.00  0.00    +0.018 C 
ATOM      2  C   LIG    1        4.964  -4.102   0.035  0.00  0.00    +0.101 C 
ATOM      3  C   LIG    1        6.236  -4.845   0.137  0.00  0.00    +0.276 C 
ATOM      4  O   LIG    1        7.305  -4.257   0.138  0.00  0.00    -0.268 OA
ATOM      5  N   LIG    1        6.188  -6.184   0.228  0.00  0.00    -0.127 NA
ATOM      6  C   LIG    1        5.054  -6.839   0.228  0.00  0.00    +0.278 C 
ATOM      7  N   LIG    1        3.838  -6.240   0.139  0.00  0.00    -0.238 N 
ATOM      8  H   LIG    1        3.036  -6.786   0.145  0.00  0.00    +0.159 HD
ATOM      9  C   LIG    1        3.725  -4.898   0.047  0.00  0.00    +0.256 C 
ATOM     10  O   LIG    1        2.634  -4.363  -0.028  0.00  0.00    -0.270 OA
ENDROOT
BRANCH   1  12
ATOM     11  C   LIG    1        3.678  -0.686  -0.161  0.00  0.00    +0.008 C 
ATOM     12  C   LIG    1        3.720  -2.030   0.043  0.00  0.00    +0.001 C 
BRANCH  11  16
ATOM     13  C   LIG    1       -0.005   1.390   0.154  0.00  0.00    +0.000 A 
ATOM     14  C   LIG    1        1.152   2.084  -0.156  0.00  0.00    +0.001 A 
ATOM     15  C   LIG    1        2.354   1.417  -0.261  0.00  0.00    +0.008 A 
ATOM     16  C   LIG    1        2.402   0.033  -0.051  0.00  0.00    -0.025 A 
ATOM     17  C   LIG    1        1.227  -0.661   0.263  0.00  0.00    +0.008 A 
ATOM     18  C   LIG    1        0.034   0.022   0.363  0.00  0.00    +0.001 A 
ENDBRANCH  11  16
ENDBRANCH   1  12
BRANCH   6  19
ATOM     19  O   LIG    1        5.095  -8.182   0.323  0.00  0.00    -0.483 OA
ATOM     20  H   LIG    1        5.920  -8.622   0.386  0.00  0.00    +0.295 HD
ENDBRANCH   6  19
TORSDOF 3
