REMARK  Name = ZINC12405397
REMARK                            x       y       z     vdW  Elec       q    Type
REMARK                         _______ _______ _______ _____ _____    ______ ____
ROOT
ATOM      1  C   LIG    1       -2.811  -0.231   0.013  0.00  0.00    +0.151 C 
ATOM      2  N   LIG    1       -2.524   1.206   0.021  0.00  0.00    -0.322 N 
ATOM      3  C   LIG    1       -1.290   1.791   0.018  0.00  0.00    +0.136 A 
ATOM      4  N   LIG    1       -1.433   3.106   0.032  0.00  0.00    -0.210 NA
ATOM      5  C   LIG    1       -2.726   3.421   0.034  0.00  0.00    +0.168 A 
ATOM      6  N   LIG    1       -3.416   4.623   0.044  0.00  0.00    -0.280 N 
ATOM      7  C   LIG    1       -2.679   5.889   0.048  0.00  0.00    +0.155 C 
ATOM      8  C   LIG    1       -4.762   4.629   0.050  0.00  0.00    +0.333 A 
ATOM      9  O   LIG    1       -5.350   5.693   0.058  0.00  0.00    -0.246 OA
ATOM     10  N   LIG    1       -5.473   3.488   0.046  0.00  0.00    -0.262 N 
ATOM     11  C   LIG    1       -6.937   3.551   0.053  0.00  0.00    +0.157 C 
ATOM     12  C   LIG    1       -4.860   2.287   0.038  0.00  0.00    +0.282 A 
ATOM     13  O   LIG    1       -5.516   1.260   0.035  0.00  0.00    -0.265 OA
ATOM     14  C   LIG    1       -3.451   2.232   0.031  0.00  0.00    +0.152 A 
ENDROOT
BRANCH   3  15
ATOM     15  C   LIG    1       -0.013   1.076   0.008  0.00  0.00    +0.047 C 
ATOM     16  C   LIG    1        1.146   1.766   0.001  0.00  0.00    +0.012 C 
BRANCH  16  17
ATOM     17  C   LIG    1        2.430   1.048  -0.015  0.00  0.00    -0.018 A 
ATOM     18  C   LIG    1        2.451  -0.351  -0.017  0.00  0.00    +0.057 A 
ATOM     19  C   LIG    1        3.659  -1.022  -0.036  0.00  0.00    +0.166 A 
ATOM     20  C   LIG    1        4.854  -0.308  -0.044  0.00  0.00    +0.204 A 
ATOM     21  C   LIG    1        4.837   1.084  -0.038  0.00  0.00    +0.166 A 
ATOM     22  C   LIG    1        3.632   1.762  -0.023  0.00  0.00    +0.057 A 
BRANCH  19  23
ATOM     23  O   LIG    1        3.680  -2.382  -0.042  0.00  0.00    -0.491 OA
ATOM     24  C   LIG    1        2.417  -3.051  -0.033  0.00  0.00    +0.277 C 
ENDBRANCH  19  23
BRANCH  20  25
ATOM     25  O   LIG    1        6.041  -0.972  -0.059  0.00  0.00    -0.488 OA
ATOM     26  C   LIG    1        6.618  -1.295   1.208  0.00  0.00    +0.277 C 
ENDBRANCH  20  25
BRANCH  21  27
ATOM     27  O   LIG    1        6.007   1.777  -0.045  0.00  0.00    -0.491 OA
ATOM     28  C   LIG    1        5.916   3.203  -0.037  0.00  0.00    +0.277 C 
ENDBRANCH  21  27
ENDBRANCH  16  17
ENDBRANCH   3  15
TORSDOF 5
