REMARK  Name = ZINC12370275
REMARK                            x       y       z     vdW  Elec       q    Type
REMARK                         _______ _______ _______ _____ _____    ______ ____
ROOT
ATOM      1  C   LIG    1        0.919   4.625   3.394  0.00  0.00    +0.001 A 
ATOM      2  C   LIG    1        0.774   4.196   2.088  0.00  0.00    +0.005 A 
ATOM      3  C   LIG    1        1.844   3.626   1.425  0.00  0.00    -0.027 A 
ATOM      4  C   LIG    1        3.063   3.494   2.064  0.00  0.00    +0.020 A 
ATOM      5  C   LIG    1        3.210   3.928   3.368  0.00  0.00    +0.018 A 
ATOM      6 BR   LIG    1        4.878   3.749   4.242  0.00  0.00    -0.050 Br
ATOM      7  C   LIG    1        2.137   4.494   4.034  0.00  0.00    +0.015 A 
ENDROOT
BRANCH   3   8
ATOM      8  C   LIG    1        1.684   3.153   0.003  0.00  0.00    +0.157 C 
BRANCH   8   9
ATOM      9  N   LIG    1        1.258   1.751  -0.001  0.00  0.00    -0.334 N 
ATOM     10  C   LIG    1        2.075   0.653  -0.014  0.00  0.00    +0.105 A 
ATOM     11  C   LIG    1        1.274  -0.429  -0.012  0.00  0.00    +0.101 A 
ATOM     12  N   LIG    1        0.003  -0.003   0.002  0.00  0.00    -0.352 N 
ATOM     13  H   LIG    1       -0.826  -0.609   0.007  0.00  0.00    +0.166 HD
ATOM     14  C   LIG    1       -0.016   1.301   0.009  0.00  0.00    +0.174 A 
ENDBRANCH   8   9
ENDBRANCH   3   8
TORSDOF 2
