REMARK  Name = ZINC11678783
REMARK                            x       y       z     vdW  Elec       q    Type
REMARK                         _______ _______ _______ _____ _____    ______ ____
ROOT
ATOM      1  C   LIG    1        1.468  -0.381  -0.379  0.00  0.00    +0.000 A 
ATOM      2  C   LIG    1        0.223   0.155  -0.141  0.00  0.00    +0.015 A 
ATOM      3  C   LIG    1        0.031   1.539  -0.227  0.00  0.00    -0.023 A 
ATOM      4  C   LIG    1        1.108   2.371  -0.555  0.00  0.00    +0.015 A 
ATOM      5  C   LIG    1        2.349   1.825  -0.792  0.00  0.00    +0.000 A 
ATOM      6  C   LIG    1        2.534   0.450  -0.705  0.00  0.00    +0.124 A 
ENDROOT
BRANCH   3   7
ATOM      7  C   LIG    1       -1.297   2.116   0.020  0.00  0.00    +0.028 C 
ATOM      8  C   LIG    1       -1.413   3.284   0.701  0.00  0.00    +0.079 C 
ATOM      9  C   LIG    1       -0.384   4.070   1.421  0.00  0.00    +0.276 C 
ATOM     10  N   LIG    1       -0.793   5.181   1.992  0.00  0.00    -0.155 NA
ATOM     11  C   LIG    1       -2.054   5.581   1.946  0.00  0.00    +0.149 C 
ATOM     12  O   LIG    1        0.781   3.707   1.476  0.00  0.00    -0.267 OA
ATOM     13  S   LIG    1       -2.854   4.303   0.988  0.00  0.00    -0.052 S 
BRANCH  11  14
ATOM     14  N   LIG    1       -2.610   6.704   2.499  0.00  0.00    -0.339 N 
ATOM     15  H   LIG    1       -1.982   7.405   3.068  0.00  0.00    +0.144 HD
ATOM     16  H   LIG    1       -3.684   6.904   2.374  0.00  0.00    +0.144 HD
ENDBRANCH  11  14
ENDBRANCH   3   7
BRANCH   1  18
ATOM     17  C   LIG    1        0.355  -2.548   0.083  0.00  0.00    +0.015 C 
ATOM     18  C   LIG    1        1.676  -1.871  -0.287  0.00  0.00    -0.009 C 
ATOM     19  C   LIG    1        2.723  -2.174   0.787  0.00  0.00    +0.015 C 
ATOM     20  C   LIG    1        2.162  -2.402  -1.637  0.00  0.00    +0.015 C 
ENDBRANCH   1  18
BRANCH   5  21
ATOM     21  C   LIG    1        3.510   2.719  -1.145  0.00  0.00    -0.009 C 
ATOM     22  C   LIG    1        4.052   2.330  -2.523  0.00  0.00    +0.015 C 
ATOM     23  C   LIG    1        4.615   2.559  -0.099  0.00  0.00    +0.015 C 
ATOM     24  C   LIG    1        3.042   4.175  -1.174  0.00  0.00    +0.015 C 
ENDBRANCH   5  21
BRANCH   6  25
ATOM     25  O   LIG    1        3.760  -0.084  -0.939  0.00  0.00    -0.506 OA
ATOM     26  H   LIG    1        4.605   0.572  -1.197  0.00  0.00    +0.292 HD
ENDBRANCH   6  25
TORSDOF 5
