REMARK  Name = ZINC09252701
REMARK                            x       y       z     vdW  Elec       q    Type
REMARK                         _______ _______ _______ _____ _____    ______ ____
ROOT
ATOM      1  N   LIG    1       -8.526   3.381   0.062  0.00  0.00    -0.299 N 
ATOM      2  H   LIG    1       -8.640   2.418   0.057  0.00  0.00    +0.150 HD
ATOM      3  C   LIG    1       -7.288   3.913   0.059  0.00  0.00    +0.251 C 
ATOM      4  O   LIG    1       -7.145   5.117   0.065  0.00  0.00    -0.272 OA
ENDROOT
BRANCH   1   5
ATOM      5  C   LIG    1       -9.700   4.257   0.073  0.00  0.00    +0.186 C 
BRANCH   5   6
ATOM      6  C   LIG    1      -10.036   4.665  -1.338  0.00  0.00    +0.328 C 
ATOM      7  O   LIG    1       -9.363   4.265  -2.259  0.00  0.00    -0.249 OA
BRANCH   6   9
ATOM      8  C   LIG    1      -11.345   5.825  -2.957  0.00  0.00    +0.280 C 
ATOM      9  O   LIG    1      -11.081   5.473  -1.573  0.00  0.00    -0.467 OA
ENDBRANCH   6   9
ENDBRANCH   5   6
BRANCH   5  10
ATOM     10  C   LIG    1      -10.888   3.511   0.684  0.00  0.00    +0.069 C 
BRANCH  10  11
ATOM     11  C   LIG    1      -10.601   3.211   2.133  0.00  0.00    -0.045 A 
ATOM     12  C   LIG    1       -9.980   2.027   2.484  0.00  0.00    +0.004 A 
ATOM     13  C   LIG    1       -9.713   1.754   3.812  0.00  0.00    +0.000 A 
ATOM     14  C   LIG    1      -10.075   2.660   4.791  0.00  0.00    +0.000 A 
ATOM     15  C   LIG    1      -10.701   3.842   4.441  0.00  0.00    +0.000 A 
ATOM     16  C   LIG    1      -10.963   4.118   3.112  0.00  0.00    +0.004 A 
ENDBRANCH  10  11
ENDBRANCH   5  10
ENDBRANCH   1   5
BRANCH   3  17
ATOM     17  C   LIG    1       -6.080   3.011   0.048  0.00  0.00    +0.324 C 
BRANCH  17  18
ATOM     18  O   LIG    1       -4.893   3.806   0.046  0.00  0.00    -0.483 OA
BRANCH  18  19
ATOM     19  C   LIG    1       -3.709   3.143   0.037  0.00  0.00    +0.121 A 
ATOM     20  C   LIG    1       -2.515   3.857   0.035  0.00  0.00    +0.046 A 
ATOM     21  C   LIG    1       -1.316   3.193   0.026  0.00  0.00    +0.014 A 
ATOM     22  C   LIG    1       -1.294   1.793   0.018  0.00  0.00    +0.014 A 
ATOM     23  C   LIG    1       -2.499   1.079   0.014  0.00  0.00    +0.014 A 
ATOM     24  C   LIG    1       -3.693   1.753   0.029  0.00  0.00    +0.046 A 
BRANCH  22  25
ATOM     25  C   LIG    1       -0.013   1.076   0.008  0.00  0.00    +0.258 C 
ATOM     26  O   LIG    1        1.030   1.696   0.001  0.00  0.00    -0.296 OA
ENDBRANCH  22  25
ENDBRANCH  18  19
ENDBRANCH  17  18
ENDBRANCH   3  17
TORSDOF 9
