REMARK  Name = ZINC12546492
REMARK                            x       y       z     vdW  Elec       q    Type
REMARK                         _______ _______ _______ _____ _____    ______ ____
ROOT
ATOM      1  C   LIG    1       -0.014   1.211   0.009  0.00  0.00    +0.244 C 
ATOM      2  N   LIG    1        1.143   1.901   0.001  0.00  0.00    -0.311 N 
ATOM      3  H   LIG    1        1.130   2.871   0.007  0.00  0.00    +0.149 HD
ATOM      4  O   LIG    1        0.002  -0.004   0.002  0.00  0.00    -0.270 OA
ENDROOT
BRANCH   1  11
ATOM      5  C   LIG    1       -1.327   3.329   0.032  0.00  0.00    +0.014 A 
ATOM      6  C   LIG    1       -2.534   3.996   0.037  0.00  0.00    +0.015 A 
ATOM      7  C   LIG    1       -3.721   3.285   0.038  0.00  0.00    +0.013 A 
ATOM      8  I   LIG    1       -5.550   4.308   0.053  0.00  0.00    -0.044 I 
ATOM      9  C   LIG    1       -3.706   1.901   0.030  0.00  0.00    +0.015 A 
ATOM     10  C   LIG    1       -2.506   1.222   0.021  0.00  0.00    +0.014 A 
ATOM     11  C   LIG    1       -1.304   1.933   0.019  0.00  0.00    +0.037 A 
ENDBRANCH   1  11
BRANCH   2  12
ATOM     12  C   LIG    1        2.422   1.186  -0.015  0.00  0.00    +0.106 C 
BRANCH  12  13
ATOM     13  C   LIG    1        3.571   2.196  -0.020  0.00  0.00    +0.040 C 
BRANCH  13  14
ATOM     14  C   LIG    1        4.907   1.449  -0.037  0.00  0.00    +0.124 C 
BRANCH  14  15
ATOM     15  N   LIG    1        6.007   2.416  -0.042  0.00  0.00    -0.337 N 
ATOM     16  C   LIG    1        6.610   2.954  -1.147  0.00  0.00    +0.106 A 
ATOM     17  C   LIG    1        7.564   3.793  -0.700  0.00  0.00    +0.130 A 
ATOM     18  N   LIG    1        7.550   3.762   0.640  0.00  0.00    -0.244 NA
ATOM     19  C   LIG    1        6.620   2.939   1.042  0.00  0.00    +0.199 A 
ENDBRANCH  14  15
ENDBRANCH  13  14
ENDBRANCH  12  13
ENDBRANCH   2  12
TORSDOF 5
