REMARK  Name = ZINC08681779
REMARK                            x       y       z     vdW  Elec       q    Type
REMARK                         _______ _______ _______ _____ _____    ______ ____
ROOT
ATOM      1  C   LIG    1        0.257  -4.757   2.989  0.00  0.00    +0.185 C 
ATOM      2  C   LIG    1        1.003  -5.629   1.981  0.00  0.00    +0.052 C 
ATOM      3  C   LIG    1        1.038  -7.067   2.520  0.00  0.00    +0.012 C 
ATOM      4  C   LIG    1        1.746  -7.979   1.516  0.00  0.00    +0.012 C 
ATOM      5  C   LIG    1        1.798  -7.048   3.821  0.00  0.00    -0.020 C 
ATOM      6  C   LIG    1        1.744  -6.000   4.622  0.00  0.00    -0.044 C 
ATOM      7  C   LIG    1        2.550  -5.992   5.864  0.00  0.00    -0.000 C 
ATOM      8  C   LIG    1        2.745  -4.857   6.510  0.00  0.00    -0.023 C 
ATOM      9  C   LIG    1        2.177  -3.538   6.084  0.00  0.00    +0.012 C 
ATOM     10  C   LIG    1        0.951  -3.224   6.944  0.00  0.00    +0.012 C 
ATOM     11  C   LIG    1        1.764  -3.547   4.611  0.00  0.00    +0.007 C 
ATOM     12  C   LIG    1        0.906  -4.787   4.351  0.00  0.00    +0.063 C 
ENDROOT
BRANCH   1  13
ATOM     13  O   LIG    1        0.240  -3.409   2.513  0.00  0.00    -0.461 OA
BRANCH  13  14
ATOM     14  C   LIG    1        1.281  -3.014   1.764  0.00  0.00    +0.310 C 
ATOM     15  O   LIG    1        2.243  -3.734   1.639  0.00  0.00    -0.251 OA
BRANCH  14  16
ATOM     16  C   LIG    1        1.251  -1.672   1.080  0.00  0.00    +0.094 C 
ATOM     17  C   LIG    1        0.003  -1.576   0.200  0.00  0.00    +0.019 C 
BRANCH  16  19
ATOM     18  C   LIG    1        2.532  -0.105  -0.385  0.00  0.00    +0.004 C 
ATOM     19  C   LIG    1        2.500  -1.514   0.211  0.00  0.00    +0.011 C 
ENDBRANCH  16  19
ENDBRANCH  14  16
ENDBRANCH  13  14
ENDBRANCH   1  13
BRANCH  11  20
ATOM     20  C   LIG    1        0.956  -2.288   4.293  0.00  0.00    +0.008 C 
BRANCH  20  21
ATOM     21  C   LIG    1        1.546  -1.098   5.052  0.00  0.00    +0.045 C 
BRANCH  21  22
ATOM     22  C   LIG    1        0.656   0.130   4.848  0.00  0.00    +0.179 C 
ATOM     23  C   LIG    1        1.309   1.349   5.503  0.00  0.00    +0.076 C 
ATOM     24  C   LIG    1        0.395   2.567   5.334  0.00  0.00    +0.129 C 
ATOM     25  C   LIG    1       -0.957   2.269   5.994  0.00  0.00    +0.152 C 
ATOM     26  C   LIG    1       -1.467   0.950   5.457  0.00  0.00    +0.310 C 
ATOM     27  O   LIG    1       -2.598   0.842   5.046  0.00  0.00    -0.251 OA
ATOM     28  O   LIG    1       -0.623  -0.103   5.449  0.00  0.00    -0.461 OA
BRANCH  24  29
ATOM     29  O   LIG    1        0.203   2.831   3.942  0.00  0.00    -0.391 OA
ATOM     30  H   LIG    1       -0.367   3.591   3.761  0.00  0.00    +0.210 HD
ENDBRANCH  24  29
ENDBRANCH  21  22
ENDBRANCH  20  21
ENDBRANCH  11  20
TORSDOF 8
