REMARK  Name = ZINC11687040
REMARK                            x       y       z     vdW  Elec       q    Type
REMARK                         _______ _______ _______ _____ _____    ______ ____
ROOT
ATOM      1  C   LIG    1       -1.260  -0.163 -10.331  0.00  0.00    +0.111 A 
ATOM      2  N   LIG    1       -2.296   0.283  -9.683  0.00  0.00    -0.232 NA
ATOM      3  C   LIG    1       -2.006   0.361  -8.358  0.00  0.00    +0.089 A 
ATOM      4  C   LIG    1       -2.736   0.765  -7.236  0.00  0.00    +0.032 A 
ATOM      5  C   LIG    1       -2.159   0.732  -5.999  0.00  0.00    +0.025 A 
ATOM      6  C   LIG    1       -0.844   0.298  -5.840  0.00  0.00    +0.037 A 
ATOM      7  C   LIG    1       -0.103  -0.101  -6.940  0.00  0.00    +0.051 A 
ATOM      8  C   LIG    1       -0.680  -0.077  -8.202  0.00  0.00    +0.071 A 
ATOM      9  N   LIG    1       -0.235  -0.402  -9.467  0.00  0.00    -0.323 N 
ENDROOT
BRANCH   6  10
ATOM     10  N   LIG    1       -0.268   0.271  -4.564  0.00  0.00    -0.269 N 
ATOM     11  H   LIG    1       -0.511   0.943  -3.908  0.00  0.00    +0.156 HD
ATOM     12  C   LIG    1        0.623  -0.689  -4.248  0.00  0.00    +0.304 C 
ATOM     13  N   LIG    1        1.255  -0.657  -3.057  0.00  0.00    -0.296 N 
ATOM     14  H   LIG    1        1.067   0.058  -2.429  0.00  0.00    +0.151 HD
ATOM     15  O   LIG    1        0.858  -1.585  -5.036  0.00  0.00    -0.253 OA
BRANCH  13  16
ATOM     16  C   LIG    1        2.224  -1.700  -2.713  0.00  0.00    +0.074 C 
ATOM     17  C   LIG    1        3.216  -1.155  -1.684  0.00  0.00    +0.022 C 
ATOM     18  C   LIG    1        4.228  -2.245  -1.325  0.00  0.00    +0.002 C 
ATOM     19  C   LIG    1        3.492  -3.450  -0.736  0.00  0.00    +0.000 C 
ATOM     20  C   LIG    1        2.500  -3.995  -1.765  0.00  0.00    +0.002 C 
ATOM     21  C   LIG    1        1.488  -2.905  -2.125  0.00  0.00    +0.022 C 
ENDBRANCH  13  16
ENDBRANCH   6  10
BRANCH   1  22
ATOM     22  C   LIG    1       -1.203  -0.383 -11.821  0.00  0.00    +0.074 C 
BRANCH  22  23
ATOM     23  C   LIG    1       -0.602   0.851 -12.496  0.00  0.00    +0.007 C 
BRANCH  23  25
ATOM     24  C   LIG    1        0.171   1.816 -14.667  0.00  0.00    +0.004 C 
ATOM     25  C   LIG    1       -0.430   0.582 -13.992  0.00  0.00    -0.003 C 
ENDBRANCH  23  25
ENDBRANCH  22  23
ENDBRANCH   1  22
BRANCH   9  26
ATOM     26  C   LIG    1        1.095  -0.909  -9.817  0.00  0.00    +0.158 C 
BRANCH  26  27
ATOM     27  C   LIG    1        1.082  -2.416  -9.786  0.00  0.00    -0.028 A 
ATOM     28  C   LIG    1        1.268  -3.082  -8.587  0.00  0.00    +0.006 A 
ATOM     29  C   LIG    1        1.252  -4.461  -8.552  0.00  0.00    +0.009 A 
ATOM     30  C   LIG    1        1.058  -5.184  -9.729  0.00  0.00    -0.017 A 
ATOM     31  C   LIG    1        0.876  -4.507 -10.934  0.00  0.00    +0.009 A 
ATOM     32  C   LIG    1        0.889  -3.127 -10.956  0.00  0.00    +0.006 A 
BRANCH  30  33
ATOM     33  C   LIG    1        1.045  -6.665  -9.698  0.00  0.00    -0.004 A 
ATOM     34  C   LIG    1        1.948  -7.390 -10.471  0.00  0.00    +0.009 A 
ATOM     35  C   LIG    1        1.932  -8.770 -10.440  0.00  0.00    +0.001 A 
ATOM     36  C   LIG    1        1.022  -9.443  -9.642  0.00  0.00    +0.001 A 
ATOM     37  C   LIG    1        0.119  -8.744  -8.868  0.00  0.00    +0.015 A 
ATOM     38  C   LIG    1        0.124  -7.348  -8.883  0.00  0.00    +0.067 A 
BRANCH  38  39
ATOM     39  C   LIG    1       -0.835  -6.594  -8.053  0.00  0.00    +0.337 C 
ATOM     40  O   LIG    1       -0.907  -5.385  -8.154  0.00  0.00    -0.245 OA
BRANCH  39  41
ATOM     41  O   LIG    1       -1.631  -7.246  -7.183  0.00  0.00    -0.477 OA
ATOM     42  H   LIG    1       -1.576  -8.178  -7.105  0.00  0.00    +0.295 HD
ENDBRANCH  39  41
ENDBRANCH  38  39
ENDBRANCH  30  33
ENDBRANCH  26  27
ENDBRANCH   9  26
TORSDOF 10
