REMARK  Name = ZINC12732673
REMARK                            x       y       z     vdW  Elec       q    Type
REMARK                         _______ _______ _______ _____ _____    ______ ____
ROOT
ATOM      1  C   LIG    1       -0.193  -6.385   1.109  0.00  0.00    +0.100 C 
ATOM      2  C   LIG    1       -0.021  -7.147   2.273  0.00  0.00    +0.074 C 
ENDROOT
BRANCH   2   3
ATOM      3  C   LIG    1       -0.128  -6.545   3.518  0.00  0.00    +0.131 A 
ATOM      4  C   LIG    1       -0.095  -7.226   4.821  0.00  0.00    +0.050 A 
ATOM      5  C   LIG    1       -0.232  -6.257   5.762  0.00  0.00    +0.050 A 
ATOM      6  C   LIG    1       -0.347  -5.018   5.085  0.00  0.00    +0.138 A 
ATOM      7  O   LIG    1       -0.276  -5.224   3.758  0.00  0.00    -0.455 OA
BRANCH   6   8
ATOM      8  C   LIG    1       -0.507  -3.756   5.709  0.00  0.00    +0.047 A 
ATOM      9  C   LIG    1       -1.495  -3.573   6.697  0.00  0.00    +0.014 A 
ATOM     10  C   LIG    1       -1.640  -2.353   7.292  0.00  0.00    +0.001 A 
ATOM     11  C   LIG    1       -0.820  -1.295   6.927  0.00  0.00    +0.002 A 
ATOM     12  C   LIG    1        0.156  -1.463   5.955  0.00  0.00    +0.033 A 
ATOM     13  C   LIG    1        0.323  -2.676   5.351  0.00  0.00    +0.132 A 
BRANCH  13  14
ATOM     14  N   LIG    1        1.369  -2.854   4.318  0.00  0.00    +0.007 N 
ATOM     15  O   LIG    1        2.144  -1.843   3.985  0.00  0.00    -0.130 OA
BRANCH  14  16
ATOM     16  O   LIG    1        1.524  -4.024   3.733  0.00  0.00    -0.396 OA
ATOM     17  H   LIG    1        0.972  -4.743   3.970  0.00  0.00    +0.329 HD
ENDBRANCH  14  16
ENDBRANCH  13  14
ENDBRANCH   6   8
ENDBRANCH   2   3
BRANCH   1  19
ATOM     18  C   LIG    1        0.345  -4.164   0.620  0.00  0.00    +0.248 C 
ATOM     19  N   LIG    1       -0.471  -5.066   1.200  0.00  0.00    -0.277 N 
ATOM     20  H   LIG    1       -1.258  -4.768   1.683  0.00  0.00    +0.155 HD
ATOM     21  O   LIG    1        1.372  -4.530   0.085  0.00  0.00    -0.270 OA
BRANCH  18  26
ATOM     22  C   LIG    1       -1.038   1.421   0.677  0.00  0.00    +0.044 C 
ATOM     23  C   LIG    1       -0.676  -0.042   0.662  0.00  0.00    -0.050 A 
ATOM     24  C   LIG    1        0.495  -0.455   0.052  0.00  0.00    +0.004 A 
ATOM     25  C   LIG    1        0.833  -1.792   0.035  0.00  0.00    +0.013 A 
ATOM     26  C   LIG    1       -0.010  -2.730   0.635  0.00  0.00    +0.037 A 
ATOM     27  C   LIG    1       -1.190  -2.306   1.249  0.00  0.00    +0.013 A 
ATOM     28  C   LIG    1       -1.513  -0.965   1.264  0.00  0.00    +0.004 A 
ENDBRANCH  18  26
ENDBRANCH   1  19
BRANCH   1  29
ATOM     29  C   LIG    1       -0.070  -7.030  -0.227  0.00  0.00    +0.258 C 
ATOM     30  N   LIG    1       -0.334  -6.322  -1.343  0.00  0.00    -0.310 N 
ATOM     31  H   LIG    1       -0.547  -5.378  -1.280  0.00  0.00    +0.149 HD
ATOM     32  O   LIG    1        0.269  -8.192  -0.312  0.00  0.00    -0.269 OA
BRANCH  30  33
ATOM     33  C   LIG    1       -0.299  -6.979  -2.652  0.00  0.00    +0.103 C 
BRANCH  33  34
ATOM     34  C   LIG    1       -0.634  -5.960  -3.744  0.00  0.00    +0.000 C 
BRANCH  34  35
ATOM     35  C   LIG    1       -0.597  -6.646  -5.111  0.00  0.00    -0.078 C 
BRANCH  35  36
ATOM     36  N   LIG    1       -0.918  -5.667  -6.158  0.00  0.00    +0.376 N 
ATOM     37  H   LIG    1       -1.804  -5.230  -5.950  0.00  0.00    -0.083 HD
ATOM     38  C   LIG    1       -1.001  -6.349  -7.457  0.00  0.00    -0.097 C 
ATOM     39  C   LIG    1        0.133  -4.642  -6.210  0.00  0.00    -0.097 C 
ENDBRANCH  35  36
ENDBRANCH  34  35
ENDBRANCH  33  34
ENDBRANCH  30  33
ENDBRANCH   1  29
TORSDOF 11
