REMARK  Name = ZINC11957328
REMARK                            x       y       z     vdW  Elec       q    Type
REMARK                         _______ _______ _______ _____ _____    ______ ____
ROOT
ATOM      1  C   LIG    1       -0.014   1.209   0.009  0.00  0.00    +0.201 C 
ATOM      2  N   LIG    1        1.143   1.898   0.001  0.00  0.00    -0.303 N 
ATOM      3  C   LIG    1        1.268   3.363   0.002  0.00  0.00    +0.108 C 
ATOM      4  C   LIG    1        2.775   3.695  -0.033  0.00  0.00    +0.020 C 
ATOM      5  C   LIG    1        3.399   2.406  -0.630  0.00  0.00    +0.020 C 
ATOM      6  C   LIG    1        2.495   1.309  -0.015  0.00  0.00    +0.108 C 
ATOM      7  O   LIG    1        0.002  -0.004   0.002  0.00  0.00    -0.277 OA
ENDROOT
BRANCH   1   9
ATOM      8  C   LIG    1       -1.646   2.404   1.444  0.00  0.00    -0.005 C 
ATOM      9  C   LIG    1       -1.330   1.944   0.019  0.00  0.00    +0.010 C 
BRANCH   9  10
ATOM     10  N   LIG    1       -2.414   1.065  -0.452  0.00  0.00    +0.385 N 
ATOM     11  H   LIG    1       -3.305   1.574  -0.406  0.00  0.00    -0.089 HD
ATOM     12  H   LIG    1       -2.474   0.237   0.138  0.00  0.00    -0.089 HD
ATOM     13  H   LIG    1       -2.242   0.784  -1.416  0.00  0.00    -0.089 HD
ENDBRANCH   9  10
ENDBRANCH   1   9
TORSDOF 2
