REMARK  Name = ZINC12354826
REMARK                            x       y       z     vdW  Elec       q    Type
REMARK                         _______ _______ _______ _____ _____    ______ ____
ROOT
ATOM      1  C   LIG    1        0.721  -3.216  -0.021  0.00  0.00    +0.125 C 
ATOM      2  N   LIG    1        1.206  -4.432  -0.033  0.00  0.00    -0.255 NA
ENDROOT
BRANCH   1   8
ATOM      3  C   LIG    1       -0.017   1.374   0.010  0.00  0.00    +0.001 A 
ATOM      4  C   LIG    1        1.172   2.089   0.002  0.00  0.00    +0.002 A 
ATOM      5  C   LIG    1        2.385   1.435  -0.013  0.00  0.00    +0.026 A 
ATOM      6  C   LIG    1        2.425   0.045  -0.021  0.00  0.00    +0.050 A 
ATOM      7  C   LIG    1        1.221  -0.677  -0.013  0.00  0.00    +0.012 A 
ATOM      8  C   LIG    1        1.599  -2.104  -0.024  0.00  0.00    +0.062 A 
ATOM      9  C   LIG    1        2.985  -2.138  -0.038  0.00  0.00    +0.200 A 
ATOM     10  N   LIG    1        3.466  -0.866  -0.035  0.00  0.00    -0.325 N 
ATOM     11  H   LIG    1        4.406  -0.631  -0.044  0.00  0.00    +0.169 HD
ATOM     12  C   LIG    1        0.002  -0.004   0.002  0.00  0.00    +0.011 A 
BRANCH   9  13
ATOM     13  O   LIG    1        3.740  -3.260  -0.051  0.00  0.00    -0.493 OA
ATOM     14  H   LIG    1        3.951  -3.581  -0.938  0.00  0.00    +0.294 HD
ENDBRANCH   9  13
ENDBRANCH   1   8
BRANCH   2  15
ATOM     15  C   LIG    1        0.358  -5.506  -0.030  0.00  0.00    +0.064 A 
ATOM     16  C   LIG    1       -0.742  -5.529   0.831  0.00  0.00    +0.029 A 
ATOM     17  C   LIG    1       -1.593  -6.615   0.828  0.00  0.00    +0.030 A 
ATOM     18  C   LIG    1       -1.359  -7.679  -0.025  0.00  0.00    +0.105 A 
ATOM     19  C   LIG    1       -0.271  -7.663  -0.880  0.00  0.00    +0.030 A 
ATOM     20  C   LIG    1        0.585  -6.582  -0.892  0.00  0.00    +0.029 A 
BRANCH  18  21
ATOM     21  S   LIG    1       -2.451  -9.062  -0.022  0.00  0.00    +0.056 S 
ATOM     22  O   LIG    1       -3.080  -9.080   1.252  0.00  0.00    -0.153 OA
ATOM     23  O   LIG    1       -1.709 -10.167  -0.520  0.00  0.00    -0.153 OA
BRANCH  21  24
ATOM     24  N   LIG    1       -3.639  -8.750  -1.133  0.00  0.00    -0.204 NA
ATOM     25  H   LIG    1       -4.346  -9.398  -1.282  0.00  0.00    +0.144 HD
ATOM     26  H   LIG    1       -3.628  -7.920  -1.634  0.00  0.00    +0.144 HD
ENDBRANCH  21  24
ENDBRANCH  18  21
ENDBRANCH   2  15
TORSDOF 5
