REMARK  Name = ZINC08673078
REMARK                            x       y       z     vdW  Elec       q    Type
REMARK                         _______ _______ _______ _____ _____    ______ ____
ROOT
ATOM      1  C   LIG    1       -1.260  -0.783   0.010  0.00  0.00    +0.000 A 
ATOM      2  C   LIG    1       -1.584  -1.596   1.119  0.00  0.00    +0.038 A 
ATOM      3  C   LIG    1       -2.751  -2.304   1.105  0.00  0.00    +0.090 A 
ATOM      4  C   LIG    1       -3.606  -2.208  -0.016  0.00  0.00    +0.270 A 
ATOM      5  O   LIG    1       -4.652  -2.836  -0.040  0.00  0.00    -0.266 OA
ATOM      6  N   LIG    1       -3.270  -1.424  -1.058  0.00  0.00    -0.327 N 
ATOM      7  H   LIG    1       -3.864  -1.365  -1.823  0.00  0.00    +0.168 HD
ATOM      8  C   LIG    1       -2.114  -0.712  -1.051  0.00  0.00    +0.094 A 
ENDROOT
BRANCH   1  14
ATOM      9  C   LIG    1       -0.017   1.394   0.010  0.00  0.00    +0.028 A 
ATOM     10  C   LIG    1        1.180   2.079   0.002  0.00  0.00    +0.111 A 
ATOM     11  N   LIG    1        2.330   1.433  -0.013  0.00  0.00    -0.263 NA
ATOM     12  C   LIG    1        2.392   0.115  -0.021  0.00  0.00    +0.111 A 
ATOM     13  C   LIG    1        1.243  -0.648  -0.014  0.00  0.00    +0.028 A 
ATOM     14  C   LIG    1        0.002  -0.004   0.002  0.00  0.00    -0.014 A 
ENDBRANCH   1  14
BRANCH   3  15
ATOM     15  N   LIG    1       -3.097  -3.119   2.191  0.00  0.00    -0.354 N 
ATOM     16  H   LIG    1       -3.928  -3.620   2.175  0.00  0.00    +0.142 HD
ATOM     17  H   LIG    1       -2.507  -3.182   2.957  0.00  0.00    +0.142 HD
ENDBRANCH   3  15
TORSDOF 2
