REMARK  Name = ZINC08616043
REMARK                            x       y       z     vdW  Elec       q    Type
REMARK                         _______ _______ _______ _____ _____    ______ ____
ROOT
ATOM      1  C   LIG    1       -0.017   1.384   0.010  0.00  0.00    +0.004 A 
ATOM      2  C   LIG    1        1.157   2.106   0.002  0.00  0.00    +0.014 A 
ATOM      3  C   LIG    1        2.379   1.434  -0.013  0.00  0.00    +0.050 A 
ATOM      4  C   LIG    1        2.404   0.021  -0.021  0.00  0.00    +0.030 A 
ATOM      5  C   LIG    1        1.200  -0.693  -0.013  0.00  0.00    +0.125 A 
ATOM      6  C   LIG    1        3.704  -0.652  -0.037  0.00  0.00    +0.030 A 
ATOM      7  C   LIG    1        4.827   0.083  -0.045  0.00  0.00    +0.086 A 
ATOM      8  N   LIG    1        4.808   1.449  -0.037  0.00  0.00    -0.329 N 
ATOM      9  H   LIG    1        5.651   1.930  -0.043  0.00  0.00    +0.168 HD
ATOM     10  C   LIG    1        3.659   2.153  -0.022  0.00  0.00    +0.257 A 
ATOM     11  O   LIG    1        3.682   3.370  -0.015  0.00  0.00    -0.267 OA
ATOM     12  C   LIG    1        0.002  -0.004   0.002  0.00  0.00    +0.046 A 
ENDROOT
BRANCH   5  13
ATOM     13  O   LIG    1        1.209  -2.052  -0.021  0.00  0.00    -0.506 OA
ATOM     14  H   LIG    1        1.221  -2.450   0.860  0.00  0.00    +0.292 HD
ENDBRANCH   5  13
TORSDOF 1
