REMARK  Name = ZINC12941871
REMARK                            x       y       z     vdW  Elec       q    Type
REMARK                         _______ _______ _______ _____ _____    ______ ____
ROOT
ATOM      1  C   LIG    1        0.618  -2.715  -0.019  0.00  0.00    +0.001 A 
ATOM      2  C   LIG    1       -0.704  -2.297  -0.004  0.00  0.00    +0.002 A 
ATOM      3  C   LIG    1       -1.014  -0.955   0.007  0.00  0.00    +0.026 A 
ATOM      4  C   LIG    1        0.002  -0.004   0.002  0.00  0.00    +0.048 A 
ATOM      5  C   LIG    1        1.340  -0.428  -0.013  0.00  0.00    +0.009 A 
ATOM      6  C   LIG    1        2.163   0.790  -0.014  0.00  0.00    +0.034 A 
ATOM      7  C   LIG    1        1.273   1.875   0.000  0.00  0.00    +0.068 A 
ATOM      8  C   LIG    1        1.792   3.169   0.002  0.00  0.00    +0.137 A 
ATOM      9  N   LIG    1        3.090   3.377  -0.010  0.00  0.00    -0.251 NA
ATOM     10  C   LIG    1        3.970   2.380  -0.024  0.00  0.00    +0.097 A 
ATOM     11  C   LIG    1        5.445   2.339  -0.039  0.00  0.00    +0.026 A 
ATOM     12  C   LIG    1        6.429   3.325  -0.044  0.00  0.00    +0.012 A 
ATOM     13  C   LIG    1        7.759   2.963  -0.060  0.00  0.00    +0.001 A 
ATOM     14  C   LIG    1        8.119   1.624  -0.070  0.00  0.00    +0.002 A 
ATOM     15  C   LIG    1        7.154   0.639  -0.065  0.00  0.00    +0.026 A 
ATOM     16  C   LIG    1        5.806   0.984  -0.050  0.00  0.00    +0.049 A 
ATOM     17  N   LIG    1        4.650   0.226  -0.042  0.00  0.00    -0.352 N 
ATOM     18  H   LIG    1        4.622  -0.744  -0.046  0.00  0.00    +0.166 HD
ATOM     19  C   LIG    1        3.540   1.047  -0.026  0.00  0.00    +0.076 A 
ATOM     20  N   LIG    1       -0.017   1.379   0.010  0.00  0.00    -0.353 N 
ATOM     21  H   LIG    1       -0.820   1.922   0.017  0.00  0.00    +0.166 HD
ATOM     22  C   LIG    1        1.639  -1.790  -0.023  0.00  0.00    +0.010 A 
ENDROOT
TORSDOF 0
