REMARK  Name = ZINC12985643
REMARK                            x       y       z     vdW  Elec       q    Type
REMARK                         _______ _______ _______ _____ _____    ______ ____
ROOT
ATOM      1  C   LIG    1        1.389   4.824   0.246  0.00  0.00    +0.263 C 
ATOM      2  N   LIG    1        0.730   5.957  -0.070  0.00  0.00    -0.295 N 
ATOM      3  C   LIG    1       -0.735   5.971  -0.088  0.00  0.00    +0.132 C 
ATOM      4  O   LIG    1        2.606   4.815   0.271  0.00  0.00    -0.268 OA
ENDROOT
BRANCH   1  10
ATOM      5  C   LIG    1        2.565   1.966   0.464  0.00  0.00    +0.149 C 
ATOM      6  N   LIG    1        1.160   2.332   0.658  0.00  0.00    -0.346 N 
ATOM      7  C   LIG    1        0.156   1.476   0.968  0.00  0.00    +0.086 A 
ATOM      8  C   LIG    1       -1.001   2.174   1.064  0.00  0.00    +0.020 A 
ATOM      9  C   LIG    1       -0.713   3.519   0.812  0.00  0.00    +0.032 A 
ATOM     10  C   LIG    1        0.640   3.603   0.560  0.00  0.00    +0.104 A 
ENDBRANCH   1  10
BRANCH   2  11
ATOM     11  C   LIG    1        1.479   7.173  -0.397  0.00  0.00    +0.142 C 
BRANCH  11  12
ATOM     12  C   LIG    1        1.748   7.215  -1.879  0.00  0.00    -0.030 A 
ATOM     13  C   LIG    1        2.904   6.651  -2.387  0.00  0.00    +0.008 A 
ATOM     14  C   LIG    1        3.150   6.685  -3.746  0.00  0.00    +0.038 A 
ATOM     15  C   LIG    1        2.243   7.292  -4.599  0.00  0.00    +0.123 A 
ATOM     16  F   LIG    1        2.485   7.329  -5.927  0.00  0.00    -0.205 F 
ATOM     17  C   LIG    1        1.089   7.861  -4.088  0.00  0.00    +0.038 A 
ATOM     18  C   LIG    1        0.842   7.821  -2.729  0.00  0.00    +0.008 A 
ENDBRANCH  11  12
ENDBRANCH   2  11
TORSDOF 3
