REMARK  Name = ZINC11639175
REMARK                            x       y       z     vdW  Elec       q    Type
REMARK                         _______ _______ _______ _____ _____    ______ ____
ROOT
ATOM      1  C   LIG    1       -1.153   1.681   0.018  0.00  0.00    +0.252 C 
ATOM      2  N   LIG    1       -0.011   0.966   0.007  0.00  0.00    -0.278 N 
ATOM      3  H   LIG    1       -0.046  -0.003  -0.011  0.00  0.00    +0.155 HD
ATOM      4  O   LIG    1       -1.112   2.894  -0.064  0.00  0.00    -0.270 OA
ENDROOT
BRANCH   2   5
ATOM      5  C   LIG    1        1.226   1.622   0.017  0.00  0.00    +0.077 A 
ATOM      6  C   LIG    1        1.330   2.903   0.539  0.00  0.00    +0.047 A 
ATOM      7  C   LIG    1        2.554   3.547   0.552  0.00  0.00    +0.043 A 
ATOM      8 CL   LIG    1        2.684   5.147   1.213  0.00  0.00    -0.083 Cl
ATOM      9  C   LIG    1        3.674   2.920   0.035  0.00  0.00    +0.023 A 
ATOM     10  C   LIG    1        3.576   1.646  -0.492  0.00  0.00    +0.049 A 
ATOM     11  C   LIG    1        2.355   0.992  -0.503  0.00  0.00    +0.138 A 
BRANCH  11  12
ATOM     12  O   LIG    1        2.257  -0.261  -1.021  0.00  0.00    -0.505 OA
ATOM     13  H   LIG    1        2.054  -0.282  -1.966  0.00  0.00    +0.292 HD
ENDBRANCH  11  12
ENDBRANCH   2   5
BRANCH   1  18
ATOM     14  C   LIG    1       -3.723  -1.037   0.324  0.00  0.00    +0.001 A 
ATOM     15  C   LIG    1       -4.897  -0.302   0.335  0.00  0.00    +0.004 A 
ATOM     16  C   LIG    1       -4.861   1.075   0.244  0.00  0.00    +0.046 A 
ATOM     17  C   LIG    1       -3.644   1.733   0.140  0.00  0.00    +0.129 A 
ATOM     18  C   LIG    1       -2.453   0.993   0.129  0.00  0.00    +0.078 A 
ATOM     19  C   LIG    1       -2.506  -0.400   0.217  0.00  0.00    +0.017 A 
BRANCH  17  20
ATOM     20  O   LIG    1       -3.606   3.086   0.050  0.00  0.00    -0.506 OA
ATOM     21  H   LIG    1       -3.639   3.421  -0.857  0.00  0.00    +0.292 HD
ENDBRANCH  17  20
ENDBRANCH   1  18
TORSDOF 4
