REMARK  Name = ZINC09341556
REMARK                            x       y       z     vdW  Elec       q    Type
REMARK                         _______ _______ _______ _____ _____    ______ ____
ROOT
ATOM      1  C   LIG    1       -0.733   1.315   1.982  0.00  0.00    +0.143 C 
ATOM      2  N   LIG    1       -0.805  -0.148   1.946  0.00  0.00    -0.223 N 
ATOM      3  C   LIG    1       -1.505  -0.762   0.968  0.00  0.00    +0.259 C 
ATOM      4  C   LIG    1       -1.549  -2.234   0.972  0.00  0.00    +0.097 C 
ATOM      5  C   LIG    1       -0.848  -2.910   2.010  0.00  0.00    +0.218 C 
ATOM      6  N   LIG    1       -0.196  -2.199   2.914  0.00  0.00    -0.127 NA
ATOM      7  C   LIG    1       -2.250  -2.938  -0.004  0.00  0.00    +0.028 C 
ATOM      8  O   LIG    1       -2.081  -0.118   0.110  0.00  0.00    -0.269 OA
ATOM      9  C   LIG    1       -0.169  -0.869   2.884  0.00  0.00    +0.335 C 
ATOM     10  O   LIG    1        0.457  -0.279   3.748  0.00  0.00    -0.250 OA
ENDROOT
BRANCH   7  11
ATOM     11  C   LIG    1       -2.104  -4.334  -0.106  0.00  0.00    +0.001 A 
ATOM     12  C   LIG    1       -0.916  -5.049  -0.115  0.00  0.00    +0.091 A 
ATOM     13  N   LIG    1       -1.183  -6.362  -0.226  0.00  0.00    -0.360 N 
ATOM     14  C   LIG    1       -2.547  -6.582  -0.296  0.00  0.00    +0.047 A 
ATOM     15  C   LIG    1       -3.314  -7.735  -0.414  0.00  0.00    +0.030 A 
ATOM     16  C   LIG    1       -4.689  -7.649  -0.446  0.00  0.00    +0.047 A 
ATOM     17  C   LIG    1       -5.322  -6.412  -0.372  0.00  0.00    +0.118 A 
ATOM     18  C   LIG    1       -4.573  -5.255  -0.259  0.00  0.00    +0.056 A 
ATOM     19  H   LIG    1       -0.511  -7.060  -0.253  0.00  0.00    +0.165 HD
ATOM     20  C   LIG    1       -3.185  -5.335  -0.218  0.00  0.00    +0.010 A 
BRANCH  17  21
ATOM     21  O   LIG    1       -6.679  -6.341  -0.412  0.00  0.00    -0.507 OA
ATOM     22  H   LIG    1       -7.043  -6.253  -1.304  0.00  0.00    +0.292 HD
ENDBRANCH  17  21
ENDBRANCH   7  11
BRANCH   5  23
ATOM     23  O   LIG    1       -0.848  -4.258   2.070  0.00  0.00    -0.493 OA
ATOM     24  H   LIG    1       -1.312  -4.756   1.426  0.00  0.00    +0.294 HD
ENDBRANCH   5  23
TORSDOF 3
