REMARK  Name = ZINC11974806
REMARK                            x       y       z     vdW  Elec       q    Type
REMARK                         _______ _______ _______ _____ _____    ______ ____
ROOT
ATOM      1  N   ILE A  1       -4.292   1.136   2.480  0.00  0.00    -0.272 N 
ATOM      2  H   ILE A  1       -4.705   0.836   1.655  0.00  0.00    +0.153 HD
ATOM      3  C   UNK A  0       -4.984   1.087   3.636  0.00  0.00    +0.401 C 
ATOM      4  O   UNK A  0       -4.467   1.463   4.670  0.00  0.00    -0.226 OA
ENDROOT
BRANCH   1   5
ATOM      5  CA  ILE A  1       -2.918   1.643   2.470  0.00  0.00    +0.142 C 
BRANCH   5   6
ATOM      6  CB  ILE A  1       -2.164   1.050   1.278  0.00  0.00    +0.013 C 
ATOM      7  CG2 ILE A  1       -2.144  -0.476   1.395  0.00  0.00    +0.010 C 
BRANCH   6   9
ATOM      8  CD1 ILE A  1       -0.013   1.086   0.008  0.00  0.00    +0.004 C 
ATOM      9  CG1 ILE A  1       -0.729   1.579   1.267  0.00  0.00    +0.002 C 
ENDBRANCH   6   9
ENDBRANCH   5   6
BRANCH   5  10
ATOM     10  C   ILE A  1       -2.938   3.145   2.354  0.00  0.00    +0.245 C 
ATOM     11  O   ILE A  1       -3.991   3.732   2.287  0.00  0.00    -0.299 OA
ENDBRANCH   5  10
ENDBRANCH   1   5
BRANCH   3  12
ATOM     12  O   UNK A  0       -6.247   0.621   3.646  0.00  0.00    -0.445 OA
BRANCH  12  13
ATOM     13  C   UNK A  0       -6.931   0.596   4.926  0.00  0.00    +0.107 C 
ATOM     14  C   UNK A  0       -6.157  -0.293   5.901  0.00  0.00    +0.055 C 
ATOM     15  C   UNK A  0       -8.344   0.040   4.739  0.00  0.00    +0.055 C 
ATOM     16  C   UNK A  0       -7.012   2.017   5.488  0.00  0.00    +0.055 C 
ENDBRANCH  12  13
ENDBRANCH   3  12
TORSDOF 6
