REMARK  Name = ZINC11676975
REMARK                            x       y       z     vdW  Elec       q    Type
REMARK                         _______ _______ _______ _____ _____    ______ ____
ROOT
ATOM      1  C   LIG    1       -4.216   4.349  -5.824  0.00  0.00    +0.041 C 
ENDROOT
BRANCH   1   2
ATOM      2  C   LIG    1       -5.185   5.521  -5.660  0.00  0.00    +0.007 C 
BRANCH   2   3
ATOM      3  C   LIG    1       -5.803   5.865  -7.017  0.00  0.00    +0.041 C 
BRANCH   3   4
ATOM      4  C   LIG    1       -6.773   7.038  -6.853  0.00  0.00    +0.229 C 
BRANCH   4   5
ATOM      5  O   LIG    1       -7.350   7.359  -8.120  0.00  0.00    -0.492 OA
BRANCH   5   7
ATOM      6  C   LIG    1       -8.834   8.746  -9.350  0.00  0.00    +0.036 A 
ATOM      7  C   LIG    1       -8.238   8.384  -8.150  0.00  0.00    +0.127 A 
ATOM      8  C   LIG    1       -8.552   9.063  -6.976  0.00  0.00    +0.047 A 
ATOM      9  C   LIG    1       -9.440  10.099  -6.993  0.00  0.00    +0.018 A 
ATOM     10  C   LIG    1      -10.052  10.479  -8.195  0.00  0.00    +0.059 A 
ATOM     11  C   LIG    1       -9.741   9.791  -9.382  0.00  0.00    +0.134 A 
BRANCH  10  12
ATOM     12  C   LIG    1      -11.010  11.587  -8.216  0.00  0.00    +0.164 C 
ATOM     13  C   LIG    1      -11.340  12.321  -6.942  0.00  0.00    +0.092 C 
ATOM     14  O   LIG    1      -11.537  11.914  -9.258  0.00  0.00    -0.292 OA
ENDBRANCH  10  12
BRANCH  11  15
ATOM     15  O   LIG    1      -10.327  10.149 -10.552  0.00  0.00    -0.506 OA
ATOM     16  H   LIG    1      -11.156   9.686 -10.734  0.00  0.00    +0.292 HD
ENDBRANCH  11  15
BRANCH   6  17
ATOM     17  C   LIG    1       -8.494   8.003 -10.616  0.00  0.00    +0.042 C 
BRANCH  17  19
ATOM     18  C   LIG    1       -9.109   6.070 -12.074  0.00  0.00    +0.004 C 
ATOM     19  C   LIG    1       -9.455   6.825 -10.789  0.00  0.00    +0.001 C 
ENDBRANCH  17  19
ENDBRANCH   6  17
ENDBRANCH   5   7
ENDBRANCH   4   5
ENDBRANCH   3   4
ENDBRANCH   2   3
ENDBRANCH   1   2
BRANCH   1  20
ATOM     20  C   LIG    1       -3.598   4.005  -4.467  0.00  0.00    +0.229 C 
BRANCH  20  21
ATOM     21  O   LIG    1       -2.693   2.910  -4.620  0.00  0.00    -0.491 OA
BRANCH  21  22
ATOM     22  C   LIG    1       -2.056   2.477  -3.504  0.00  0.00    +0.134 A 
ATOM     23  C   LIG    1       -2.292   3.087  -2.286  0.00  0.00    +0.092 A 
ATOM     24  C   LIG    1       -1.638   2.644  -1.140  0.00  0.00    +0.128 A 
ATOM     25  C   LIG    1       -0.741   1.585  -1.216  0.00  0.00    -0.005 A 
ATOM     26  C   LIG    1       -0.013   1.086   0.008  0.00  0.00    +0.043 C 
ATOM     27  C   LIG    1       -0.727   1.579   1.269  0.00  0.00    +0.061 C 
ATOM     28  C   LIG    1       -0.994   3.081   1.115  0.00  0.00    +0.281 C 
ATOM     29  C   LIG    1       -0.499   0.971  -2.414  0.00  0.00    +0.022 A 
ATOM     30  O   LIG    1       -1.908   3.267   0.034  0.00  0.00    -0.477 OA
ATOM     31  C   LIG    1       -1.150   1.403  -3.576  0.00  0.00    +0.059 A 
BRANCH  31  32
ATOM     32  C   LIG    1       -0.889   0.743  -4.857  0.00  0.00    +0.164 C 
ATOM     33  C   LIG    1        0.082  -0.407  -4.928  0.00  0.00    +0.092 C 
ATOM     34  O   LIG    1       -1.456   1.121  -5.861  0.00  0.00    -0.292 OA
ENDBRANCH  31  32
BRANCH  28  35
ATOM     35  C   LIG    1       -1.594   3.623   2.387  0.00  0.00    +0.346 C 
ATOM     36  O   LIG    1       -2.729   4.037   2.391  0.00  0.00    -0.247 OA
BRANCH  35  37
ATOM     37  O   LIG    1       -0.868   3.646   3.515  0.00  0.00    -0.478 OA
ATOM     38  H   LIG    1        0.013   3.325   3.513  0.00  0.00    +0.295 HD
ENDBRANCH  35  37
ENDBRANCH  28  35
ENDBRANCH  21  22
ENDBRANCH  20  21
ENDBRANCH   1  20
TORSDOF 15
