REMARK  Name = ZINC08926187
REMARK                            x       y       z     vdW  Elec       q    Type
REMARK                         _______ _______ _______ _____ _____    ______ ____
ROOT
ATOM      1  CA  LIG    1       -2.844   0.344  -0.342  0.00  0.00    +0.097 C 
ATOM      2  C   LIG    1       -3.886   1.207  -0.351  0.00  0.00    +0.036 C 
ENDROOT
BRANCH   2   3
ATOM      3  C   LIG    1       -3.738   2.533  -0.971  0.00  0.00    -0.023 A 
ATOM      4  C   LIG    1       -4.454   3.626  -0.471  0.00  0.00    +0.009 A 
ATOM      5  C   LIG    1       -4.307   4.866  -1.055  0.00  0.00    +0.016 A 
ATOM      6  C   LIG    1       -3.461   5.029  -2.139  0.00  0.00    +0.018 A 
ATOM      7 BR   LIG    1       -3.271   6.733  -2.936  0.00  0.00    -0.050 Br
ATOM      8  C   LIG    1       -2.752   3.950  -2.642  0.00  0.00    +0.016 A 
ATOM      9  C   LIG    1       -2.885   2.705  -2.066  0.00  0.00    +0.009 A 
ENDBRANCH   2   3
BRANCH   1  12
ATOM     10  N   LIG    1       -0.802   1.658  -0.094  0.00  0.00    -0.297 N 
ATOM     11  H   LIG    1       -1.180   2.053   0.707  0.00  0.00    +0.150 HD
ATOM     12  C   LIG    1       -1.524   0.781  -0.819  0.00  0.00    +0.259 C 
ATOM     13  O   LIG    1       -1.083   0.351  -1.868  0.00  0.00    -0.269 OA
BRANCH  10  15
ATOM     14  CB  LIG    1        1.553   1.012   0.050  0.00  0.00    +0.040 C 
ATOM     15  CA  LIG    1        0.553   2.020  -0.519  0.00  0.00    +0.179 C 
BRANCH  15  16
ATOM     16  C   LIG    1        0.886   3.400  -0.013  0.00  0.00    +0.325 C 
ATOM     17  O   LIG    1        0.283   3.861   0.927  0.00  0.00    -0.249 OA
BRANCH  16  18
ATOM     18  OXT LIG    1        1.854   4.117  -0.607  0.00  0.00    -0.479 OA
ATOM     19  HXT LIG    1        2.321   3.759  -1.335  0.00  0.00    +0.295 HD
ENDBRANCH  16  18
ENDBRANCH  15  16
ENDBRANCH  10  15
ENDBRANCH   1  12
BRANCH   1  20
ATOM     20  N   LIG    1       -3.022  -0.963   0.121  0.00  0.00    -0.275 N 
ATOM     21  H   LIG    1       -3.910  -1.279   0.352  0.00  0.00    +0.155 HD
ATOM     22  C   LIG    1       -1.961  -1.784   0.247  0.00  0.00    +0.284 C 
ATOM     23  O   LIG    1       -0.837  -1.361   0.046  0.00  0.00    -0.266 OA
BRANCH  22  24
ATOM     24  C   LIG    1       -2.159  -3.185   0.626  0.00  0.00    +0.191 A 
ATOM     25  C   LIG    1       -1.177  -4.122   0.782  0.00  0.00    +0.056 A 
ATOM     26  C   LIG    1       -1.813  -5.317   1.148  0.00  0.00    +0.058 A 
ATOM     27  C   LIG    1       -3.142  -5.064   1.191  0.00  0.00    +0.171 A 
ATOM     28 BR   LIG    1       -4.488  -6.319   1.625  0.00  0.00    -0.008 Br
ATOM     29  O   LIG    1       -3.346  -3.779   0.875  0.00  0.00    -0.444 OA
ENDBRANCH  22  24
ENDBRANCH   1  20
TORSDOF 7
