REMARK  Name = ZINC12428297
REMARK                            x       y       z     vdW  Elec       q    Type
REMARK                         _______ _______ _______ _____ _____    ______ ____
ROOT
ATOM      1  C   LIG    1       -0.017   1.386   0.010  0.00  0.00    +0.048 A 
ATOM      2  C   LIG    1        1.168   2.092   0.002  0.00  0.00    +0.044 A 
ATOM      3 CL   LIG    1        1.137   3.828   0.012  0.00  0.00    -0.083 Cl
ATOM      4  C   LIG    1        2.386   1.425  -0.013  0.00  0.00    +0.042 A 
ATOM      5  C   LIG    1        2.428   0.050  -0.022  0.00  0.00    +0.070 A 
ATOM      6 CL   LIG    1        3.955  -0.774  -0.043  0.00  0.00    -0.081 Cl
ATOM      7  C   LIG    1        1.232  -0.686  -0.014  0.00  0.00    +0.109 A 
ATOM      8  N   LIG    1        1.270  -2.034  -0.022  0.00  0.00    -0.205 NA
ATOM      9  C   LIG    1        0.171  -2.739  -0.015  0.00  0.00    +0.280 A 
ATOM     10  C   LIG    1       -1.139  -2.065   0.001  0.00  0.00    +0.311 A 
ATOM     11  O   LIG    1       -2.168  -2.716   0.007  0.00  0.00    -0.262 OA
ATOM     12  N   LIG    1       -1.184  -0.715   0.009  0.00  0.00    -0.316 N 
ATOM     13  H   LIG    1       -2.036  -0.251   0.020  0.00  0.00    +0.169 HD
ATOM     14  C   LIG    1        0.002  -0.004   0.002  0.00  0.00    +0.071 A 
ENDROOT
BRANCH   9  15
ATOM     15  O   LIG    1        0.235  -4.093  -0.024  0.00  0.00    -0.489 OA
ATOM     16  H   LIG    1       -0.554  -4.599  -0.019  0.00  0.00    +0.294 HD
ENDBRANCH   9  15
TORSDOF 1
