REMARK  Name = ZINC08699656
REMARK                            x       y       z     vdW  Elec       q    Type
REMARK                         _______ _______ _______ _____ _____    ______ ____
ROOT
ATOM      1  C   LIG    1       -1.220   1.743   0.017  0.00  0.00    +0.003 A 
ATOM      2  C   LIG    1       -0.013   1.076   0.008  0.00  0.00    +0.004 A 
ATOM      3  C   LIG    1        1.184   1.780   0.000  0.00  0.00    -0.043 A 
ATOM      4  C   LIG    1        1.165   3.157   0.002  0.00  0.00    -0.009 A 
ATOM      5  C   LIG    1        2.423   3.985  -0.023  0.00  0.00    +0.037 C 
ATOM      6  C   LIG    1        3.628   3.144   0.397  0.00  0.00    -0.011 C 
ATOM      7  C   LIG    1        3.638   1.861  -0.442  0.00  0.00    -0.071 C 
ATOM      8  C   LIG    1       -0.052   3.829   0.020  0.00  0.00    +0.127 A 
ATOM      9  F   LIG    1       -0.073   5.180   0.027  0.00  0.00    -0.205 F 
ATOM     10  C   LIG    1        2.465   0.987  -0.001  0.00  0.00    +0.019 C 
ATOM     11  C   LIG    1       -1.241   3.125   0.031  0.00  0.00    +0.038 A 
ENDROOT
BRANCH   7  12
ATOM     12  N   LIG    1        4.897   1.135  -0.203  0.00  0.00    +0.380 N 
ATOM     13  H   LIG    1        4.954   0.874   0.788  0.00  0.00    -0.090 HD
ATOM     14  H   LIG    1        5.692   1.729  -0.437  0.00  0.00    -0.090 HD
ATOM     15  H   LIG    1        4.927   0.290  -0.772  0.00  0.00    -0.090 HD
ENDBRANCH   7  12
TORSDOF 1
