REMARK  Name = ZINC08716754
REMARK                            x       y       z     vdW  Elec       q    Type
REMARK                         _______ _______ _______ _____ _____    ______ ____
ROOT
ATOM      1  C   LIG    1       -5.965  -5.436  -0.285  0.00  0.00    +0.044 C 
ATOM      2  C   LIG    1       -6.758  -4.820  -1.478  0.00  0.00    +0.126 C 
ATOM      3  C   LIG    1       -6.389  -5.823  -2.627  0.00  0.00    +0.038 C 
ATOM      4  C   LIG    1       -6.867  -7.098  -1.839  0.00  0.00    +0.021 C 
ATOM      5  C   LIG    1       -8.281  -6.595  -1.408  0.00  0.00    +0.164 C 
ATOM      6  O   LIG    1       -8.147  -5.157  -1.213  0.00  0.00    -0.376 OA
ATOM      7  C   LIG    1       -6.015  -6.962  -0.534  0.00  0.00    +0.007 C 
ENDROOT
BRANCH   1   9
ATOM      8  C   LIG    1       -4.051  -4.336   0.758  0.00  0.00    -0.000 C 
ATOM      9  C   LIG    1       -4.539  -4.948  -0.293  0.00  0.00    -0.022 C 
BRANCH   8  10
ATOM     10  C   LIG    1       -2.625  -3.848   0.750  0.00  0.00    +0.137 C 
BRANCH  10  11
ATOM     11  O   LIG    1       -2.055  -4.064  -0.542  0.00  0.00    -0.388 OA
ATOM     12  H   LIG    1       -2.517  -3.606  -1.257  0.00  0.00    +0.210 HD
ENDBRANCH  10  11
BRANCH  10  13
ATOM     13  C   LIG    1       -2.596  -2.354   1.078  0.00  0.00    +0.035 C 
BRANCH  13  14
ATOM     14  C   LIG    1       -1.144  -1.885   1.193  0.00  0.00    +0.003 C 
BRANCH  14  15
ATOM     15  C   LIG    1       -1.115  -0.391   1.521  0.00  0.00    -0.000 C 
BRANCH  15  17
ATOM     16  C   LIG    1        0.366   1.571   1.964  0.00  0.00    +0.004 C 
ATOM     17  C   LIG    1        0.337   0.077   1.637  0.00  0.00    -0.003 C 
ENDBRANCH  15  17
ENDBRANCH  14  15
ENDBRANCH  13  14
ENDBRANCH  10  13
ENDBRANCH   8  10
ENDBRANCH   1   9
BRANCH   7  18
ATOM     18  C   LIG    1       -6.701  -7.674   0.634  0.00  0.00    +0.031 C 
BRANCH  18  19
ATOM     19  C   LIG    1       -5.843  -7.556   1.867  0.00  0.00    -0.031 C 
ATOM     20  C   LIG    1       -6.349  -7.065   2.972  0.00  0.00    -0.031 C 
BRANCH  20  21
ATOM     21  C   LIG    1       -7.828  -6.791   3.067  0.00  0.00    +0.027 C 
BRANCH  21  22
ATOM     22  C   LIG    1       -8.395  -7.480   4.311  0.00  0.00    +0.015 C 
BRANCH  22  23
ATOM     23  C   LIG    1       -9.896  -7.202   4.407  0.00  0.00    +0.121 C 
BRANCH  23  24
ATOM     24  C   LIG    1      -10.454  -7.880   5.632  0.00  0.00    +0.305 C 
ATOM     25  O   LIG    1       -9.719  -8.526   6.360  0.00  0.00    -0.251 OA
BRANCH  24  26
ATOM     26  O   LIG    1      -11.641  -7.783   5.895  0.00  0.00    -0.481 OA
ATOM     27  H   LIG    1      -12.206  -7.287   5.336  0.00  0.00    +0.295 HD
ENDBRANCH  24  26
ENDBRANCH  23  24
ENDBRANCH  22  23
ENDBRANCH  21  22
ENDBRANCH  20  21
ENDBRANCH  18  19
ENDBRANCH   7  18
TORSDOF 14
