REMARK  Name = ZINC08649468
REMARK                            x       y       z     vdW  Elec       q    Type
REMARK                         _______ _______ _______ _____ _____    ______ ____
ROOT
ATOM      1  C   LIG    1        2.439   0.120  -0.848  0.00  0.00    +0.001 A 
ATOM      2  C   LIG    1        1.255  -0.556  -1.101  0.00  0.00    +0.001 A 
ATOM      3  C   LIG    1        0.048   0.109  -1.081  0.00  0.00    +0.014 A 
ATOM      4  C   LIG    1        0.018   1.475  -0.803  0.00  0.00    +0.047 A 
ATOM      5  C   LIG    1        1.222   2.160  -0.545  0.00  0.00    -0.004 A 
ATOM      6  C   LIG    1        1.159   3.605  -0.253  0.00  0.00    +0.008 A 
ATOM      7  C   LIG    1        2.321   4.330   0.009  0.00  0.00    +0.011 A 
ATOM      8  C   LIG    1        2.240   5.679   0.280  0.00  0.00    +0.003 A 
ATOM      9  C   LIG    1        1.008   6.316   0.292  0.00  0.00    +0.035 A 
ATOM     10  C   LIG    1       -0.148   5.610   0.035  0.00  0.00    +0.145 A 
ATOM     11  C   LIG    1       -0.088   4.247  -0.240  0.00  0.00    +0.080 A 
ATOM     12  N   LIG    1       -1.251   3.542  -0.499  0.00  0.00    -0.320 N 
ATOM     13  H   LIG    1       -2.222   4.060  -0.491  0.00  0.00    +0.169 HD
ATOM     14  C   LIG    1       -1.248   2.223  -0.765  0.00  0.00    +0.257 A 
ATOM     15  O   LIG    1       -2.297   1.647  -0.981  0.00  0.00    -0.267 OA
ATOM     16  C   LIG    1        2.430   1.472  -0.570  0.00  0.00    +0.009 A 
ENDROOT
BRANCH  10  17
ATOM     17  N   LIG    1       -1.456   6.303   0.052  0.00  0.00    +0.008 N 
ATOM     18  O   LIG    1       -1.551   7.436  -0.386  0.00  0.00    -0.130 OA
BRANCH  17  19
ATOM     19  O   LIG    1       -2.437   5.741   0.504  0.00  0.00    -0.396 OA
ATOM     20  H   LIG    1       -2.364   4.870   0.842  0.00  0.00    +0.329 HD
ENDBRANCH  17  19
ENDBRANCH  10  17
TORSDOF 2
