REMARK  Name = ZINC08659933
REMARK                            x       y       z     vdW  Elec       q    Type
REMARK                         _______ _______ _______ _____ _____    ______ ____
ROOT
ATOM      1  C   LIG    1       -6.368   1.967  -0.427  0.00  0.00    +0.224 C 
ATOM      2  O   LIG    1       -6.416   1.657   0.976  0.00  0.00    -0.339 OA
ATOM      3  C   LIG    1       -5.034   1.685   1.408  0.00  0.00    +0.194 C 
ATOM      4  C   LIG    1       -4.306   1.101   0.172  0.00  0.00    +0.134 C 
ATOM      5  O   LIG    1       -5.073   1.618  -0.934  0.00  0.00    -0.337 OA
ENDROOT
BRANCH   4   6
ATOM      6  C   LIG    1       -2.861   1.601   0.109  0.00  0.00    -0.040 C 
ATOM      7  N   LIG    1       -2.120   1.081   1.274  0.00  0.00    +0.383 N 
ATOM      8  H   LIG    1       -2.585   1.388   2.136  0.00  0.00    -0.085 HD
ATOM      9  H   LIG    1       -2.110   0.054   1.237  0.00  0.00    -0.085 HD
ATOM     10  C   LIG    1       -0.731   1.580   1.266  0.00  0.00    -0.082 C 
ATOM     11  C   LIG    1       -0.013   1.086   0.008  0.00  0.00    -0.019 C 
ATOM     12  C   LIG    1       -0.755   1.594  -1.231  0.00  0.00    -0.003 C 
ATOM     13  C   LIG    1       -2.206   1.108  -1.183  0.00  0.00    -0.013 C 
ENDBRANCH   4   6
BRANCH   1  17
ATOM     14  C   LIG    1       -7.054   6.145  -0.997  0.00  0.00    +0.000 A 
ATOM     15  C   LIG    1       -6.260   5.447  -1.888  0.00  0.00    +0.000 A 
ATOM     16  C   LIG    1       -6.037   4.095  -1.703  0.00  0.00    +0.009 A 
ATOM     17  C   LIG    1       -6.610   3.441  -0.628  0.00  0.00    +0.016 A 
ATOM     18  C   LIG    1       -7.408   4.138   0.259  0.00  0.00    +0.009 A 
ATOM     19  C   LIG    1       -7.626   5.491   0.078  0.00  0.00    +0.000 A 
ENDBRANCH   1  17
BRANCH   1  20
ATOM     20  C   LIG    1       -7.426   1.180  -1.157  0.00  0.00    +0.016 A 
ATOM     21  C   LIG    1       -7.227   0.810  -2.474  0.00  0.00    +0.009 A 
ATOM     22  C   LIG    1       -8.195   0.083  -3.141  0.00  0.00    +0.000 A 
ATOM     23  C   LIG    1       -9.367  -0.264  -2.495  0.00  0.00    +0.000 A 
ATOM     24  C   LIG    1       -9.568   0.110  -1.179  0.00  0.00    +0.000 A 
ATOM     25  C   LIG    1       -8.597   0.832  -0.510  0.00  0.00    +0.009 A 
ENDBRANCH   1  20
TORSDOF 3
