REMARK  Name = ZINC12545036
REMARK                            x       y       z     vdW  Elec       q    Type
REMARK                         _______ _______ _______ _____ _____    ______ ____
ROOT
ATOM      1  N   LIG    1        1.107   6.013   0.020  0.00  0.00    -0.266 N 
ATOM      2  H   LIG    1        1.949   5.536   0.084  0.00  0.00    +0.157 HD
ATOM      3  C   LIG    1       -0.056   5.333   0.027  0.00  0.00    +0.249 C 
ATOM      4  O   LIG    1       -1.112   5.935   0.040  0.00  0.00    -0.270 OA
ENDROOT
BRANCH   1  10
ATOM      5  C   LIG    1       -1.437  10.068  -0.123  0.00  0.00    +0.065 C 
ATOM      6  C   LIG    1       -0.101   9.372  -0.150  0.00  0.00    +0.040 A 
ATOM      7  C   LIG    1        1.055  10.118  -0.270  0.00  0.00    +0.023 A 
ATOM      8  C   LIG    1        2.283   9.471  -0.295  0.00  0.00    +0.005 A 
ATOM      9  C   LIG    1        2.304   8.091  -0.192  0.00  0.00    +0.044 A 
ATOM     10  C   LIG    1        1.101   7.403  -0.079  0.00  0.00    +0.125 A 
ATOM     11  N   LIG    1       -0.050   8.057  -0.059  0.00  0.00    -0.237 NA
ENDBRANCH   1  10
BRANCH   3  12
ATOM     12  C   LIG    1       -0.048   3.855   0.018  0.00  0.00    +0.038 A 
ATOM     13  C   LIG    1        1.165   3.162   0.003  0.00  0.00    +0.013 A 
ATOM     14  C   LIG    1        1.175   1.781  -0.006  0.00  0.00    +0.002 A 
ATOM     15  C   LIG    1       -0.012   1.076   0.000  0.00  0.00    +0.019 A 
ATOM     16  C   LIG    1       -1.232   1.756   0.010  0.00  0.00    +0.052 A 
ATOM     17  C   LIG    1       -1.249   3.150   0.025  0.00  0.00    +0.032 A 
BRANCH  16  18
ATOM     18  C   LIG    1       -2.463   1.024   0.011  0.00  0.00    +0.099 C 
ATOM     19  N   LIG    1       -3.439   0.442   0.011  0.00  0.00    -0.191 NA
ENDBRANCH  16  18
ENDBRANCH   3  12
TORSDOF 3
