REMARK  Name = ZINC09435020
REMARK                            x       y       z     vdW  Elec       q    Type
REMARK                         _______ _______ _______ _____ _____    ______ ____
ROOT
ATOM      1  C   LIG    1       -0.542  -4.716   3.848  0.00  0.00    +0.166 C 
ENDROOT
BRANCH   1   2
ATOM      2  C   LIG    1       -2.026  -4.470   3.932  0.00  0.00    -0.007 A 
ATOM      3  C   LIG    1       -2.523  -3.187   3.801  0.00  0.00    +0.007 A 
ATOM      4  C   LIG    1       -3.884  -2.961   3.878  0.00  0.00    +0.000 A 
ATOM      5  C   LIG    1       -4.749  -4.019   4.087  0.00  0.00    +0.000 A 
ATOM      6  C   LIG    1       -4.253  -5.303   4.218  0.00  0.00    +0.000 A 
ATOM      7  C   LIG    1       -2.892  -5.529   4.136  0.00  0.00    +0.007 A 
ENDBRANCH   1   2
BRANCH   1   8
ATOM      8  C   LIG    1        0.138  -4.103   5.045  0.00  0.00    -0.007 A 
ATOM      9  C   LIG    1        0.524  -2.776   5.016  0.00  0.00    +0.007 A 
ATOM     10  C   LIG    1        1.148  -2.214   6.114  0.00  0.00    +0.000 A 
ATOM     11  C   LIG    1        1.384  -2.978   7.242  0.00  0.00    +0.000 A 
ATOM     12  C   LIG    1        0.997  -4.305   7.271  0.00  0.00    +0.000 A 
ATOM     13  C   LIG    1        0.370  -4.866   6.174  0.00  0.00    +0.007 A 
ENDBRANCH   1   8
BRANCH   1  14
ATOM     14  O   LIG    1       -0.292  -6.123   3.827  0.00  0.00    -0.363 OA
ATOM     15  C   LIG    1        1.094  -6.468   3.843  0.00  0.00    +0.195 C 
ENDBRANCH   1  14
BRANCH   1  16
ATOM     16  C   LIG    1        0.008  -4.082   2.569  0.00  0.00    +0.325 C 
BRANCH  16  17
ATOM     17  C   LIG    1       -0.596  -4.765   1.369  0.00  0.00    +0.350 C 
ATOM     18  O   LIG    1        0.115  -5.394   0.604  0.00  0.00    -0.247 OA
BRANCH  17  19
ATOM     19  O   LIG    1       -1.795  -4.689   1.165  0.00  0.00    -0.478 OA
ATOM     20  H   LIG    1       -2.341  -4.206   1.753  0.00  0.00    +0.295 HD
ENDBRANCH  17  19
ENDBRANCH  16  17
BRANCH  16  21
ATOM     21  O   LIG    1        1.429  -4.231   2.536  0.00  0.00    -0.444 OA
BRANCH  21  27
ATOM     22  C   LIG    1        5.672  -2.559   1.155  0.00  0.00    +0.066 C 
ATOM     23  C   LIG    1        4.171  -2.444   1.214  0.00  0.00    +0.045 A 
ATOM     24  C   LIG    1        3.526  -1.371   0.619  0.00  0.00    +0.043 A 
ATOM     25  C   LIG    1        2.144  -1.304   0.697  0.00  0.00    +0.118 A 
ATOM     26  N   LIG    1        1.487  -2.260   1.334  0.00  0.00    -0.203 NA
ATOM     27  C   LIG    1        2.134  -3.270   1.892  0.00  0.00    +0.319 A 
ATOM     28  N   LIG    1        3.452  -3.368   1.831  0.00  0.00    -0.200 NA
ENDBRANCH  21  27
ENDBRANCH  16  21
ENDBRANCH   1  16
TORSDOF 8
