REMARK  Name = ZINC12355992
REMARK                            x       y       z     vdW  Elec       q    Type
REMARK                         _______ _______ _______ _____ _____    ______ ____
ROOT
ATOM      1  N   LIG    1       -0.132   7.886  -2.791  0.00  0.00    +0.379 N 
ATOM      2  H   LIG    1        0.706   7.551  -3.280  0.00  0.00    -0.086 HD
ATOM      3  H   LIG    1       -0.970   7.528  -3.264  0.00  0.00    -0.086 HD
ENDROOT
BRANCH   1   4
ATOM      4  C   LIG    1       -0.112   7.395  -1.400  0.00  0.00    -0.082 C 
BRANCH   4   5
ATOM      5  C   LIG    1       -0.091   5.865  -1.409  0.00  0.00    -0.014 C 
BRANCH   5   6
ATOM      6  C   LIG    1       -0.070   5.347   0.031  0.00  0.00    +0.033 C 
BRANCH   6  10
ATOM      7  C   LIG    1       -0.013   1.076   0.008  0.00  0.00    +0.000 A 
ATOM      8  C   LIG    1       -1.219   1.751   0.017  0.00  0.00    +0.000 A 
ATOM      9  C   LIG    1       -1.238   3.133   0.030  0.00  0.00    +0.003 A 
ATOM     10  C   LIG    1       -0.050   3.840   0.023  0.00  0.00    -0.047 A 
ATOM     11  C   LIG    1        1.156   3.165   0.008  0.00  0.00    +0.003 A 
ATOM     12  C   LIG    1        1.175   1.783   0.000  0.00  0.00    +0.000 A 
ENDBRANCH   6  10
ENDBRANCH   5   6
ENDBRANCH   4   5
ENDBRANCH   1   4
BRANCH   1  13
ATOM     13  C   LIG    1       -0.152   9.360  -2.813  0.00  0.00    -0.079 C 
BRANCH  13  14
ATOM     14  C   LIG    1       -0.172   9.839  -4.266  0.00  0.00    +0.022 C 
BRANCH  14  15
ATOM     15  C   LIG    1       -0.194  11.369  -4.298  0.00  0.00    +0.227 C 
BRANCH  15  16
ATOM     16  O   LIG    1       -0.213  11.816  -5.655  0.00  0.00    -0.492 OA
BRANCH  16  17
ATOM     17  C   LIG    1       -0.233  13.159  -5.862  0.00  0.00    +0.120 A 
ATOM     18  C   LIG    1       -0.240  14.029  -4.781  0.00  0.00    +0.045 A 
ATOM     19  C   LIG    1       -0.255  15.394  -4.993  0.00  0.00    +0.004 A 
ATOM     20  C   LIG    1       -0.274  15.893  -6.282  0.00  0.00    +0.000 A 
ATOM     21  C   LIG    1       -0.273  15.029  -7.362  0.00  0.00    +0.004 A 
ATOM     22  C   LIG    1       -0.252  13.664  -7.154  0.00  0.00    +0.045 A 
ENDBRANCH  16  17
ENDBRANCH  15  16
ENDBRANCH  14  15
ENDBRANCH  13  14
ENDBRANCH   1  13
TORSDOF 9
