REMARK  Name = ZINC12405693
REMARK                            x       y       z     vdW  Elec       q    Type
REMARK                         _______ _______ _______ _____ _____    ______ ____
ROOT
ATOM      1  N   LIG    1       -2.787  -2.571   0.015  0.00  0.00    -0.276 N 
ATOM      2  C   LIG    1       -3.426  -2.811   1.220  0.00  0.00    +0.168 A 
ATOM      3  C   LIG    1       -4.730  -3.292   1.204  0.00  0.00    +0.149 A 
ATOM      4  N   LIG    1       -5.105  -3.435   2.524  0.00  0.00    -0.339 N 
ATOM      5  C   LIG    1       -4.055  -3.051   3.276  0.00  0.00    +0.199 A 
ATOM      6  H   LIG    1       -5.962  -3.753   2.849  0.00  0.00    +0.167 HD
ATOM      7  C   LIG    1       -5.363  -3.521  -0.037  0.00  0.00    +0.282 A 
ATOM      8  N   LIG    1       -4.688  -3.267  -1.178  0.00  0.00    -0.259 N 
ATOM      9  O   LIG    1       -6.505  -3.941  -0.078  0.00  0.00    -0.265 OA
ATOM     10  N   LIG    1       -3.068  -2.684   2.500  0.00  0.00    -0.218 NA
ATOM     11  C   LIG    1       -3.429  -2.797  -1.147  0.00  0.00    +0.334 A 
ATOM     12  O   LIG    1       -2.853  -2.575  -2.195  0.00  0.00    -0.246 OA
ENDROOT
BRANCH   1  13
ATOM     13  C   LIG    1       -1.413  -2.063   0.004  0.00  0.00    +0.128 C 
BRANCH  13  14
ATOM     14  C   LIG    1       -1.433  -0.534   0.013  0.00  0.00    +0.021 C 
BRANCH  14  16
ATOM     15  C   LIG    1       -0.019   1.526   0.010  0.00  0.00    +0.004 C 
ATOM     16  C   LIG    1        0.002  -0.004   0.002  0.00  0.00    -0.002 C 
ENDBRANCH  14  16
ENDBRANCH  13  14
ENDBRANCH   1  13
BRANCH   8  17
ATOM     17  C   LIG    1       -5.339  -3.502  -2.469  0.00  0.00    +0.130 C 
BRANCH  17  18
ATOM     18  C   LIG    1       -6.064  -2.231  -2.913  0.00  0.00    +0.022 C 
BRANCH  18  19
ATOM     19  C   LIG    1       -6.744  -2.477  -4.261  0.00  0.00    -0.002 C 
ATOM     20  C   LIG    1       -7.470  -1.205  -4.706  0.00  0.00    +0.004 C 
ENDBRANCH  18  19
ENDBRANCH  17  18
ENDBRANCH   8  17
TORSDOF 6
