REMARK  Name = ZINC09597615
REMARK                            x       y       z     vdW  Elec       q    Type
REMARK                         _______ _______ _______ _____ _____    ______ ____
ROOT
ATOM      1  C   LIG    1       -7.006   1.544  -0.953  0.00  0.00    +0.124 C 
ATOM      2  N   LIG    1       -5.927   0.729  -1.058  0.00  0.00    -0.298 NA
ATOM      3  H   LIG    1       -6.016  -0.270  -1.278  0.00  0.00    +0.124 HD
ATOM      4  C   LIG    1       -4.704   1.329  -0.851  0.00  0.00    +0.059 C 
ATOM      5  C   LIG    1       -3.551   0.531  -0.949  0.00  0.00    +0.021 C 
ATOM      6  C   LIG    1       -2.323   1.083  -0.756  0.00  0.00    +0.024 C 
ATOM      7  C   LIG    1       -2.185   2.441  -0.449  0.00  0.00    +0.073 C 
ATOM      8  C   LIG    1       -3.294   3.252  -0.346  0.00  0.00    +0.027 C 
ATOM      9  C   LIG    1       -4.570   2.706  -0.547  0.00  0.00    +0.011 C 
ATOM     10  C   LIG    1       -5.729   3.503  -0.450  0.00  0.00    -0.007 C 
ATOM     11  C   LIG    1       -5.632   4.973  -0.128  0.00  0.00    +0.008 C 
ATOM     12  C   LIG    1       -6.939   2.912  -0.655  0.00  0.00    +0.038 C 
ENDROOT
BRANCH   1  17
ATOM     13  N   LIG    1      -10.353  -0.873  -0.578  0.00  0.00    +0.381 N 
ATOM     14  H   LIG    1       -9.920  -1.325   0.236  0.00  0.00    -0.082 HD
ATOM     15  C   LIG    1      -10.506   0.571  -0.301  0.00  0.00    -0.063 C 
ATOM     16  C   LIG    1       -9.127   1.165  -0.003  0.00  0.00    +0.067 C 
ATOM     17  N   LIG    1       -8.245   0.955  -1.159  0.00  0.00    -0.291 NA
ATOM     18  C   LIG    1       -8.105  -0.477  -1.458  0.00  0.00    +0.067 C 
ATOM     19  C   LIG    1       -9.484  -1.071  -1.757  0.00  0.00    -0.063 C 
BRANCH  13  21
ATOM     20  C   LIG    1      -12.475  -1.465   0.487  0.00  0.00    -0.017 C 
ATOM     21  C   LIG    1      -11.678  -1.484  -0.818  0.00  0.00    -0.082 C 
ENDBRANCH  13  21
ENDBRANCH   1  17
BRANCH   7  22
ATOM     22  N   LIG    1       -0.909   2.981  -0.250  0.00  0.00    -0.312 N 
ATOM     23  H   LIG    1       -0.717   3.889  -0.534  0.00  0.00    +0.149 HD
ATOM     24  C   LIG    1        0.053   2.241   0.336  0.00  0.00    +0.214 C 
ATOM     25  O   LIG    1       -0.212   1.143   0.778  0.00  0.00    -0.276 OA
BRANCH  24  26
ATOM     26  C   LIG    1        1.458   2.774   0.436  0.00  0.00    +0.105 C 
BRANCH  26  27
ATOM     27  C   LIG    1        2.347   1.742   1.132  0.00  0.00    +0.105 C 
BRANCH  27  28
ATOM     28  C   LIG    1        3.753   2.275   1.232  0.00  0.00    +0.218 C 
ATOM     29  N   LIG    1        4.716   1.532   1.813  0.00  0.00    -0.285 N 
ATOM     30  H   LIG    1        4.524   0.625   2.097  0.00  0.00    +0.155 HD
ATOM     31  O   LIG    1        4.018   3.373   0.790  0.00  0.00    -0.275 OA
BRANCH  29  32
ATOM     32  C   LIG    1        5.994   2.070   2.007  0.00  0.00    +0.035 A 
ATOM     33  C   LIG    1        7.114   1.255   1.905  0.00  0.00    +0.026 A 
ATOM     34  C   LIG    1        8.375   1.788   2.091  0.00  0.00    +0.041 A 
ATOM     35  C   LIG    1        8.522   3.132   2.390  0.00  0.00    +0.142 A 
ATOM     36  F   LIG    1        9.756   3.651   2.576  0.00  0.00    -0.204 F 
ATOM     37  C   LIG    1        7.406   3.946   2.497  0.00  0.00    +0.078 A 
ATOM     38 CL   LIG    1        7.594   5.631   2.872  0.00  0.00    -0.081 Cl
ATOM     39  C   LIG    1        6.143   3.418   2.306  0.00  0.00    +0.046 A 
ENDBRANCH  29  32
ENDBRANCH  27  28
ENDBRANCH  26  27
ENDBRANCH  24  26
ENDBRANCH   7  22
TORSDOF 7
