REMARK  Name = ZINC09422342
REMARK                            x       y       z     vdW  Elec       q    Type
REMARK                         _______ _______ _______ _____ _____    ______ ____
ROOT
ATOM      1  C   LIG    1        2.226   1.165  -0.650  0.00  0.00    +0.070 A 
ATOM      2  C   LIG    1        2.167  -0.228  -0.628  0.00  0.00    +0.056 A 
ATOM      3  C   LIG    1        0.937  -0.867  -0.644  0.00  0.00    +0.025 A 
ATOM      4  C   LIG    1       -0.228  -0.123  -0.681  0.00  0.00    +0.003 A 
ATOM      5  C   LIG    1       -0.172   1.258  -0.704  0.00  0.00    +0.022 A 
ATOM      6  C   LIG    1        1.052   1.904  -0.689  0.00  0.00    +0.064 A 
ATOM      7 CL   LIG    1        1.118   3.638  -0.718  0.00  0.00    -0.082 Cl
ENDROOT
BRANCH   1  13
ATOM      8  C   LIG    1        6.007   5.897  -1.859  0.00  0.00    +0.109 C 
ATOM      9  C   LIG    1        5.829   5.134  -0.571  0.00  0.00    +0.213 C 
ATOM     10  N   LIG    1        5.338   3.879  -0.593  0.00  0.00    -0.299 N 
ATOM     11  C   LIG    1        5.068   3.197  -1.868  0.00  0.00    +0.126 C 
ATOM     12  C   LIG    1        3.638   2.648  -1.833  0.00  0.00    +0.124 C 
ATOM     13  N   LIG    1        3.465   1.816  -0.635  0.00  0.00    -0.324 N 
ATOM     14  C   LIG    1        3.628   2.608   0.592  0.00  0.00    +0.124 C 
ATOM     15  C   LIG    1        5.058   3.156   0.656  0.00  0.00    +0.126 C 
ATOM     16  O   LIG    1        6.126   5.650   0.486  0.00  0.00    -0.276 OA
ENDBRANCH   1  13
BRANCH   2  17
ATOM     17  N   LIG    1        3.349  -0.980  -0.590  0.00  0.00    -0.277 N 
ATOM     18  H   LIG    1        4.139  -0.666  -1.057  0.00  0.00    +0.155 HD
ATOM     19  C   LIG    1        3.387  -2.140   0.094  0.00  0.00    +0.284 C 
ATOM     20  O   LIG    1        2.375  -2.576   0.611  0.00  0.00    -0.266 OA
BRANCH  19  21
ATOM     21  C   LIG    1        4.648  -2.877   0.216  0.00  0.00    +0.191 A 
ATOM     22  C   LIG    1        4.827  -4.056   0.883  0.00  0.00    +0.056 A 
ATOM     23  C   LIG    1        6.180  -4.399   0.741  0.00  0.00    +0.058 A 
ATOM     24  C   LIG    1        6.763  -3.422   0.009  0.00  0.00    +0.171 A 
ATOM     25 BR   LIG    1        8.586  -3.359  -0.489  0.00  0.00    -0.008 Br
ATOM     26  O   LIG    1        5.836  -2.507  -0.305  0.00  0.00    -0.444 OA
ENDBRANCH  19  21
ENDBRANCH   2  17
TORSDOF 3
