REMARK  Name = ZINC12496349
REMARK                            x       y       z     vdW  Elec       q    Type
REMARK                         _______ _______ _______ _____ _____    ______ ____
ROOT
ATOM      1  C   LIG    1       -0.013   1.086   0.008  0.00  0.00    +0.177 C 
ATOM      2  C   LIG    1       -0.729   1.579   1.267  0.00  0.00    +0.177 C 
ATOM      3  C   LIG    1       -0.750   3.109   1.275  0.00  0.00    +0.193 C 
ATOM      4  C   LIG    1        0.686   3.639   1.264  0.00  0.00    +0.194 C 
ATOM      5  C   LIG    1        1.402   3.145   0.006  0.00  0.00    +0.194 C 
ATOM      6  C   LIG    1        1.423   1.615  -0.003  0.00  0.00    +0.193 C 
ENDROOT
BRANCH   2   7
ATOM      7  O   LIG    1       -2.070   1.085   1.277  0.00  0.00    -0.386 OA
ATOM      8  H   LIG    1       -2.133   0.120   1.272  0.00  0.00    +0.210 HD
ENDBRANCH   2   7
BRANCH   1   9
ATOM      9  O   LIG    1       -0.704   1.559  -1.150  0.00  0.00    -0.386 OA
ATOM     10  H   LIG    1       -1.622   1.262  -1.209  0.00  0.00    +0.210 HD
ENDBRANCH   1   9
BRANCH   4  11
ATOM     11  O   LIG    1        0.666   5.067   1.272  0.00  0.00    -0.278 OA
BRANCH  11  12
ATOM     12  P   LIG    1        1.341   5.947   2.440  0.00  0.00    +0.473 P 
ATOM     13  O   LIG    1        0.762   5.505   3.827  0.00  0.00    -0.228 OA
BRANCH  12  14
ATOM     14  O   LIG    1        2.892   5.729   2.428  0.00  0.00    -0.303 OA
ATOM     15  H   LIG    1        3.088   4.791   2.576  0.00  0.00    +0.222 HD
ENDBRANCH  12  14
BRANCH  12  16
ATOM     16  O   LIG    1        1.025   7.463   2.201  0.00  0.00    -0.303 OA
ATOM     17  H   LIG    1        0.064   7.598   2.208  0.00  0.00    +0.222 HD
ENDBRANCH  12  16
ENDBRANCH  11  12
ENDBRANCH   4  11
BRANCH   5  18
ATOM     18  O   LIG    1        2.743   3.640  -0.005  0.00  0.00    -0.278 OA
BRANCH  18  19
ATOM     19  P   LIG    1        3.320   4.583  -1.175  0.00  0.00    +0.473 P 
ATOM     20  O   LIG    1        3.114   3.882  -2.560  0.00  0.00    -0.228 OA
BRANCH  19  21
ATOM     21  O   LIG    1        2.560   5.953  -1.164  0.00  0.00    -0.303 OA
ATOM     22  H   LIG    1        1.614   5.799  -1.311  0.00  0.00    +0.222 HD
ENDBRANCH  19  21
BRANCH  19  23
ATOM     23  O   LIG    1        4.849   4.832  -0.937  0.00  0.00    -0.303 OA
ATOM     24  H   LIG    1        5.319   3.984  -0.944  0.00  0.00    +0.222 HD
ENDBRANCH  19  23
ENDBRANCH  18  19
ENDBRANCH   5  18
BRANCH   6  25
ATOM     25  O   LIG    1        2.091   1.155  -1.179  0.00  0.00    -0.278 OA
BRANCH  25  26
ATOM     26  P   LIG    1        3.418   0.243  -1.133  0.00  0.00    +0.473 P 
ATOM     27  O   LIG    1        4.514   0.960  -0.272  0.00  0.00    -0.228 OA
BRANCH  26  28
ATOM     28  O   LIG    1        3.076  -1.145  -0.492  0.00  0.00    -0.303 OA
ATOM     29  H   LIG    1        2.743  -1.012   0.409  0.00  0.00    +0.222 HD
ENDBRANCH  26  28
BRANCH  26  30
ATOM     30  O   LIG    1        3.955   0.029  -2.588  0.00  0.00    -0.303 OA
ATOM     31  H   LIG    1        4.167   0.888  -2.985  0.00  0.00    +0.222 HD
ENDBRANCH  26  30
ENDBRANCH  25  26
ENDBRANCH   6  25
BRANCH   3  32
ATOM     32  O   LIG    1       -1.419   3.570   2.451  0.00  0.00    -0.278 OA
BRANCH  32  33
ATOM     33  P   LIG    1       -2.745   4.481   2.405  0.00  0.00    +0.473 P 
ATOM     34  O   LIG    1       -2.474   5.742   1.554  0.00  0.00    -0.228 OA
BRANCH  33  35
ATOM     35  O   LIG    1       -3.903   3.674   1.776  0.00  0.00    -0.303 OA
ATOM     36  H   LIG    1       -3.660   3.410   0.875  0.00  0.00    +0.222 HD
ENDBRANCH  33  35
BRANCH  33  37
ATOM     37  O   LIG    1       -3.147   4.920   3.901  0.00  0.00    -0.303 OA
ATOM     38  H   LIG    1       -3.939   5.472   3.949  0.00  0.00    +0.222 HD
ENDBRANCH  33  37
ENDBRANCH  32  33
ENDBRANCH   3  32
TORSDOF 18
