REMARK  Name = ZINC08671637
REMARK                            x       y       z     vdW  Elec       q    Type
REMARK                         _______ _______ _______ _____ _____    ______ ____
ROOT
ATOM      1  C   LIG    1        4.970  -2.554  -0.053  0.00  0.00    +0.140 A 
ATOM      2  C   LIG    1        6.073  -1.723   0.005  0.00  0.00    +0.047 A 
ATOM      3  C   LIG    1        7.358  -2.249  -0.002  0.00  0.00    +0.004 A 
ATOM      4  C   LIG    1        7.562  -3.610  -0.067  0.00  0.00    +0.014 A 
ATOM      5  C   LIG    1        6.466  -4.471  -0.126  0.00  0.00    +0.050 A 
ATOM      6  C   LIG    1        6.626  -5.927  -0.198  0.00  0.00    +0.257 A 
ATOM      7  O   LIG    1        7.738  -6.425  -0.207  0.00  0.00    -0.267 OA
ATOM      8  N   LIG    1        5.529  -6.709  -0.235  0.00  0.00    -0.329 N 
ATOM      9  H   LIG    1        5.641  -7.672  -0.278  0.00  0.00    +0.168 HD
ATOM     10  C   LIG    1        4.265  -6.192  -0.229  0.00  0.00    +0.086 A 
ATOM     11  C   LIG    1        4.029  -4.871  -0.172  0.00  0.00    +0.030 A 
ATOM     12  C   LIG    1        5.156  -3.941  -0.114  0.00  0.00    +0.031 A 
ENDROOT
BRANCH   1  13
ATOM     13  O   LIG    1        3.716  -2.031  -0.045  0.00  0.00    -0.422 OA
BRANCH  13  14
ATOM     14  C   LIG    1        3.083  -1.924   1.139  0.00  0.00    +0.344 C 
ATOM     15  O   LIG    1        3.595  -2.375   2.145  0.00  0.00    -0.245 OA
BRANCH  14  19
ATOM     16  C   LIG    1       -0.704  -0.014   1.357  0.00  0.00    +0.000 A 
ATOM     17  C   LIG    1       -0.124  -0.526   2.504  0.00  0.00    +0.001 A 
ATOM     18  C   LIG    1        1.106  -1.148   2.441  0.00  0.00    +0.015 A 
ATOM     19  C   LIG    1        1.766  -1.260   1.215  0.00  0.00    +0.059 A 
ATOM     20  C   LIG    1        1.175  -0.741   0.061  0.00  0.00    +0.015 A 
ATOM     21  C   LIG    1       -0.056  -0.122   0.139  0.00  0.00    +0.001 A 
ENDBRANCH  14  19
ENDBRANCH  13  14
ENDBRANCH   1  13
TORSDOF 3
