REMARK  Name = ZINC12496510
REMARK                            x       y       z     vdW  Elec       q    Type
REMARK                         _______ _______ _______ _____ _____    ______ ____
ROOT
ATOM      1  C   LIG    1        0.085   1.999   5.446  0.00  0.00    +0.189 C 
ATOM      2  C   LIG    1        1.383   2.039   4.590  0.00  0.00    +0.039 C 
ATOM      3  C   LIG    1        2.180   3.305   4.908  0.00  0.00    +0.012 C 
ATOM      4  C   LIG    1        0.939   2.050   3.109  0.00  0.00    +0.012 C 
ATOM      5  C   LIG    1       -0.472   1.434   3.153  0.00  0.00    +0.006 C 
ATOM      6  C   LIG    1       -1.242   1.722   1.897  0.00  0.00    +0.037 C 
ATOM      7  C   LIG    1       -0.465   1.220   0.677  0.00  0.00    +0.048 C 
ATOM      8  C   LIG    1       -1.330   1.357  -0.579  0.00  0.00    +0.194 C 
ATOM      9  F   LIG    1       -0.582   1.008  -1.709  0.00  0.00    -0.241 F 
ATOM     10  C   LIG    1       -1.775   2.804  -0.686  0.00  0.00    -0.020 C 
ATOM     11  C   LIG    1       -1.573   3.457  -1.822  0.00  0.00    +0.054 C 
ATOM     12  C   LIG    1       -1.971   4.867  -1.954  0.00  0.00    +0.179 C 
ATOM     13  C   LIG    1       -2.553   5.545  -0.784  0.00  0.00    +0.047 C 
ATOM     14  C   LIG    1       -2.754   4.871   0.338  0.00  0.00    -0.009 C 
ATOM     15  O   LIG    1       -1.823   5.459  -3.007  0.00  0.00    -0.288 OA
ATOM     16  C   LIG    1       -2.432   3.426   0.510  0.00  0.00    +0.047 C 
ATOM     17  C   LIG    1       -3.744   2.682   0.763  0.00  0.00    +0.023 C 
ATOM     18  C   LIG    1       -1.551   3.211   1.745  0.00  0.00    +0.153 C 
ATOM     19  F   LIG    1       -0.366   3.944   1.619  0.00  0.00    -0.238 F 
ATOM     20  C   LIG    1       -2.324   3.678   2.985  0.00  0.00    +0.154 C 
ATOM     21  C   LIG    1       -1.434   3.510   4.212  0.00  0.00    +0.046 C 
ATOM     22  C   LIG    1       -1.087   2.035   4.428  0.00  0.00    +0.022 C 
ATOM     23  C   LIG    1       -2.294   1.231   4.914  0.00  0.00    +0.016 C 
ENDROOT
BRANCH   1  24
ATOM     24  C   LIG    1        0.030   0.729   6.255  0.00  0.00    +0.236 C 
ATOM     25  O   LIG    1        0.685  -0.235   5.915  0.00  0.00    -0.281 OA
BRANCH  24  26
ATOM     26  S   LIG    1       -0.955   0.645   7.652  0.00  0.00    -0.051 S 
BRANCH  26  27
ATOM     27  C   LIG    1       -0.619  -1.055   8.173  0.00  0.00    +0.290 C 
ATOM     28  F   LIG    1        0.653  -1.122   8.753  0.00  0.00    -0.237 F 
ENDBRANCH  26  27
ENDBRANCH  24  26
ENDBRANCH   1  24
BRANCH  20  29
ATOM     29  O   LIG    1       -3.505   2.888   3.139  0.00  0.00    -0.389 OA
ATOM     30  H   LIG    1       -4.043   3.129   3.905  0.00  0.00    +0.210 HD
ENDBRANCH  20  29
BRANCH   1  31
ATOM     31  O   LIG    1        0.018   3.154   6.324  0.00  0.00    -0.449 OA
BRANCH  31  32
ATOM     32  C   LIG    1        0.898   3.201   7.337  0.00  0.00    +0.308 C 
ATOM     33  O   LIG    1        1.690   2.301   7.492  0.00  0.00    -0.251 OA
BRANCH  32  35
ATOM     34  C   LIG    1        1.992   4.184   9.333  0.00  0.00    +0.015 C 
ATOM     35  C   LIG    1        0.899   4.377   8.279  0.00  0.00    +0.117 C 
ENDBRANCH  32  35
ENDBRANCH  31  32
ENDBRANCH   1  31
TORSDOF 7
