REMARK  Name = ZINC09673165
REMARK                            x       y       z     vdW  Elec       q    Type
REMARK                         _______ _______ _______ _____ _____    ______ ____
ROOT
ATOM      1  C   LIG    1       -0.018   1.503   0.010  0.00  0.00    +0.048 C 
ATOM      2  C   LIG    1        0.002  -0.004   0.002  0.00  0.00    +0.008 A 
ATOM      3  C   LIG    1        0.009  -0.877  -1.171  0.00  0.00    +0.026 A 
ATOM      4  C   LIG    1       -0.001  -0.654  -2.551  0.00  0.00    +0.040 A 
ATOM      5  C   LIG    1        0.009  -1.718  -3.408  0.00  0.00    +0.106 A 
ATOM      6  C   LIG    1        0.029  -3.017  -2.918  0.00  0.00    +0.032 A 
ATOM      7  C   LIG    1        0.039  -3.257  -1.561  0.00  0.00    +0.049 A 
ATOM      8  C   LIG    1        0.030  -2.191  -0.669  0.00  0.00    +0.136 A 
ATOM      9  O   LIG    1        0.035  -2.113   0.676  0.00  0.00    -0.450 OA
ATOM     10  C   LIG    1        0.024  -0.826   1.083  0.00  0.00    +0.193 A 
ENDROOT
BRANCH  10  11
ATOM     11  C   LIG    1        0.031  -0.382   2.484  0.00  0.00    +0.280 C 
ATOM     12  N   LIG    1        0.053  -1.291   3.479  0.00  0.00    -0.309 N 
ATOM     13  H   LIG    1        0.065  -2.238   3.270  0.00  0.00    +0.149 HD
ATOM     14  O   LIG    1        0.017   0.806   2.745  0.00  0.00    -0.267 OA
BRANCH  12  15
ATOM     15  C   LIG    1        0.060  -0.848   4.875  0.00  0.00    +0.109 C 
BRANCH  15  16
ATOM     16  C   LIG    1        0.086  -2.068   5.797  0.00  0.00    +0.054 C 
BRANCH  16  17
ATOM     17  C   LIG    1        0.094  -1.613   7.234  0.00  0.00    -0.046 A 
ATOM     18  C   LIG    1        1.294  -1.381   7.879  0.00  0.00    +0.004 A 
ATOM     19  C   LIG    1        1.301  -0.964   9.197  0.00  0.00    +0.000 A 
ATOM     20  C   LIG    1        0.107  -0.776   9.869  0.00  0.00    +0.000 A 
ATOM     21  C   LIG    1       -1.093  -1.007   9.223  0.00  0.00    +0.000 A 
ATOM     22  C   LIG    1       -1.100  -1.421   7.904  0.00  0.00    +0.004 A 
ENDBRANCH  16  17
ENDBRANCH  15  16
ENDBRANCH  12  15
ENDBRANCH  10  11
BRANCH   5  23
ATOM     23  S   LIG    1       -0.004  -1.440  -5.148  0.00  0.00    +0.061 S 
ATOM     24  O   LIG    1       -0.574  -0.154  -5.349  0.00  0.00    -0.153 OA
ATOM     25  O   LIG    1       -0.541  -2.613  -5.743  0.00  0.00    -0.153 OA
BRANCH  23  26
ATOM     26  N   LIG    1        1.575  -1.340  -5.639  0.00  0.00    -0.176 NA
ATOM     27  C   LIG    1        2.273  -0.048  -5.656  0.00  0.00    +0.112 C 
ATOM     28  C   LIG    1        3.572  -0.179  -4.854  0.00  0.00    +0.002 C 
ATOM     29  C   LIG    1        4.378   1.116  -4.972  0.00  0.00    +0.009 C 
ATOM     30  C   LIG    1        4.394  -1.345  -5.409  0.00  0.00    +0.009 C 
ATOM     31  C   LIG    1        3.601  -2.646  -5.261  0.00  0.00    +0.002 C 
ATOM     32  C   LIG    1        4.436  -3.816  -5.785  0.00  0.00    +0.009 C 
ATOM     33  C   LIG    1        2.304  -2.543  -6.061  0.00  0.00    +0.112 C 
ENDBRANCH  23  26
ENDBRANCH   5  23
TORSDOF 6
