REMARK  Name = ZINC11757504
REMARK                            x       y       z     vdW  Elec       q    Type
REMARK                         _______ _______ _______ _____ _____    ______ ____
ROOT
ATOM      1  S   LIG    1       -1.051  -0.373  -1.194  0.00  0.00    +0.074 S 
ATOM      2  O   LIG    1       -1.155   0.749  -2.060  0.00  0.00    -0.150 OA
ATOM      3  O   LIG    1       -2.173  -0.919  -0.514  0.00  0.00    -0.150 OA
ENDROOT
BRANCH   1   4
ATOM      4  C   LIG    1       -0.355  -1.682  -2.147  0.00  0.00    +0.109 A 
ATOM      5  C   LIG    1        0.527  -1.394  -3.173  0.00  0.00    +0.030 A 
ATOM      6  C   LIG    1        1.074  -2.417  -3.922  0.00  0.00    +0.024 A 
ATOM      7  C   LIG    1        0.738  -3.736  -3.645  0.00  0.00    +0.025 A 
ATOM      8  C   LIG    1       -0.149  -4.021  -2.614  0.00  0.00    +0.024 A 
ATOM      9  C   LIG    1       -0.688  -2.994  -1.865  0.00  0.00    +0.030 A 
BRANCH   7  10
ATOM     10  N   LIG    1        1.289  -4.773  -4.401  0.00  0.00    -0.358 N 
ATOM     11  H   LIG    1        1.053  -5.694  -4.206  0.00  0.00    +0.142 HD
ATOM     12  H   LIG    1        1.907  -4.573  -5.120  0.00  0.00    +0.142 HD
ENDBRANCH   7  10
ENDBRANCH   1   4
BRANCH   1  14
ATOM     13  C   LIG    1        1.150   0.951  -0.347  0.00  0.00    +0.157 C 
ATOM     14  N   LIG    1        0.058   0.028  -0.031  0.00  0.00    -0.206 N 
BRANCH  14  15
ATOM     15  C   LIG    1       -0.049  -0.514   1.252  0.00  0.00    +0.051 A 
ATOM     16  C   LIG    1        0.189  -1.867   1.458  0.00  0.00    +0.026 A 
ATOM     17  C   LIG    1        0.083  -2.400   2.728  0.00  0.00    +0.022 A 
ATOM     18  C   LIG    1       -0.260  -1.588   3.794  0.00  0.00    +0.041 A 
ATOM     19 CL   LIG    1       -0.393  -2.262   5.389  0.00  0.00    -0.084 Cl
ATOM     20  C   LIG    1       -0.497  -0.240   3.592  0.00  0.00    +0.022 A 
ATOM     21  C   LIG    1       -0.388   0.300   2.326  0.00  0.00    +0.026 A 
ENDBRANCH  14  15
ENDBRANCH   1  14
TORSDOF 4
