REMARK  Name = ZINC08652533
REMARK                            x       y       z     vdW  Elec       q    Type
REMARK                         _______ _______ _______ _____ _____    ______ ____
ROOT
ATOM      1  C   LIG    1        0.010   1.242   0.036  0.00  0.00    +0.224 C 
ATOM      2  N   LIG    1        1.040   2.059   0.332  0.00  0.00    -0.257 N 
ATOM      3  C   LIG    1        2.371   1.654   0.468  0.00  0.00    +0.040 A 
ATOM      4  C   LIG    1        2.926   0.380   0.340  0.00  0.00    +0.024 A 
ATOM      5  C   LIG    1        4.280   0.190   0.516  0.00  0.00    +0.002 A 
ATOM      6  C   LIG    1        5.099   1.261   0.823  0.00  0.00    +0.000 A 
ATOM      7  C   LIG    1        4.559   2.528   0.940  0.00  0.00    +0.005 A 
ATOM      8  C   LIG    1        3.201   2.722   0.770  0.00  0.00    -0.024 A 
ATOM      9  C   LIG    1        2.360   3.975   0.860  0.00  0.00    +0.071 C 
ATOM     10  C   LIG    1        0.928   3.502   0.564  0.00  0.00    +0.194 C 
ATOM     11  O   LIG    1        0.216   0.073  -0.215  0.00  0.00    -0.275 OA
ENDROOT
BRANCH   1  13
ATOM     12  C   LIG    1       -1.625   2.555  -1.287  0.00  0.00    +0.018 C 
ATOM     13  C   LIG    1       -1.397   1.781   0.013  0.00  0.00    +0.083 C 
BRANCH  13  14
ATOM     14  C   LIG    1       -2.390   0.619   0.095  0.00  0.00    +0.090 C 
BRANCH  14  15
ATOM     15  S   LIG    1       -4.074   1.272   0.215  0.00  0.00    -0.082 S 
BRANCH  15  16
ATOM     16  C   LIG    1       -4.981  -0.236   0.294  0.00  0.00    +0.220 C 
ATOM     17  O   LIG    1       -4.395  -1.301   0.258  0.00  0.00    -0.280 OA
BRANCH  16  18
ATOM     18  C   LIG    1       -6.455  -0.207   0.403  0.00  0.00    +0.028 A 
ATOM     19  C   LIG    1       -7.131   1.014   0.450  0.00  0.00    +0.012 A 
ATOM     20  C   LIG    1       -8.507   1.034   0.546  0.00  0.00    +0.001 A 
ATOM     21  C   LIG    1       -9.216  -0.152   0.608  0.00  0.00    +0.000 A 
ATOM     22  C   LIG    1       -8.553  -1.365   0.567  0.00  0.00    +0.001 A 
ATOM     23  C   LIG    1       -7.178  -1.400   0.466  0.00  0.00    +0.012 A 
ENDBRANCH  16  18
ENDBRANCH  15  16
ENDBRANCH  14  15
ENDBRANCH  13  14
ENDBRANCH   1  13
BRANCH  10  24
ATOM     24  C   LIG    1        0.032   3.774   1.745  0.00  0.00    +0.326 C 
ATOM     25  O   LIG    1       -0.471   2.854   2.345  0.00  0.00    -0.249 OA
BRANCH  24  26
ATOM     26  O   LIG    1       -0.206   5.037   2.130  0.00  0.00    -0.479 OA
ATOM     27  H   LIG    1        0.184   5.750   1.664  0.00  0.00    +0.295 HD
ENDBRANCH  24  26
ENDBRANCH  10  24
TORSDOF 7
