REMARK  Name = ZINC10272299
REMARK                            x       y       z     vdW  Elec       q    Type
REMARK                         _______ _______ _______ _____ _____    ______ ____
ROOT
ATOM      1  C   LIG    1       -0.019   1.522   0.010  0.00  0.00    +0.018 C 
ATOM      2  C   LIG    1        0.002  -0.004   0.002  0.00  0.00    +0.011 C 
ATOM      3  C   LIG    1       -1.402  -0.551   0.021  0.00  0.00    +0.013 C 
ATOM      4  C   LIG    1       -2.029  -0.312   1.410  0.00  0.00    +0.005 C 
ATOM      5  C   LIG    1       -1.201  -0.974   2.495  0.00  0.00    +0.003 C 
ATOM      6  C   LIG    1        0.240  -0.425   2.507  0.00  0.00    +0.001 C 
ATOM      7  C   LIG    1        0.207   1.018   2.997  0.00  0.00    +0.031 C 
ATOM      8  C   LIG    1       -0.376   1.024   4.388  0.00  0.00    -0.027 C 
ATOM      9  C   LIG    1       -1.268   0.159   4.759  0.00  0.00    -0.065 C 
ATOM     10  C   LIG    1       -1.818   0.247   6.173  0.00  0.00    +0.062 C 
ATOM     11  C   LIG    1       -1.648  -1.127   6.830  0.00  0.00    +0.119 C 
ATOM     12  C   LIG    1       -0.834  -2.041   5.918  0.00  0.00    +0.032 C 
ATOM     13  C   LIG    1       -1.548  -2.279   4.591  0.00  0.00    +0.014 C 
ATOM     14  C   LIG    1       -1.801  -0.941   3.881  0.00  0.00    -0.008 C 
ATOM     15  C   LIG    1       -3.320  -0.769   3.788  0.00  0.00    +0.016 C 
ATOM     16  C   LIG    1        0.860  -0.406  -1.185  0.00  0.00    +0.042 C 
ATOM     17  N   LIG    1        0.460  -0.835  -2.313  0.00  0.00    -0.198 NA
ATOM     18  C   LIG    1        2.290  -0.172  -0.704  0.00  0.00    +0.053 C 
ATOM     19  C   LIG    1        2.222  -0.048   0.847  0.00  0.00    +0.010 C 
ATOM     20  C   LIG    1        0.830  -0.620   1.145  0.00  0.00    +0.005 C 
ENDROOT
BRANCH  17  21
ATOM     21  N   LIG    1        1.391  -1.163  -3.307  0.00  0.00    -0.283 N 
ATOM     22  H   LIG    1        1.086  -1.490  -4.168  0.00  0.00    +0.164 HD
ATOM     23  H   LIG    1        2.340  -1.063  -3.135  0.00  0.00    +0.164 HD
ENDBRANCH  17  21
BRANCH  11  24
ATOM     24  O   LIG    1       -2.932  -1.707   7.068  0.00  0.00    -0.391 OA
ATOM     25  H   LIG    1       -3.503  -1.178   7.641  0.00  0.00    +0.210 HD
ENDBRANCH  11  24
TORSDOF 2
