REMARK  Name = ZINC12405300
REMARK                            x       y       z     vdW  Elec       q    Type
REMARK                         _______ _______ _______ _____ _____    ______ ____
ROOT
ATOM      1  C   LIG    1       -1.577   4.809   2.708  0.00  0.00    +0.155 C 
ATOM      2  N   LIG    1       -1.453   3.362   2.516  0.00  0.00    -0.281 N 
ATOM      3  C   LIG    1       -1.977   2.491   3.460  0.00  0.00    +0.146 A 
ATOM      4  N   LIG    1       -2.629   2.667   4.611  0.00  0.00    -0.325 N 
ATOM      5  H   LIG    1       -2.870   3.577   5.020  0.00  0.00    +0.169 HD
ATOM      6  C   LIG    1       -2.917   1.494   5.142  0.00  0.00    +0.118 A 
ATOM      7  N   LIG    1       -2.449   0.504   4.332  0.00  0.00    -0.334 N 
ATOM      8  H   LIG    1       -2.527  -0.480   4.489  0.00  0.00    +0.168 HD
ATOM      9  C   LIG    1       -1.846   1.122   3.254  0.00  0.00    +0.147 A 
ATOM     10  C   LIG    1       -1.187   0.661   2.095  0.00  0.00    +0.282 A 
ATOM     11  N   LIG    1       -0.698   1.558   1.213  0.00  0.00    -0.262 N 
ATOM     12  C   LIG    1       -0.013   1.086   0.008  0.00  0.00    +0.157 C 
ATOM     13  O   LIG    1       -1.060  -0.533   1.892  0.00  0.00    -0.265 OA
ATOM     14  C   LIG    1       -0.827   2.879   1.427  0.00  0.00    +0.333 A 
ATOM     15  O   LIG    1       -0.369   3.658   0.613  0.00  0.00    -0.246 OA
ENDROOT
BRANCH   6  16
ATOM     16  C   LIG    1       -3.635   1.288   6.417  0.00  0.00    +0.019 A 
ATOM     17  C   LIG    1       -3.883  -0.005   6.881  0.00  0.00    +0.012 A 
ATOM     18  C   LIG    1       -4.553  -0.194   8.072  0.00  0.00    +0.004 A 
ATOM     19  C   LIG    1       -4.980   0.895   8.810  0.00  0.00    +0.045 A 
ATOM     20  C   LIG    1       -4.738   2.184   8.357  0.00  0.00    +0.121 A 
ATOM     21  C   LIG    1       -4.062   2.385   7.165  0.00  0.00    +0.057 A 
BRANCH  20  22
ATOM     22  O   LIG    1       -5.160   3.251   9.086  0.00  0.00    -0.495 OA
ATOM     23  C   LIG    1       -5.846   2.970  10.308  0.00  0.00    +0.277 C 
ENDBRANCH  20  22
ENDBRANCH   6  16
TORSDOF 2
