REMARK  Name = ZINC08995178
REMARK                            x       y       z     vdW  Elec       q    Type
REMARK                         _______ _______ _______ _____ _____    ______ ____
ROOT
ATOM      1  C   LIG    1       -1.251  -0.755   0.010  0.00  0.00    +0.026 C 
ATOM      2  C   LIG    1       -1.232  -2.136  -0.102  0.00  0.00    +0.096 C 
ATOM      3  C   LIG    1       -2.475  -2.916  -0.212  0.00  0.00    +0.218 C 
ATOM      4  N   LIG    1       -2.387  -4.230  -0.317  0.00  0.00    -0.127 NA
ATOM      5  C   LIG    1       -1.216  -4.862  -0.325  0.00  0.00    +0.333 C 
ATOM      6  N   LIG    1       -0.034  -4.236  -0.230  0.00  0.00    -0.234 N 
ATOM      7  H   LIG    1        0.784  -4.756  -0.242  0.00  0.00    +0.159 HD
ATOM      8  O   LIG    1       -1.217  -6.076  -0.425  0.00  0.00    -0.250 OA
ATOM      9  C   LIG    1        0.036  -2.891  -0.122  0.00  0.00    +0.256 C 
ATOM     10  O   LIG    1        1.108  -2.322  -0.041  0.00  0.00    -0.270 OA
ENDROOT
BRANCH   1  16
ATOM     11  C   LIG    1        0.896  -0.281  -1.144  0.00  0.00    +0.011 A 
ATOM     12  C   LIG    1        2.054   0.433  -1.250  0.00  0.00    +0.046 A 
ATOM     13  C   LIG    1        2.340   1.442  -0.334  0.00  0.00    +0.117 A 
ATOM     14  C   LIG    1        1.448   1.730   0.695  0.00  0.00    +0.046 A 
ATOM     15  C   LIG    1        0.286   1.024   0.812  0.00  0.00    +0.011 A 
ATOM     16  C   LIG    1       -0.009   0.005  -0.109  0.00  0.00    -0.024 A 
BRANCH  13  17
ATOM     17  O   LIG    1        3.494   2.147  -0.445  0.00  0.00    -0.507 OA
ATOM     18  H   LIG    1        3.419   2.938  -0.996  0.00  0.00    +0.292 HD
ENDBRANCH  13  17
ENDBRANCH   1  16
BRANCH   3  19
ATOM     19  O   LIG    1       -3.678  -2.303  -0.207  0.00  0.00    -0.493 OA
ATOM     20  H   LIG    1       -3.728  -1.370  -0.133  0.00  0.00    +0.294 HD
ENDBRANCH   3  19
TORSDOF 3
