REMARK  Name = ZINC11678452
REMARK                            x       y       z     vdW  Elec       q    Type
REMARK                         _______ _______ _______ _____ _____    ______ ____
ROOT
ATOM      1  C   LIG    1        0.225  -0.421   4.034  0.00  0.00    +0.279 C 
ATOM      2  C   LIG    1        1.489  -1.288   4.168  0.00  0.00    +0.131 C 
ATOM      3  S   LIG    1        2.770  -0.553   3.098  0.00  0.00    -0.111 S 
ATOM      4  C   LIG    1        2.576   1.179   3.366  0.00  0.00    +0.031 A 
ATOM      5  C   LIG    1        3.514   1.891   4.096  0.00  0.00    +0.036 A 
ATOM      6  C   LIG    1        3.343   3.251   4.289  0.00  0.00    +0.042 A 
ATOM      7 CL   LIG    1        4.516   4.149   5.201  0.00  0.00    -0.084 Cl
ATOM      8  C   LIG    1        2.241   3.897   3.756  0.00  0.00    +0.022 A 
ATOM      9  C   LIG    1        1.301   3.190   3.029  0.00  0.00    +0.026 A 
ATOM     10  C   LIG    1        1.465   1.829   2.832  0.00  0.00    +0.050 A 
ATOM     11  N   LIG    1        0.522   1.093   2.098  0.00  0.00    -0.269 N 
ATOM     12  C   LIG    1        0.001  -0.032   2.603  0.00  0.00    +0.262 C 
ATOM     13  O   LIG    1       -0.664  -0.753   1.889  0.00  0.00    -0.271 OA
ENDROOT
BRANCH   2  14
ATOM     14  C   LIG    1        1.194  -2.696   3.721  0.00  0.00    -0.030 A 
ATOM     15  C   LIG    1        1.145  -3.719   4.650  0.00  0.00    +0.008 A 
ATOM     16  C   LIG    1        0.869  -5.010   4.244  0.00  0.00    +0.046 A 
ATOM     17  C   LIG    1        0.652  -5.282   2.901  0.00  0.00    +0.120 A 
ATOM     18  C   LIG    1        0.708  -4.255   1.970  0.00  0.00    +0.046 A 
ATOM     19  C   LIG    1        0.978  -2.965   2.382  0.00  0.00    +0.008 A 
BRANCH  17  20
ATOM     20  O   LIG    1        0.387  -6.553   2.498  0.00  0.00    -0.495 OA
ATOM     21  C   LIG    1        0.345  -7.559   3.511  0.00  0.00    +0.277 C 
ENDBRANCH  17  20
ENDBRANCH   2  14
BRANCH   1  22
ATOM     22  O   LIG    1        0.381   0.782   4.832  0.00  0.00    -0.451 OA
BRANCH  22  24
ATOM     23  C   LIG    1       -0.653   2.573   6.181  0.00  0.00    +0.136 C 
ATOM     24  C   LIG    1       -0.737   1.324   5.341  0.00  0.00    +0.305 C 
ATOM     25  O   LIG    1       -1.809   0.811   5.126  0.00  0.00    -0.251 OA
ENDBRANCH  22  24
ENDBRANCH   1  22
BRANCH  11  26
ATOM     26  C   LIG    1        0.101   1.561   0.775  0.00  0.00    +0.095 C 
BRANCH  26  27
ATOM     27  C   LIG    1        1.020   0.965  -0.293  0.00  0.00    -0.060 C 
BRANCH  27  28
ATOM     28  N   LIG    1        0.570   1.429  -1.622  0.00  0.00    +0.377 N 
ATOM     29  H   LIG    1       -0.434   1.240  -1.719  0.00  0.00    -0.083 HD
ATOM     30  C   LIG    1        1.299   0.704  -2.684  0.00  0.00    -0.097 C 
ATOM     31  C   LIG    1        0.800   2.883  -1.754  0.00  0.00    -0.097 C 
ENDBRANCH  27  28
ENDBRANCH  26  27
ENDBRANCH  11  26
TORSDOF 7
