REMARK  Name = ZINC09686365
REMARK                            x       y       z     vdW  Elec       q    Type
REMARK                         _______ _______ _______ _____ _____    ______ ____
ROOT
ATOM      1  N   LIG    1       -1.637  -1.855  -0.063  0.00  0.00    -0.315 N 
ATOM      2  H   LIG    1       -0.892  -2.475  -0.042  0.00  0.00    +0.149 HD
ATOM      3  C   LIG    1       -1.411  -0.527  -0.048  0.00  0.00    +0.216 C 
ATOM      4  O   LIG    1       -2.343   0.248  -0.074  0.00  0.00    -0.276 OA
ENDROOT
BRANCH   3   5
ATOM      5  C   LIG    1        0.002  -0.004   0.002  0.00  0.00    +0.078 C 
ATOM      6  C   LIG    1       -0.019   1.527   0.010  0.00  0.00    +0.031 C 
ATOM      7  C   LIG    1        1.419   2.052  -0.001  0.00  0.00    +0.107 C 
ATOM      8  N   LIG    1        2.112   1.560  -1.198  0.00  0.00    -0.314 N 
ATOM      9  C   LIG    1        2.186   0.094  -1.205  0.00  0.00    +0.107 C 
ATOM     10  C   LIG    1        0.771  -0.489  -1.230  0.00  0.00    +0.031 C 
BRANCH   8  11
ATOM     11  C   LIG    1        3.378   2.124  -1.308  0.00  0.00    +0.144 A 
ATOM     12  C   LIG    1        3.527   3.512  -1.321  0.00  0.00    +0.047 A 
ATOM     13  C   LIG    1        4.805   4.028  -1.431  0.00  0.00    +0.034 A 
ATOM     14  C   LIG    1        5.872   3.124  -1.522  0.00  0.00    +0.100 A 
ATOM     15  N   LIG    1        5.633   1.818  -1.502  0.00  0.00    -0.147 NA
ATOM     16  N   LIG    1        4.446   1.344  -1.395  0.00  0.00    -0.134 NA
BRANCH  14  17
ATOM     17  C   LIG    1        7.258   3.623  -1.641  0.00  0.00    +0.039 A 
ATOM     18  C   LIG    1        8.425   2.913  -1.742  0.00  0.00    +0.018 A 
ATOM     19  C   LIG    1        9.612   3.603  -1.844  0.00  0.00    +0.008 A 
ATOM     20  C   LIG    1        9.591   4.961  -1.842  0.00  0.00    +0.046 A 
ATOM     21  S   LIG    1        7.846   5.308  -1.699  0.00  0.00    -0.095 S 
ENDBRANCH  14  17
ENDBRANCH   8  11
ENDBRANCH   3   5
BRANCH   1  22
ATOM     22  C   LIG    1       -3.011  -2.363  -0.112  0.00  0.00    +0.105 C 
BRANCH  22  26
ATOM     23  N   LIG    1       -4.605  -5.198  -1.328  0.00  0.00    +0.383 N 
ATOM     24  H   LIG    1       -5.019  -4.588  -2.043  0.00  0.00    -0.081 HD
ATOM     25  C   LIG    1       -4.424  -4.448  -0.080  0.00  0.00    -0.073 C 
ATOM     26  C   LIG    1       -2.989  -3.893  -0.120  0.00  0.00    -0.012 C 
ATOM     27  C   LIG    1       -2.389  -4.414  -1.446  0.00  0.00    -0.015 C 
ATOM     28  C   LIG    1       -3.277  -5.644  -1.767  0.00  0.00    -0.078 C 
BRANCH  23  29
ATOM     29  C   LIG    1       -5.505  -6.369  -1.103  0.00  0.00    -0.043 C 
BRANCH  29  34
ATOM     30  C   LIG    1       -6.979  -8.698  -6.181  0.00  0.00    +0.044 C 
ATOM     31  C   LIG    1       -6.595  -8.091  -4.857  0.00  0.00    -0.050 A 
ATOM     32  C   LIG    1       -5.459  -8.527  -4.200  0.00  0.00    +0.003 A 
ATOM     33  C   LIG    1       -5.106  -7.970  -2.985  0.00  0.00    +0.002 A 
ATOM     34  C   LIG    1       -5.889  -6.976  -2.427  0.00  0.00    -0.064 A 
ATOM     35  C   LIG    1       -7.027  -6.544  -3.081  0.00  0.00    +0.002 A 
ATOM     36  C   LIG    1       -7.377  -7.097  -4.299  0.00  0.00    +0.003 A 
ENDBRANCH  29  34
ENDBRANCH  23  29
ENDBRANCH  22  26
ENDBRANCH   1  22
TORSDOF 7
