REMARK  Name = ZINC12274914
REMARK                            x       y       z     vdW  Elec       q    Type
REMARK                         _______ _______ _______ _____ _____    ______ ____
ROOT
ATOM      1  C   LIG    1        1.249  -0.419  -0.012  0.00  0.00    +0.100 A 
ATOM      2  C   LIG    1        2.100   0.777  -0.014  0.00  0.00    +0.022 A 
ATOM      3  C   LIG    1        1.245   1.863   0.000  0.00  0.00    +0.123 A 
ATOM      4  N   LIG    1       -0.017   1.393   0.010  0.00  0.00    -0.239 N 
ATOM      5  N   LIG    1        0.002  -0.004   0.002  0.00  0.00    -0.166 NA
ENDROOT
BRANCH   2   6
ATOM      6  C   LIG    1        3.566   0.813  -0.027  0.00  0.00    +0.032 C 
ATOM      7  C   LIG    1        4.217   2.006  -0.027  0.00  0.00    +0.077 C 
ATOM      8  C   LIG    1        5.664   2.287  -0.033  0.00  0.00    +0.258 C 
ATOM      9  N   LIG    1        6.022   3.560  -0.035  0.00  0.00    -0.254 N 
ATOM     10  C   LIG    1        5.105   4.549  -0.021  0.00  0.00    +0.121 C 
ATOM     11  S   LIG    1        5.366   6.241  -0.014  0.00  0.00    -0.027 S 
ATOM     12  O   LIG    1        6.489   1.392  -0.040  0.00  0.00    -0.269 OA
ATOM     13  S   LIG    1        3.553   3.666  -0.012  0.00  0.00    -0.061 S 
BRANCH   9  14
ATOM     14  C   LIG    1        7.446   3.904  -0.047  0.00  0.00    +0.140 C 
BRANCH  14  15
ATOM     15  C   LIG    1        7.955   4.015   1.392  0.00  0.00    +0.217 C 
BRANCH  15  16
ATOM     16  S   LIG    1        9.718   4.440   1.378  0.00  0.00    +0.081 S 
ATOM     17  O   LIG    1        9.900   5.758   0.879  0.00  0.00    -0.147 OA
ATOM     18  O   LIG    1       10.479   3.358   0.859  0.00  0.00    -0.147 OA
BRANCH  16  19
ATOM     19  O   LIG    1       10.112   4.523   2.846  0.00  0.00    -0.254 OA
ATOM     20  H   LIG    1       10.013   3.650   3.257  0.00  0.00    +0.244 HD
ENDBRANCH  16  19
ENDBRANCH  15  16
ENDBRANCH  14  15
ENDBRANCH   9  14
ENDBRANCH   2   6
BRANCH   1  24
ATOM     21  C   LIG    1        2.569  -4.461  -0.046  0.00  0.00    +0.120 A 
ATOM     22  C   LIG    1        1.423  -4.112   0.657  0.00  0.00    +0.046 A 
ATOM     23  C   LIG    1        0.993  -2.802   0.670  0.00  0.00    +0.013 A 
ATOM     24  C   LIG    1        1.709  -1.827  -0.024  0.00  0.00    +0.003 A 
ATOM     25  C   LIG    1        2.856  -2.182  -0.733  0.00  0.00    +0.013 A 
ATOM     26  C   LIG    1        3.284  -3.493  -0.738  0.00  0.00    +0.046 A 
BRANCH  21  28
ATOM     27  C   LIG    1        4.176  -6.042  -0.800  0.00  0.00    +0.277 C 
ATOM     28  O   LIG    1        2.990  -5.753  -0.057  0.00  0.00    -0.495 OA
ENDBRANCH  21  28
ENDBRANCH   1  24
BRANCH   4  29
ATOM     29  C   LIG    1       -1.173   2.184   0.020  0.00  0.00    +0.065 A 
ATOM     30  C   LIG    1       -1.068   3.569   0.032  0.00  0.00    +0.028 A 
ATOM     31  C   LIG    1       -2.209   4.347   0.036  0.00  0.00    +0.002 A 
ATOM     32  C   LIG    1       -3.456   3.747   0.040  0.00  0.00    +0.000 A 
ATOM     33  C   LIG    1       -3.563   2.369   0.033  0.00  0.00    +0.002 A 
ATOM     34  C   LIG    1       -2.426   1.586   0.023  0.00  0.00    +0.028 A 
ENDBRANCH   4  29
TORSDOF 8
