REMARK  Name = ZINC12375034
REMARK                            x       y       z     vdW  Elec       q    Type
REMARK                         _______ _______ _______ _____ _____    ______ ____
ROOT
ATOM      1  C   LIG    1       -2.573   7.668   0.054  0.00  0.00    +0.020 A 
ATOM      2  C   LIG    1       -3.017   6.366   0.050  0.00  0.00    +0.014 A 
ATOM      3  C   LIG    1       -2.066   5.316   0.040  0.00  0.00    +0.029 A 
ATOM      4  C   LIG    1       -2.299   3.880   0.028  0.00  0.00    +0.053 A 
ATOM      5  C   LIG    1       -1.206   3.041   0.024  0.00  0.00    +0.097 A 
ATOM      6  S   LIG    1        0.177   4.164   0.023  0.00  0.00    -0.062 S 
ATOM      7  C   LIG    1       -0.707   5.704   0.035  0.00  0.00    +0.111 A 
ATOM      8  N   LIG    1       -0.332   6.965   0.040  0.00  0.00    -0.248 NA
ATOM      9  C   LIG    1       -1.215   7.945   0.049  0.00  0.00    +0.112 A 
ENDROOT
BRANCH   5  10
ATOM     10  C   LIG    1       -1.187   1.624   0.017  0.00  0.00    +0.250 C 
ATOM     11  N   LIG    1       -0.011   0.966   0.007  0.00  0.00    -0.325 N 
ATOM     12  H   LIG    1        0.822   1.462   0.002  0.00  0.00    +0.145 HD
ATOM     13  H   LIG    1        0.002  -0.004   0.002  0.00  0.00    +0.145 HD
ATOM     14  O   LIG    1       -2.234   1.001   0.018  0.00  0.00    -0.270 OA
ENDBRANCH   5  10
BRANCH   4  15
ATOM     15  N   LIG    1       -3.589   3.368   0.025  0.00  0.00    -0.356 N 
ATOM     16  H   LIG    1       -4.349   3.970   0.028  0.00  0.00    +0.142 HD
ATOM     17  H   LIG    1       -3.730   2.408   0.021  0.00  0.00    +0.142 HD
ENDBRANCH   4  15
TORSDOF 2
