REMARK  Name = ZINC11909395
REMARK                            x       y       z     vdW  Elec       q    Type
REMARK                         _______ _______ _______ _____ _____    ______ ____
ROOT
ATOM      1  C   LIG    1       -4.278  -4.446   1.442  0.00  0.00    +0.000 C 
ENDROOT
BRANCH   1   2
ATOM      2  C   LIG    1       -4.059  -3.831   0.059  0.00  0.00    -0.077 C 
BRANCH   2   6
ATOM      3  N   LIG    1       -1.199  -0.722   0.009  0.00  0.00    -0.331 N 
ATOM      4  C   LIG    1       -1.329  -1.519   1.237  0.00  0.00    +0.086 C 
ATOM      5  C   LIG    1       -2.687  -2.225   1.243  0.00  0.00    -0.060 C 
ATOM      6  N   LIG    1       -2.777  -3.095   0.051  0.00  0.00    +0.382 N 
ATOM      7  H   LIG    1       -2.004  -3.771   0.073  0.00  0.00    -0.082 HD
ATOM      8  C   LIG    1       -2.668  -2.281  -1.177  0.00  0.00    -0.060 C 
ATOM      9  C   LIG    1       -1.310  -1.575  -1.183  0.00  0.00    +0.086 C 
BRANCH   3  15
ATOM     10  C   LIG    1       -0.017   1.389   0.010  0.00  0.00    +0.141 A 
ATOM     11  C   LIG    1        1.175   2.094   0.002  0.00  0.00    +0.047 A 
ATOM     12  C   LIG    1        2.380   1.416  -0.013  0.00  0.00    +0.004 A 
ATOM     13  C   LIG    1        2.400   0.034  -0.021  0.00  0.00    +0.002 A 
ATOM     14  C   LIG    1        1.215  -0.677  -0.013  0.00  0.00    +0.027 A 
ATOM     15  C   LIG    1        0.002  -0.004   0.002  0.00  0.00    +0.072 A 
BRANCH  10  17
ATOM     16  C   LIG    1       -1.145   3.482   0.026  0.00  0.00    +0.277 C 
ATOM     17  O   LIG    1       -1.203   2.055   0.019  0.00  0.00    -0.493 OA
ENDBRANCH  10  17
ENDBRANCH   3  15
ENDBRANCH   2   6
ENDBRANCH   1   2
BRANCH   1  18
ATOM     18  C   LIG    1       -5.591  -5.231   1.450  0.00  0.00    +0.102 C 
BRANCH  18  19
ATOM     19  N   LIG    1       -5.800  -5.819   2.776  0.00  0.00    -0.315 N 
ATOM     20  H   LIG    1       -5.147  -5.676   3.478  0.00  0.00    +0.149 HD
ATOM     21  C   LIG    1       -6.900  -6.559   3.018  0.00  0.00    +0.217 C 
ATOM     22  O   LIG    1       -7.717  -6.738   2.139  0.00  0.00    -0.275 OA
BRANCH  21  23
ATOM     23  C   LIG    1       -7.116  -7.164   4.381  0.00  0.00    +0.131 C 
BRANCH  23  24
ATOM     24  C   LIG    1       -8.409  -7.938   4.389  0.00  0.00    -0.031 A 
ATOM     25  C   LIG    1       -9.555  -7.349   4.828  0.00  0.00    +0.005 A 
ATOM     26  C   LIG    1      -10.761  -8.048   4.843  0.00  0.00    +0.001 A 
ATOM     27  C   LIG    1      -10.827  -9.340   4.418  0.00  0.00    +0.008 A 
ATOM     28  C   LIG    1       -9.665  -9.980   3.957  0.00  0.00    -0.018 A 
ATOM     29  C   LIG    1       -9.694 -11.313   3.510  0.00  0.00    +0.008 A 
ATOM     30  C   LIG    1       -8.548 -11.901   3.071  0.00  0.00    +0.001 A 
ATOM     31  C   LIG    1       -7.342 -11.201   3.056  0.00  0.00    +0.001 A 
ATOM     32  C   LIG    1       -7.276  -9.910   3.480  0.00  0.00    +0.009 A 
ATOM     33  C   LIG    1       -8.440  -9.268   3.937  0.00  0.00    -0.014 A 
ENDBRANCH  23  24
ENDBRANCH  21  23
ENDBRANCH  18  19
ENDBRANCH   1  18
TORSDOF 8
