REMARK  Name = ZINC09610931
REMARK                            x       y       z     vdW  Elec       q    Type
REMARK                         _______ _______ _______ _____ _____    ______ ____
ROOT
ATOM      1  N   LIG    1       -1.071  -2.140  -0.684  0.00  0.00    -0.324 N 
ATOM      2  C   LIG    1       -0.323  -2.452  -1.909  0.00  0.00    +0.124 C 
ATOM      3  C   LIG    1        0.237  -3.876  -1.792  0.00  0.00    +0.127 C 
ATOM      4  N   LIG    1       -0.849  -4.775  -1.378  0.00  0.00    -0.293 N 
ATOM      5  C   LIG    1       -1.153  -5.866  -2.108  0.00  0.00    +0.264 C 
ATOM      6  O   LIG    1       -2.052  -6.604  -1.753  0.00  0.00    -0.268 OA
ATOM      7  C   LIG    1       -1.598  -4.462  -0.152  0.00  0.00    +0.127 C 
ATOM      8  C   LIG    1       -2.154  -3.042  -0.266  0.00  0.00    +0.124 C 
ENDROOT
BRANCH   1  14
ATOM      9  C   LIG    1       -1.386   0.207  -0.188  0.00  0.00    +0.141 A 
ATOM     10  C   LIG    1       -1.074   1.323   0.571  0.00  0.00    +0.047 A 
ATOM     11  C   LIG    1       -0.135   1.233   1.581  0.00  0.00    +0.004 A 
ATOM     12  C   LIG    1        0.496   0.030   1.838  0.00  0.00    +0.002 A 
ATOM     13  C   LIG    1        0.190  -1.089   1.087  0.00  0.00    +0.027 A 
ATOM     14  C   LIG    1       -0.756  -1.007   0.075  0.00  0.00    +0.072 A 
BRANCH   9  16
ATOM     15  C   LIG    1       -2.916   1.571  -1.394  0.00  0.00    +0.277 C 
ATOM     16  O   LIG    1       -2.310   0.295  -1.182  0.00  0.00    -0.493 OA
ENDBRANCH   9  16
ENDBRANCH   1  14
BRANCH   5  17
ATOM     17  C   LIG    1       -0.398  -6.163  -3.336  0.00  0.00    +0.121 A 
ATOM     18  C   LIG    1       -0.869  -6.815  -4.460  0.00  0.00    +0.062 A 
ATOM     19  C   LIG    1        0.219  -6.854  -5.350  0.00  0.00    +0.093 A 
ATOM     20  N   LIG    1        1.236  -6.261  -4.761  0.00  0.00    -0.173 NA
ATOM     21  N   LIG    1        0.906  -5.844  -3.592  0.00  0.00    -0.272 N 
ATOM     22  H   LIG    1        1.495  -5.375  -2.981  0.00  0.00    +0.189 HD
BRANCH  19  23
ATOM     23  C   LIG    1        0.221  -7.456  -6.707  0.00  0.00    +0.002 A 
ATOM     24  C   LIG    1       -0.934  -8.050  -7.210  0.00  0.00    +0.010 A 
ATOM     25  C   LIG    1       -0.927  -8.608  -8.473  0.00  0.00    +0.001 A 
ATOM     26  C   LIG    1        0.224  -8.577  -9.238  0.00  0.00    +0.000 A 
ATOM     27  C   LIG    1        1.374  -7.989  -8.744  0.00  0.00    +0.001 A 
ATOM     28  C   LIG    1        1.377  -7.423  -7.485  0.00  0.00    +0.010 A 
ENDBRANCH  19  23
ENDBRANCH   5  17
TORSDOF 4
