REMARK  Name = ZINC12504504
REMARK                            x       y       z     vdW  Elec       q    Type
REMARK                         _______ _______ _______ _____ _____    ______ ____
ROOT
ATOM      1  C   LIG    1       -0.047   1.422  -0.022  0.00  0.00    +0.010 A 
ATOM      2  C   LIG    1        1.097   2.150   0.017  0.00  0.00    +0.030 A 
ATOM      3  C   LIG    1        2.342   1.504   0.134  0.00  0.00    +0.089 A 
ATOM      4  C   LIG    1        2.394   0.088   0.211  0.00  0.00    +0.090 A 
ATOM      5  N   LIG    1        3.580  -0.524   0.323  0.00  0.00    -0.252 NA
ATOM      6  C   LIG    1        4.681   0.190   0.361  0.00  0.00    +0.131 A 
ATOM      7  C   LIG    1        4.629   1.584   0.285  0.00  0.00    +0.131 A 
ATOM      8  C   LIG    1        1.203  -0.651   0.169  0.00  0.00    +0.037 A 
ATOM      9  N   LIG    1        3.478   2.208   0.174  0.00  0.00    -0.252 NA
ATOM     10  C   LIG    1       -0.010   0.015   0.054  0.00  0.00    -0.022 A 
ENDROOT
BRANCH  10  11
ATOM     11  C   LIG    1       -1.263  -0.752   0.011  0.00  0.00    +0.028 C 
ATOM     12  C   LIG    1       -2.393  -0.177  -0.471  0.00  0.00    +0.080 C 
ATOM     13  C   LIG    1       -3.783  -0.684  -0.470  0.00  0.00    +0.258 C 
ATOM     14  N   LIG    1       -4.698   0.099  -1.016  0.00  0.00    -0.243 N 
ATOM     15  H   LIG    1       -5.622  -0.195  -1.036  0.00  0.00    +0.159 HD
ATOM     16  C   LIG    1       -4.376   1.297  -1.545  0.00  0.00    +0.283 C 
ATOM     17  O   LIG    1       -5.110   2.110  -2.073  0.00  0.00    -0.262 OA
ATOM     18  O   LIG    1       -4.069  -1.766   0.008  0.00  0.00    -0.269 OA
ATOM     19  S   LIG    1       -2.614   1.403  -1.276  0.00  0.00    -0.026 S 
ENDBRANCH  10  11
TORSDOF 1
