REMARK  Name = ZINC12428433
REMARK                            x       y       z     vdW  Elec       q    Type
REMARK                         _______ _______ _______ _____ _____    ______ ____
ROOT
ATOM      1  C   LIG    1       -1.259  -0.758   0.011  0.00  0.00    +0.012 C 
ATOM      2  C   LIG    1       -2.439  -0.100   0.026  0.00  0.00    +0.052 C 
ENDROOT
BRANCH   1   8
ATOM      3  C   LIG    1       -0.017   1.395   0.010  0.00  0.00    +0.012 A 
ATOM      4  C   LIG    1        1.167   2.100   0.002  0.00  0.00    +0.050 A 
ATOM      5  C   LIG    1        2.380   1.425  -0.013  0.00  0.00    +0.158 A 
ATOM      6  C   LIG    1        2.408   0.031  -0.021  0.00  0.00    +0.159 A 
ATOM      7  C   LIG    1        1.227  -0.683  -0.014  0.00  0.00    +0.057 A 
ATOM      8  C   LIG    1        0.002  -0.004   0.002  0.00  0.00    -0.021 A 
BRANCH   5   9
ATOM      9  O   LIG    1        3.544   2.125  -0.022  0.00  0.00    -0.503 OA
ATOM     10  H   LIG    1        3.890   2.324   0.859  0.00  0.00    +0.292 HD
ENDBRANCH   5   9
BRANCH   6  11
ATOM     11  O   LIG    1        3.599  -0.626  -0.037  0.00  0.00    -0.503 OA
ATOM     12  H   LIG    1        3.952  -0.820   0.842  0.00  0.00    +0.292 HD
ENDBRANCH   6  11
ENDBRANCH   1   8
BRANCH   2  13
ATOM     13  C   LIG    1       -3.694  -0.851   0.034  0.00  0.00    +0.190 C 
ATOM     14  O   LIG    1       -3.675  -2.069   0.028  0.00  0.00    -0.287 OA
BRANCH  13  15
ATOM     15  C   LIG    1       -4.982  -0.133   0.051  0.00  0.00    +0.063 A 
ATOM     16  C   LIG    1       -5.007   1.265   0.053  0.00  0.00    +0.019 A 
ATOM     17  C   LIG    1       -6.210   1.931   0.068  0.00  0.00    +0.046 A 
ATOM     18  C   LIG    1       -7.406   1.218   0.081  0.00  0.00    +0.120 A 
ATOM     19  C   LIG    1       -7.393  -0.169   0.079  0.00  0.00    +0.091 A 
ATOM     20  C   LIG    1       -6.188  -0.851   0.059  0.00  0.00    +0.131 A 
BRANCH  18  21
ATOM     21  O   LIG    1       -8.589   1.883   0.096  0.00  0.00    -0.507 OA
ATOM     22  H   LIG    1       -8.942   2.077  -0.782  0.00  0.00    +0.292 HD
ENDBRANCH  18  21
BRANCH  20  23
ATOM     23  O   LIG    1       -6.173  -2.207   0.052  0.00  0.00    -0.506 OA
ATOM     24  H   LIG    1       -6.160  -2.605   0.933  0.00  0.00    +0.292 HD
ENDBRANCH  20  23
ENDBRANCH  13  15
ENDBRANCH   2  13
TORSDOF 7
