REMARK  Name = ZINC08691187
REMARK                            x       y       z     vdW  Elec       q    Type
REMARK                         _______ _______ _______ _____ _____    ______ ____
ROOT
ATOM      1  C   LIG    1       -2.831  -2.558   0.000  0.00  0.00    +0.329 C 
ATOM      2  O   LIG    1       -3.331  -3.177  -0.909  0.00  0.00    -0.249 OA
ENDROOT
BRANCH   1   3
ATOM      3  C   LIG    1       -1.431  -2.019  -0.136  0.00  0.00    +0.193 C 
BRANCH   3   4
ATOM      4  N   LIG    1       -0.895  -2.377  -1.452  0.00  0.00    -0.228 N 
ATOM      5  C   LIG    1       -1.464  -1.982  -2.620  0.00  0.00    +0.227 C 
ATOM      6  C   LIG    1       -0.814  -2.794  -3.699  0.00  0.00    +0.091 C 
ATOM      7  C   LIG    1       -0.589  -2.146  -5.048  0.00  0.00    +0.040 C 
ATOM      8  C   LIG    1        0.374  -3.034  -5.808  0.00  0.00    -0.030 C 
ATOM      9  C   LIG    1        1.137  -3.928  -5.257  0.00  0.00    -0.030 C 
ATOM     10  C   LIG    1        1.197  -4.200  -3.768  0.00  0.00    +0.040 C 
ATOM     11  C   LIG    1        0.596  -3.010  -3.066  0.00  0.00    +0.091 C 
ATOM     12  O   LIG    1       -2.325  -1.141  -2.762  0.00  0.00    -0.275 OA
ATOM     13  C   LIG    1        0.222  -3.132  -1.621  0.00  0.00    +0.227 C 
ATOM     14  O   LIG    1        0.800  -3.777  -0.772  0.00  0.00    -0.275 OA
ENDBRANCH   3   4
BRANCH   3  15
ATOM     15  C   LIG    1       -1.453  -0.496   0.008  0.00  0.00    +0.037 C 
BRANCH  15  17
ATOM     16  C   LIG    1       -0.046   1.569   0.013  0.00  0.00    +0.007 C 
ATOM     17  C   LIG    1       -0.020   0.039  -0.005  0.00  0.00    -0.015 C 
ATOM     18  C   LIG    1        0.727  -0.473   1.229  0.00  0.00    +0.007 C 
ENDBRANCH  15  17
ENDBRANCH   3  15
ENDBRANCH   1   3
BRANCH   1  19
ATOM     19  O   LIG    1       -3.524  -2.349   1.131  0.00  0.00    -0.454 OA
BRANCH  19  20
ATOM     20  C   LIG    1       -4.846  -2.888   1.190  0.00  0.00    +0.328 C 
BRANCH  20  21
ATOM     21  C   LIG    1       -5.464  -2.556   2.525  0.00  0.00    +0.255 C 
ATOM     22  N   LIG    1       -6.716  -2.966   2.808  0.00  0.00    -0.280 N 
ATOM     23  H   LIG    1       -7.244  -3.417   2.130  0.00  0.00    +0.155 HD
ATOM     24  O   LIG    1       -4.834  -1.921   3.344  0.00  0.00    -0.272 OA
BRANCH  22  25
ATOM     25  C   LIG    1       -7.257  -2.739   4.080  0.00  0.00    +0.077 A 
ATOM     26  C   LIG    1       -6.929  -1.587   4.780  0.00  0.00    +0.047 A 
ATOM     27  C   LIG    1       -7.464  -1.366   6.036  0.00  0.00    +0.043 A 
ATOM     28 CL   LIG    1       -7.053   0.076   6.911  0.00  0.00    -0.083 Cl
ATOM     29  C   LIG    1       -8.325  -2.292   6.597  0.00  0.00    +0.024 A 
ATOM     30  C   LIG    1       -8.656  -3.442   5.905  0.00  0.00    +0.049 A 
ATOM     31  C   LIG    1       -8.129  -3.668   4.644  0.00  0.00    +0.141 A 
BRANCH  31  32
ATOM     32  O   LIG    1       -8.458  -4.796   3.960  0.00  0.00    -0.493 OA
ATOM     33  C   LIG    1       -9.357  -5.704   4.599  0.00  0.00    +0.277 C 
ENDBRANCH  31  32
ENDBRANCH  22  25
ENDBRANCH  20  21
ENDBRANCH  19  20
ENDBRANCH   1  19
TORSDOF 9
