REMARK  Name = ZINC08736102
REMARK                            x       y       z     vdW  Elec       q    Type
REMARK                         _______ _______ _______ _____ _____    ______ ____
ROOT
ATOM      1  C   LIG    1       -0.724   1.989   1.250  0.00  0.00    +0.222 C 
ATOM      2  N   LIG    1       -0.863   3.311   1.472  0.00  0.00    -0.279 N 
ATOM      3  H   LIG    1       -0.509   3.950   0.833  0.00  0.00    +0.155 HD
ATOM      4  O   LIG    1       -1.166   1.190   2.049  0.00  0.00    -0.275 OA
ENDROOT
BRANCH   2   5
ATOM      5  C   LIG    1       -1.512   3.758   2.613  0.00  0.00    +0.084 A 
ATOM      6  C   LIG    1       -1.746   5.067   3.015  0.00  0.00    +0.065 A 
ATOM      7  C   LIG    1       -2.457   5.247   4.259  0.00  0.00    +0.022 A 
ATOM      8  C   LIG    1       -2.820   4.136   4.925  0.00  0.00    +0.048 A 
ATOM      9  S   LIG    1       -2.220   2.821   3.885  0.00  0.00    -0.081 S 
BRANCH   6  10
ATOM     10  C   LIG    1       -1.298   6.211   2.214  0.00  0.00    +0.244 C 
ATOM     11  N   LIG    1       -1.543   7.467   2.636  0.00  0.00    -0.325 N 
ATOM     12  H   LIG    1       -1.246   8.223   2.106  0.00  0.00    +0.145 HD
ATOM     13  H   LIG    1       -2.016   7.615   3.470  0.00  0.00    +0.145 HD
ATOM     14  O   LIG    1       -0.704   6.025   1.168  0.00  0.00    -0.270 OA
ENDBRANCH   6  10
ENDBRANCH   2   5
BRANCH   1  15
ATOM     15  C   LIG    1       -0.018   1.503   0.010  0.00  0.00    +0.138 C 
BRANCH  15  18
ATOM     16  C   LIG    1       -0.675  -2.226  -0.409  0.00  0.00    +0.008 A 
ATOM     17  C   LIG    1       -0.906  -0.867  -0.516  0.00  0.00    +0.011 A 
ATOM     18  C   LIG    1        0.002  -0.004   0.002  0.00  0.00    -0.001 A 
ATOM     19  S   LIG    1        1.224  -1.116   0.678  0.00  0.00    -0.101 S 
ATOM     20  C   LIG    1        0.446  -2.655   0.219  0.00  0.00    +0.045 A 
ENDBRANCH  15  18
ENDBRANCH   1  15
TORSDOF 4
