REMARK  Name = ZINC12353762
REMARK                            x       y       z     vdW  Elec       q    Type
REMARK                         _______ _______ _______ _____ _____    ______ ____
ROOT
ATOM      1  C   LIG    1        2.253   4.154  -0.480  0.00  0.00    +0.207 C 
ATOM      2  C   LIG    1        3.505   3.657   0.233  0.00  0.00    +0.042 C 
ATOM      3  C   LIG    1        3.310   3.734   1.764  0.00  0.00    +0.008 C 
ATOM      4  C   LIG    1        4.281   2.671   2.321  0.00  0.00    +0.001 C 
ATOM      5  C   LIG    1        4.532   1.666   1.184  0.00  0.00    +0.009 C 
ATOM      6  C   LIG    1        3.705   2.152  -0.027  0.00  0.00    +0.030 C 
ATOM      7  C   LIG    1        2.385   1.425  -0.015  0.00  0.00    +0.001 A 
ATOM      8  C   LIG    1        2.401   0.038  -0.022  0.00  0.00    +0.053 A 
ATOM      9  C   LIG    1        1.216  -0.676  -0.014  0.00  0.00    +0.117 A 
ATOM     10  C   LIG    1        0.002  -0.004   0.002  0.00  0.00    +0.049 A 
ATOM     11  C   LIG    1       -0.017   1.375   0.010  0.00  0.00    +0.049 A 
ATOM     12  C   LIG    1        1.175   2.092   0.002  0.00  0.00    +0.125 A 
ATOM     13  O   LIG    1        1.114   3.451   0.014  0.00  0.00    -0.484 OA
ENDROOT
BRANCH   1  19
ATOM     14  C   LIG    1        1.530   6.065   0.966  0.00  0.00    +0.011 A 
ATOM     15  C   LIG    1        1.377   7.417   1.204  0.00  0.00    +0.046 A 
ATOM     16  C   LIG    1        1.768   8.338   0.244  0.00  0.00    +0.117 A 
ATOM     17  C   LIG    1        2.317   7.899  -0.952  0.00  0.00    +0.046 A 
ATOM     18  C   LIG    1        2.473   6.546  -1.184  0.00  0.00    +0.011 A 
ATOM     19  C   LIG    1        2.083   5.630  -0.225  0.00  0.00    -0.007 A 
BRANCH  16  20
ATOM     20  O   LIG    1        1.615   9.669   0.474  0.00  0.00    -0.507 OA
ATOM     21  H   LIG    1        0.763  10.023   0.182  0.00  0.00    +0.292 HD
ENDBRANCH  16  20
ENDBRANCH   1  19
BRANCH   9  22
ATOM     22  O   LIG    1        1.240  -2.036  -0.021  0.00  0.00    -0.507 OA
ATOM     23  H   LIG    1        1.238  -2.425  -0.906  0.00  0.00    +0.292 HD
ENDBRANCH   9  22
TORSDOF 3
