REMARK  Name = ZINC12321008
REMARK                            x       y       z     vdW  Elec       q    Type
REMARK                         _______ _______ _______ _____ _____    ______ ____
ROOT
ATOM      1  C   LIG    1        2.386  -3.486  -2.004  0.00  0.00    +0.034 C 
ATOM      2  C   LIG    1        2.589  -2.440  -0.906  0.00  0.00    +0.083 C 
ATOM      3  C   LIG    1        1.248  -1.917  -0.448  0.00  0.00    +0.115 C 
ATOM      4  C   LIG    1        0.159  -2.707  -0.472  0.00  0.00    +0.046 C 
ATOM      5  C   LIG    1        0.228  -4.036  -0.934  0.00  0.00    +0.164 C 
ATOM      6  O   LIG    1       -0.772  -4.724  -0.922  0.00  0.00    -0.292 OA
ATOM      7  C   LIG    1       -1.179  -2.186  -0.004  0.00  0.00    +0.101 C 
ATOM      8  C   LIG    1       -1.171  -0.683   0.015  0.00  0.00    +0.098 C 
ATOM      9  C   LIG    1        0.002  -0.004   0.002  0.00  0.00    +0.198 C 
ATOM     10  O   LIG    1        1.181  -0.645  -0.013  0.00  0.00    -0.445 OA
ATOM     11  C   LIG    1        1.520  -4.618  -1.441  0.00  0.00    +0.088 C 
ENDROOT
BRANCH   1  15
ATOM     12  C   LIG    1        6.173  -5.045  -3.219  0.00  0.00    +0.000 A 
ATOM     13  C   LIG    1        5.361  -4.408  -4.138  0.00  0.00    +0.000 A 
ATOM     14  C   LIG    1        4.135  -3.903  -3.745  0.00  0.00    +0.004 A 
ATOM     15  C   LIG    1        3.722  -4.036  -2.432  0.00  0.00    -0.043 A 
ATOM     16  C   LIG    1        4.537  -4.668  -1.512  0.00  0.00    +0.004 A 
ATOM     17  C   LIG    1        5.760  -5.177  -1.906  0.00  0.00    +0.000 A 
ENDBRANCH   1  15
BRANCH   7  18
ATOM     18  C   LIG    1       -1.455  -2.698   1.386  0.00  0.00    -0.035 A 
ATOM     19  C   LIG    1       -0.590  -2.392   2.420  0.00  0.00    +0.004 A 
ATOM     20  C   LIG    1       -0.847  -2.857   3.696  0.00  0.00    +0.000 A 
ATOM     21  C   LIG    1       -1.963  -3.636   3.937  0.00  0.00    +0.000 A 
ATOM     22  C   LIG    1       -2.825  -3.947   2.902  0.00  0.00    +0.000 A 
ATOM     23  C   LIG    1       -2.571  -3.478   1.627  0.00  0.00    +0.004 A 
ENDBRANCH   7  18
BRANCH   9  24
ATOM     24  N   LIG    1       -0.017   1.369   0.010  0.00  0.00    -0.328 N 
ATOM     25  H   LIG    1       -0.976   1.906   0.026  0.00  0.00    +0.145 HD
ATOM     26  H   LIG    1        0.928   1.931  -0.001  0.00  0.00    +0.145 HD
ENDBRANCH   9  24
BRANCH   8  27
ATOM     27  C   LIG    1       -2.409   0.035   0.042  0.00  0.00    +0.101 C 
ATOM     28  N   LIG    1       -3.392   0.605   0.064  0.00  0.00    -0.191 NA
ENDBRANCH   8  27
TORSDOF 4
