REMARK  Name = ZINC12068672
REMARK                            x       y       z     vdW  Elec       q    Type
REMARK                         _______ _______ _______ _____ _____    ______ ____
ROOT
ATOM      1  C   LIG    1        6.459  -4.965  -2.004  0.00  0.00    -0.077 C 
ENDROOT
BRANCH   1   2
ATOM      2  N   LIG    1        7.896  -5.262  -2.073  0.00  0.00    +0.382 N 
ATOM      3  H   LIG    1        8.417  -4.398  -2.078  0.00  0.00    -0.082 HD
ATOM      4  C   LIG    1        8.181  -6.007  -3.306  0.00  0.00    -0.060 C 
ATOM      5  C   LIG    1        9.693  -6.218  -3.436  0.00  0.00    +0.086 C 
ATOM      6  N   LIG    1       10.182  -6.865  -2.209  0.00  0.00    -0.331 N 
ATOM      7  C   LIG    1        9.804  -6.274  -0.916  0.00  0.00    +0.086 C 
ATOM      8  C   LIG    1        8.286  -6.061  -0.904  0.00  0.00    -0.060 C 
BRANCH   6   9
ATOM      9  C   LIG    1       10.984  -8.010  -2.269  0.00  0.00    +0.072 A 
ATOM     10  C   LIG    1       12.365  -7.890  -2.321  0.00  0.00    +0.027 A 
ATOM     11  C   LIG    1       13.155  -9.023  -2.380  0.00  0.00    +0.002 A 
ATOM     12  C   LIG    1       12.572 -10.277  -2.388  0.00  0.00    +0.004 A 
ATOM     13  C   LIG    1       11.196 -10.404  -2.337  0.00  0.00    +0.047 A 
ATOM     14  C   LIG    1       10.398  -9.274  -2.272  0.00  0.00    +0.141 A 
BRANCH  14  15
ATOM     15  O   LIG    1        9.044  -9.398  -2.216  0.00  0.00    -0.493 OA
ATOM     16  C   LIG    1        8.514 -10.725  -2.223  0.00  0.00    +0.277 C 
ENDBRANCH  14  15
ENDBRANCH   6   9
ENDBRANCH   1   2
BRANCH   1  17
ATOM     17  C   LIG    1        6.075  -4.030  -3.152  0.00  0.00    -0.002 C 
BRANCH  17  18
ATOM     18  C   LIG    1        4.579  -3.721  -3.080  0.00  0.00    +0.104 C 
BRANCH  18  19
ATOM     19  N   LIG    1        4.211  -2.826  -4.180  0.00  0.00    -0.190 NA
ATOM     20  H   LIG    1        4.901  -2.356  -4.674  0.00  0.00    +0.148 HD
BRANCH  19  21
ATOM     21  S   LIG    1        2.618  -2.616  -4.580  0.00  0.00    +0.058 S 
ATOM     22  O   LIG    1        2.587  -1.683  -5.651  0.00  0.00    -0.153 OA
ATOM     23  O   LIG    1        2.051  -3.915  -4.685  0.00  0.00    -0.153 OA
BRANCH  21  27
ATOM     24  C   LIG    1        0.606  -0.607  -1.056  0.00  0.00    +0.120 A 
ATOM     25  C   LIG    1        1.173   0.161  -2.062  0.00  0.00    +0.047 A 
ATOM     26  C   LIG    1        1.786  -0.455  -3.136  0.00  0.00    +0.032 A 
ATOM     27  C   LIG    1        1.835  -1.835  -3.209  0.00  0.00    +0.105 A 
ATOM     28  C   LIG    1        1.270  -2.602  -2.207  0.00  0.00    +0.032 A 
ATOM     29  C   LIG    1        0.661  -1.992  -1.128  0.00  0.00    +0.047 A 
BRANCH  24  31
ATOM     30  C   LIG    1       -0.017   1.425   0.010  0.00  0.00    +0.277 C 
ATOM     31  O   LIG    1        0.002  -0.004   0.002  0.00  0.00    -0.495 OA
ENDBRANCH  24  31
ENDBRANCH  21  27
ENDBRANCH  19  21
ENDBRANCH  18  19
ENDBRANCH  17  18
ENDBRANCH   1  17
TORSDOF 9
