REMARK  Name = ZINC10146664
REMARK                            x       y       z     vdW  Elec       q    Type
REMARK                         _______ _______ _______ _____ _____    ______ ____
ROOT
ATOM      1  C   LIG    1        3.449   2.410  -0.019  0.00  0.00    -0.021 A 
ATOM      2  C   LIG    1        2.836   3.603  -0.006  0.00  0.00    +0.087 A 
ATOM      3  N   LIG    1        1.479   3.430   0.006  0.00  0.00    -0.360 N 
ATOM      4  C   LIG    1        1.178   2.084   0.002  0.00  0.00    +0.047 A 
ATOM      5  C   LIG    1       -0.017   1.373   0.010  0.00  0.00    +0.030 A 
ATOM      6  C   LIG    1        0.002  -0.004   0.002  0.00  0.00    +0.047 A 
ATOM      7  C   LIG    1        1.210  -0.697  -0.013  0.00  0.00    +0.121 A 
ATOM      8  C   LIG    1        2.407  -0.009  -0.021  0.00  0.00    +0.056 A 
ATOM      9  H   LIG    1        0.825   4.147   0.017  0.00  0.00    +0.165 HD
ATOM     10  C   LIG    1        2.400   1.388  -0.014  0.00  0.00    +0.006 A 
ENDROOT
BRANCH   7  11
ATOM     11  O   LIG    1        1.210  -2.057  -0.021  0.00  0.00    -0.495 OA
ATOM     12  C   LIG    1       -0.063  -2.706  -0.012  0.00  0.00    +0.277 C 
ENDBRANCH   7  11
BRANCH   1  13
ATOM     13  C   LIG    1        4.937   2.167  -0.035  0.00  0.00    +0.056 C 
BRANCH  13  14
ATOM     14  C   LIG    1        5.405   1.968  -1.478  0.00  0.00    +0.109 C 
BRANCH  14  16
ATOM     15  C   LIG    1        7.488   1.529  -2.664  0.00  0.00    +0.213 C 
ATOM     16  N   LIG    1        6.851   1.732  -1.494  0.00  0.00    -0.315 N 
ATOM     17  H   LIG    1        7.350   1.722  -0.662  0.00  0.00    +0.149 HD
ATOM     18  O   LIG    1        6.864   1.542  -3.704  0.00  0.00    -0.276 OA
BRANCH  15  19
ATOM     19  C   LIG    1        8.975   1.286  -2.680  0.00  0.00    +0.095 C 
BRANCH  19  21
ATOM     20  C   LIG    1       10.954   0.841  -4.139  0.00  0.00    +0.004 C 
ATOM     21  C   LIG    1        9.444   1.088  -4.123  0.00  0.00    +0.006 C 
ENDBRANCH  19  21
ENDBRANCH  15  19
ENDBRANCH  14  16
ENDBRANCH  13  14
ENDBRANCH   1  13
TORSDOF 6
