REMARK  Name = ZINC12523427
REMARK                            x       y       z     vdW  Elec       q    Type
REMARK                         _______ _______ _______ _____ _____    ______ ____
ROOT
ATOM      1  N   LIG    1        3.620  -0.649  -0.036  0.00  0.00    -0.327 N 
ATOM      2  C   LIG    1        4.891   0.083  -0.149  0.00  0.00    +0.120 C 
ATOM      3  C   LIG    1        5.711  -0.538  -1.285  0.00  0.00    +0.103 C 
ATOM      4  N   LIG    1        5.844  -1.983  -1.055  0.00  0.00    -0.295 NA
ATOM      5  C   LIG    1        4.536  -2.651  -1.085  0.00  0.00    +0.103 C 
ATOM      6  C   LIG    1        3.668  -2.116   0.065  0.00  0.00    +0.120 C 
ENDROOT
BRANCH   1  10
ATOM      7  C   LIG    1       -0.017   1.379   0.011  0.00  0.00    +0.000 A 
ATOM      8  C   LIG    1        0.002  -0.004  -0.011  0.00  0.00    +0.002 A 
ATOM      9  C   LIG    1        1.206  -0.680  -0.027  0.00  0.00    +0.023 A 
ATOM     10  C   LIG    1        2.400   0.031  -0.021  0.00  0.00    +0.030 A 
ATOM     11  C   LIG    1        2.377   1.420   0.002  0.00  0.00    +0.023 A 
ATOM     12  C   LIG    1        1.170   2.089   0.018  0.00  0.00    +0.002 A 
ENDBRANCH   1  10
BRANCH   4  13
ATOM     13  C   LIG    1        6.766  -2.588  -2.026  0.00  0.00    +0.119 C 
BRANCH  13  14
ATOM     14  C   LIG    1        7.068  -4.006  -1.615  0.00  0.00    -0.033 A 
ATOM     15  C   LIG    1        8.137  -4.269  -0.778  0.00  0.00    +0.007 A 
ATOM     16  C   LIG    1        8.417  -5.567  -0.400  0.00  0.00    +0.028 A 
ATOM     17  C   LIG    1        7.625  -6.609  -0.862  0.00  0.00    +0.065 A 
ATOM     18  C   LIG    1        6.553  -6.343  -1.702  0.00  0.00    +0.028 A 
ATOM     19  C   LIG    1        6.274  -5.041  -2.072  0.00  0.00    +0.007 A 
BRANCH  17  20
ATOM     20  N   LIG    1        7.907  -7.928  -0.481  0.00  0.00    -0.240 N 
ATOM     21  C   LIG    1        7.222  -9.031  -0.861  0.00  0.00    +0.114 A 
ATOM     22  C   LIG    1        7.811 -10.102  -0.280  0.00  0.00    +0.041 A 
ATOM     23  C   LIG    1        8.891  -9.640   0.481  0.00  0.00    +0.135 A 
ATOM     24  N   LIG    1        8.953  -8.339   0.357  0.00  0.00    -0.175 NA
ENDBRANCH  17  20
ENDBRANCH  13  14
ENDBRANCH   4  13
TORSDOF 4
