REMARK  Name = ZINC12466745
REMARK                            x       y       z     vdW  Elec       q    Type
REMARK                         _______ _______ _______ _____ _____    ______ ____
ROOT
ATOM      1  C   LIG    1       -2.647   0.569   3.796  0.00  0.00    +0.162 C 
ENDROOT
BRANCH   1   7
ATOM      2  C   LIG    1        0.938  -1.770   0.161  0.00  0.00    +0.007 C 
ATOM      3  C   LIG    1        0.209  -2.648   1.180  0.00  0.00    -0.010 C 
ATOM      4  C   LIG    1       -1.267  -2.245   1.236  0.00  0.00    +0.022 C 
ATOM      5  C   LIG    1       -1.374  -0.766   1.621  0.00  0.00    +0.109 C 
ATOM      6  N   LIG    1       -0.642  -0.550   2.876  0.00  0.00    -0.287 N 
ATOM      7  C   LIG    1       -1.244   0.036   3.930  0.00  0.00    +0.235 C 
ATOM      8  O   LIG    1       -0.657   0.135   4.987  0.00  0.00    -0.274 OA
ATOM      9  C   LIG    1        0.759  -0.984   2.961  0.00  0.00    +0.185 C 
ATOM     10  C   LIG    1        0.843  -2.460   2.561  0.00  0.00    +0.037 C 
BRANCH   9  11
ATOM     11  C   LIG    1        1.257  -0.811   4.372  0.00  0.00    +0.325 C 
ATOM     12  O   LIG    1        0.640  -1.303   5.301  0.00  0.00    -0.249 OA
BRANCH  11  13
ATOM     13  O   LIG    1        2.278  -0.179   4.585  0.00  0.00    -0.479 OA
ATOM     14  H   LIG    1        2.753   0.199   3.872  0.00  0.00    +0.295 HD
ENDBRANCH  11  13
ENDBRANCH   9  11
ENDBRANCH   1   7
BRANCH   1  15
ATOM     15  N   LIG    1       -3.220   0.779   5.128  0.00  0.00    -0.178 NA
ATOM     16  H   LIG    1       -3.063   1.613   5.597  0.00  0.00    +0.149 HD
BRANCH  15  17
ATOM     17  S   LIG    1       -4.134  -0.409   5.833  0.00  0.00    +0.061 S 
ATOM     18  O   LIG    1       -4.568   0.103   7.086  0.00  0.00    -0.153 OA
ATOM     19  O   LIG    1       -3.391  -1.615   5.719  0.00  0.00    -0.153 OA
BRANCH  17  20
ATOM     20  C   LIG    1       -5.578  -0.611   4.844  0.00  0.00    +0.126 A 
ATOM     21  C   LIG    1       -5.774  -1.783   4.141  0.00  0.00    +0.030 A 
ATOM     22  C   LIG    1       -6.908  -1.940   3.366  0.00  0.00    +0.002 A 
ATOM     23  C   LIG    1       -7.846  -0.928   3.294  0.00  0.00    +0.005 A 
ATOM     24  C   LIG    1       -7.657   0.250   3.996  0.00  0.00    -0.024 A 
ATOM     25  C   LIG    1       -8.701   1.331   3.900  0.00  0.00    +0.041 C 
ATOM     26  C   LIG    1       -8.120   2.678   4.311  0.00  0.00    +0.007 C 
ATOM     27  C   LIG    1       -9.240   3.714   4.424  0.00  0.00    +0.009 C 
ATOM     28  C   LIG    1       -7.416   2.531   5.667  0.00  0.00    +0.105 C 
ATOM     29  N   LIG    1       -6.303   1.588   5.495  0.00  0.00    -0.342 N 
ATOM     30  H   LIG    1       -5.431   1.780   5.874  0.00  0.00    +0.146 HD
ATOM     31  C   LIG    1       -6.522   0.407   4.777  0.00  0.00    +0.057 A 
ENDBRANCH  17  20
ENDBRANCH  15  17
ENDBRANCH   1  15
BRANCH   1  32
ATOM     32  C   LIG    1       -2.618   1.897   3.038  0.00  0.00    +0.033 C 
BRANCH  32  33
ATOM     33  C   LIG    1       -4.051   2.366   2.775  0.00  0.00    +0.039 C 
BRANCH  33  34
ATOM     34  C   LIG    1       -4.022   3.695   2.017  0.00  0.00    +0.196 C 
BRANCH  34  35
ATOM     35  N   LIG    1       -5.393   4.143   1.764  0.00  0.00    -0.279 N 
ATOM     36  H   LIG    1       -6.143   3.608   2.071  0.00  0.00    +0.258 HD
ATOM     37  C   LIG    1       -5.607   5.260   1.128  0.00  0.00    +0.341 C 
BRANCH  37  38
ATOM     38  N   LIG    1       -6.894   5.681   0.891  0.00  0.00    -0.292 N 
ATOM     39  H   LIG    1       -7.053   6.512   0.417  0.00  0.00    +0.255 HD
ATOM     40  H   LIG    1       -7.643   5.146   1.197  0.00  0.00    +0.255 HD
ENDBRANCH  37  38
BRANCH  37  41
ATOM     41  N   LIG    1       -4.545   6.018   0.693  0.00  0.00    -0.292 N 
ATOM     42  H   LIG    1       -4.704   6.849   0.220  0.00  0.00    +0.255 HD
ATOM     43  H   LIG    1       -3.637   5.721   0.861  0.00  0.00    +0.255 HD
ENDBRANCH  37  41
ENDBRANCH  34  35
ENDBRANCH  33  34
ENDBRANCH  32  33
ENDBRANCH   1  32
TORSDOF 12
