REMARK  Name = ZINC12407068
REMARK                            x       y       z     vdW  Elec       q    Type
REMARK                         _______ _______ _______ _____ _____    ______ ____
ROOT
ATOM      1  C   LIG    1        3.647   1.734  -0.024  0.00  0.00    +0.028 C 
ATOM      2  C   LIG    1        2.418   1.370  -0.466  0.00  0.00    +0.077 C 
ATOM      3  C   LIG    1        1.155   2.138  -0.476  0.00  0.00    +0.258 C 
ATOM      4  N   LIG    1        0.094   1.525  -0.974  0.00  0.00    -0.258 N 
ATOM      5  C   LIG    1       -1.187   2.235  -1.019  0.00  0.00    +0.139 C 
ATOM      6  C   LIG    1        0.165   0.264  -1.446  0.00  0.00    +0.120 C 
ATOM      7  S   LIG    1       -1.085  -0.690  -2.123  0.00  0.00    -0.027 S 
ATOM      8  O   LIG    1        1.094   3.276  -0.049  0.00  0.00    -0.269 OA
ATOM      9  S   LIG    1        1.879  -0.171  -1.196  0.00  0.00    -0.061 S 
ENDROOT
BRANCH   1  16
ATOM     10  C   LIG    1        6.398   2.615   0.148  0.00  0.00    +0.044 C 
ATOM     11  C   LIG    1        6.059   1.147   0.142  0.00  0.00    -0.043 A 
ATOM     12  C   LIG    1        7.062   0.205   0.223  0.00  0.00    +0.004 A 
ATOM     13  C   LIG    1        6.753  -1.144   0.211  0.00  0.00    +0.000 A 
ATOM     14  C   LIG    1        5.435  -1.559   0.123  0.00  0.00    +0.001 A 
ATOM     15  C   LIG    1        4.420  -0.630   0.046  0.00  0.00    +0.008 A 
ATOM     16  C   LIG    1        4.724   0.736   0.058  0.00  0.00    -0.021 A 
ENDBRANCH   1  16
TORSDOF 1
