REMARK  Name = ZINC08730641
REMARK                            x       y       z     vdW  Elec       q    Type
REMARK                         _______ _______ _______ _____ _____    ______ ____
ROOT
ATOM      1  C   LIG    1        0.192   0.035  -0.237  0.00  0.00    +0.122 A 
ATOM      2  C   LIG    1        1.471  -0.409  -0.585  0.00  0.00    +0.046 A 
ATOM      3  C   LIG    1        1.710  -1.724  -0.838  0.00  0.00    +0.012 A 
ATOM      4  C   LIG    1        0.659  -2.653  -0.749  0.00  0.00    -0.018 A 
ATOM      5  C   LIG    1        0.872  -4.019  -1.003  0.00  0.00    +0.008 A 
ATOM      6  C   LIG    1       -0.169  -4.892  -0.908  0.00  0.00    +0.001 A 
ATOM      7  C   LIG    1       -1.445  -4.452  -0.561  0.00  0.00    +0.001 A 
ATOM      8  C   LIG    1       -1.688  -3.137  -0.308  0.00  0.00    +0.008 A 
ATOM      9  C   LIG    1       -0.638  -2.206  -0.397  0.00  0.00    -0.014 A 
ATOM     10  C   LIG    1       -0.851  -0.842  -0.137  0.00  0.00    +0.054 A 
ENDROOT
BRANCH   1  11
ATOM     11  O   LIG    1       -0.016   1.355   0.009  0.00  0.00    -0.478 OA
BRANCH  11  12
ATOM     12  C   LIG    1        1.133   2.203   0.011  0.00  0.00    +0.281 C 
BRANCH  12  13
ATOM     13  C   LIG    1        1.449   2.623  -1.402  0.00  0.00    +0.346 C 
ATOM     14  O   LIG    1        0.710   2.310  -2.305  0.00  0.00    -0.247 OA
BRANCH  13  15
ATOM     15  O   LIG    1        2.552   3.344  -1.657  0.00  0.00    -0.478 OA
ATOM     16  H   LIG    1        3.126   3.587  -0.956  0.00  0.00    +0.295 HD
ENDBRANCH  13  15
ENDBRANCH  12  13
BRANCH  12  17
ATOM     17  C   LIG    1        0.851   3.444   0.860  0.00  0.00    +0.056 C 
BRANCH  17  19
ATOM     18  C   LIG    1        0.370   4.269   3.169  0.00  0.00    +0.004 C 
ATOM     19  C   LIG    1        0.652   3.029   2.319  0.00  0.00    +0.001 C 
ENDBRANCH  17  19
ENDBRANCH  12  17
ENDBRANCH  11  12
ENDBRANCH   1  11
TORSDOF 6
