REMARK  Name = ZINC12321009
REMARK                            x       y       z     vdW  Elec       q    Type
REMARK                         _______ _______ _______ _____ _____    ______ ____
ROOT
ATOM      1  C   LIG    1        2.451   3.937   0.000  0.00  0.00    +0.034 C 
ATOM      2  C   LIG    1        2.501   4.844  -1.230  0.00  0.00    +0.083 C 
ATOM      3  C   LIG    1        3.781   5.648  -1.217  0.00  0.00    +0.115 C 
ATOM      4  C   LIG    1        4.352   6.010  -0.054  0.00  0.00    +0.046 C 
ATOM      5  C   LIG    1        3.789   5.643   1.184  0.00  0.00    +0.164 C 
ATOM      6  O   LIG    1        4.324   6.003   2.213  0.00  0.00    -0.292 OA
ATOM      7  C   LIG    1        5.623   6.825  -0.043  0.00  0.00    +0.101 C 
ATOM      8  C   LIG    1        6.308   6.730  -1.377  0.00  0.00    +0.098 C 
ATOM      9  C   LIG    1        5.622   6.318  -2.471  0.00  0.00    +0.198 C 
ATOM     10  O   LIG    1        4.322   5.991  -2.400  0.00  0.00    -0.445 OA
ATOM     11  C   LIG    1        2.536   4.813   1.254  0.00  0.00    +0.088 C 
ENDROOT
BRANCH   1  15
ATOM     12  C   LIG    1       -1.219   1.751   0.017  0.00  0.00    +0.000 A 
ATOM     13  C   LIG    1       -0.013   1.076   0.008  0.00  0.00    +0.000 A 
ATOM     14  C   LIG    1        1.175   1.783   0.000  0.00  0.00    +0.004 A 
ATOM     15  C   LIG    1        1.156   3.165   0.008  0.00  0.00    -0.043 A 
ATOM     16  C   LIG    1       -0.050   3.840   0.022  0.00  0.00    +0.004 A 
ATOM     17  C   LIG    1       -1.238   3.133   0.029  0.00  0.00    +0.000 A 
ENDBRANCH   1  15
BRANCH   7  18
ATOM     18  C   LIG    1        5.289   8.266   0.245  0.00  0.00    -0.035 A 
ATOM     19  C   LIG    1        4.455   8.966  -0.607  0.00  0.00    +0.004 A 
ATOM     20  C   LIG    1        4.146  10.286  -0.341  0.00  0.00    +0.000 A 
ATOM     21  C   LIG    1        4.678  10.911   0.771  0.00  0.00    +0.000 A 
ATOM     22  C   LIG    1        5.517  10.213   1.620  0.00  0.00    +0.000 A 
ATOM     23  C   LIG    1        5.822   8.890   1.357  0.00  0.00    +0.004 A 
ENDBRANCH   7  18
BRANCH   9  24
ATOM     24  N   LIG    1        6.271   6.234  -3.678  0.00  0.00    -0.328 N 
ATOM     25  H   LIG    1        7.336   6.498  -3.750  0.00  0.00    +0.145 HD
ATOM     26  H   LIG    1        5.726   5.901  -4.574  0.00  0.00    +0.145 HD
ENDBRANCH   9  24
BRANCH   8  27
ATOM     27  C   LIG    1        7.692   7.077  -1.494  0.00  0.00    +0.101 C 
ATOM     28  N   LIG    1        8.790   7.352  -1.586  0.00  0.00    -0.191 NA
ENDBRANCH   8  27
TORSDOF 4
