REMARK  Name = ZINC09296550
REMARK                            x       y       z     vdW  Elec       q    Type
REMARK                         _______ _______ _______ _____ _____    ______ ____
ROOT
ATOM      1  C   LIG    1        0.705  -0.168   2.552  0.00  0.00    +0.265 C 
ENDROOT
BRANCH   1   2
ATOM      2  C   LIG    1       -0.539   0.668   2.393  0.00  0.00    -0.004 A 
ATOM      3  C   LIG    1       -1.028   1.392   3.465  0.00  0.00    +0.007 A 
ATOM      4  C   LIG    1       -2.168   2.158   3.318  0.00  0.00    +0.000 A 
ATOM      5  C   LIG    1       -2.821   2.201   2.100  0.00  0.00    +0.000 A 
ATOM      6  C   LIG    1       -2.330   1.481   1.028  0.00  0.00    +0.007 A 
ATOM      7  C   LIG    1       -1.192   0.710   1.175  0.00  0.00    -0.004 A 
BRANCH   7   8
ATOM      8  C   LIG    1       -0.659  -0.079   0.007  0.00  0.00    +0.265 C 
BRANCH   8   9
ATOM      9  O   LIG    1       -1.500   0.127  -1.130  0.00  0.00    -0.484 OA
BRANCH   9  10
ATOM     10  C   LIG    1       -1.158  -0.518  -2.274  0.00  0.00    +0.162 A 
ATOM     11  C   LIG    1       -0.033  -1.333  -2.300  0.00  0.00    +0.050 A 
ATOM     12  C   LIG    1        0.319  -1.990  -3.458  0.00  0.00    +0.015 A 
ATOM     13  C   LIG    1       -0.458  -1.837  -4.613  0.00  0.00    +0.018 A 
ATOM     14  C   LIG    1       -1.591  -1.015  -4.586  0.00  0.00    +0.060 A 
ATOM     15  C   LIG    1       -1.940  -0.365  -3.419  0.00  0.00    +0.162 A 
BRANCH  13  16
ATOM     16  C   LIG    1       -0.084  -2.536  -5.849  0.00  0.00    +0.258 C 
ATOM     17  O   LIG    1        0.898  -3.247  -5.871  0.00  0.00    -0.296 OA
ENDBRANCH  13  16
BRANCH  15  18
ATOM     18  O   LIG    1       -3.044   0.429  -3.387  0.00  0.00    -0.491 OA
ATOM     19  C   LIG    1       -3.798   0.540  -4.596  0.00  0.00    +0.277 C 
ENDBRANCH  15  18
ENDBRANCH   9  10
ENDBRANCH   8   9
ENDBRANCH   7   8
ENDBRANCH   1   2
BRANCH   1  20
ATOM     20  O   LIG    1        1.190  -0.048   3.891  0.00  0.00    -0.484 OA
BRANCH  20  26
ATOM     21  C   LIG    1        2.844  -0.667   5.491  0.00  0.00    +0.162 A 
ATOM     22  C   LIG    1        3.983  -1.378   5.814  0.00  0.00    +0.057 A 
ATOM     23  C   LIG    1        4.610  -2.167   4.841  0.00  0.00    -0.020 A 
ATOM     24  C   LIG    1        4.075  -2.235   3.549  0.00  0.00    +0.012 A 
ATOM     25  C   LIG    1        2.935  -1.526   3.239  0.00  0.00    +0.050 A 
ATOM     26  C   LIG    1        2.314  -0.744   4.204  0.00  0.00    +0.162 A 
BRANCH  23  27
ATOM     27  C   LIG    1        5.825  -2.921   5.176  0.00  0.00    +0.028 C 
ATOM     28  C   LIG    1        6.836  -3.014   4.275  0.00  0.00    +0.077 C 
ATOM     29  C   LIG    1        7.013  -2.320   2.983  0.00  0.00    +0.256 C 
ATOM     30  N   LIG    1        8.109  -2.607   2.302  0.00  0.00    -0.270 N 
ATOM     31  H   LIG    1        8.263  -2.173   1.448  0.00  0.00    +0.156 HD
ATOM     32  C   LIG    1        9.017  -3.490   2.766  0.00  0.00    +0.118 C 
ATOM     33  S   LIG    1       10.483  -3.989   2.038  0.00  0.00    -0.027 S 
ATOM     34  O   LIG    1        6.191  -1.524   2.568  0.00  0.00    -0.269 OA
ATOM     35  S   LIG    1        8.322  -4.006   4.328  0.00  0.00    -0.061 S 
ENDBRANCH  23  27
BRANCH  21  37
ATOM     36  C   LIG    1        2.833   0.138   7.729  0.00  0.00    +0.277 C 
ATOM     37  O   LIG    1        2.236   0.105   6.431  0.00  0.00    -0.491 OA
ENDBRANCH  21  37
ENDBRANCH  20  26
ENDBRANCH   1  20
TORSDOF 10
