REMARK  Name = ZINC11616188
REMARK                            x       y       z     vdW  Elec       q    Type
REMARK                         _______ _______ _______ _____ _____    ______ ____
ROOT
ATOM      1  C   LIG    1        3.693  -0.553  -0.095  0.00  0.00    +0.140 C 
ATOM      2  C   LIG    1        2.230  -0.326   0.193  0.00  0.00    -0.019 A 
ATOM      3  C   LIG    1        1.811   0.977   0.430  0.00  0.00    +0.006 A 
ATOM      4  C   LIG    1        0.483   1.250   0.685  0.00  0.00    +0.000 A 
ATOM      5  C   LIG    1       -0.437   0.218   0.706  0.00  0.00    +0.000 A 
ATOM      6  C   LIG    1       -0.022  -1.076   0.474  0.00  0.00    +0.004 A 
ATOM      7  C   LIG    1        1.316  -1.355   0.222  0.00  0.00    -0.041 A 
ATOM      8  C   LIG    1        1.700  -2.795   0.005  0.00  0.00    +0.054 C 
ATOM      9  C   LIG    1        3.043  -2.897  -0.717  0.00  0.00    +0.117 C 
ATOM     10  N   LIG    1        3.988  -1.989  -0.046  0.00  0.00    -0.256 N 
ATOM     11  C   LIG    1        5.081  -2.459   0.589  0.00  0.00    +0.404 C 
ATOM     12  O   LIG    1        5.804  -1.696   1.198  0.00  0.00    -0.226 OA
ENDROOT
BRANCH   1  16
ATOM     13  C   LIG    1        6.050   1.484   2.827  0.00  0.00    +0.000 A 
ATOM     14  C   LIG    1        6.252   1.730   1.482  0.00  0.00    +0.000 A 
ATOM     15  C   LIG    1        5.490   1.071   0.537  0.00  0.00    +0.006 A 
ATOM     16  C   LIG    1        4.524   0.165   0.936  0.00  0.00    -0.023 A 
ATOM     17  C   LIG    1        4.318  -0.076   2.281  0.00  0.00    +0.006 A 
ATOM     18  C   LIG    1        5.084   0.580   3.227  0.00  0.00    +0.000 A 
ENDBRANCH   1  16
BRANCH  11  19
ATOM     19  O   LIG    1        5.370  -3.773   0.549  0.00  0.00    -0.449 OA
BRANCH  19  20
ATOM     20  C   LIG    1        6.562  -4.208   1.255  0.00  0.00    +0.165 C 
ATOM     21  C   LIG    1        6.200  -4.570   2.698  0.00  0.00    -0.033 C 
ATOM     22  N   LIG    1        6.522  -5.987   2.971  0.00  0.00    +0.382 N 
ATOM     23  H   LIG    1        6.271  -6.205   3.942  0.00  0.00    -0.082 HD
ATOM     24  C   LIG    1        5.750  -6.865   2.067  0.00  0.00    -0.078 C 
ATOM     25  C   LIG    1        6.098  -6.568   0.606  0.00  0.00    -0.012 C 
ATOM     26  C   LIG    1        7.970  -6.221   2.785  0.00  0.00    -0.078 C 
ATOM     27  C   LIG    1        8.383  -5.905   1.345  0.00  0.00    -0.012 C 
ATOM     28  C   LIG    1        7.145  -5.447   0.564  0.00  0.00    +0.025 C 
ENDBRANCH  19  20
ENDBRANCH  11  19
TORSDOF 3
