REMARK  Name = ZINC08616455
REMARK                            x       y       z     vdW  Elec       q    Type
REMARK                         _______ _______ _______ _____ _____    ______ ____
ROOT
ATOM      1  C   LIG    1        4.979   0.063  -0.045  0.00  0.00    -0.008 C 
ATOM      2  C   LIG    1        6.141  -0.623  -0.059  0.00  0.00    +0.007 C 
ENDROOT
BRANCH   1  12
ATOM      3  C   LIG    1       -0.016   1.359   0.009  0.00  0.00    +0.000 C 
ATOM      4  C   LIG    1        1.167   2.093   0.002  0.00  0.00    +0.000 C 
ATOM      5  C   LIG    1        2.381   1.469  -0.013  0.00  0.00    +0.005 C 
ATOM      6  C   LIG    1        2.436   0.072  -0.021  0.00  0.00    +0.013 C 
ATOM      7  C   LIG    1        1.232  -0.676  -0.013  0.00  0.00    -0.005 C 
ATOM      8  C   LIG    1        1.322  -2.081  -0.021  0.00  0.00    +0.019 C 
ATOM      9  C   LIG    1        2.547  -2.675  -0.036  0.00  0.00    +0.082 C 
ATOM     10  N   LIG    1        3.676  -1.986  -0.043  0.00  0.00    -0.310 NA
ATOM     11  H   LIG    1        4.518  -2.470  -0.053  0.00  0.00    +0.122 HD
ATOM     12  C   LIG    1        3.702  -0.658  -0.036  0.00  0.00    +0.080 C 
ATOM     13  C   LIG    1        0.002  -0.004   0.002  0.00  0.00    +0.004 C 
ENDBRANCH   1  12
BRANCH   2  14
ATOM     14  C   LIG    1        7.419   0.099  -0.068  0.00  0.00    -0.000 A 
ATOM     15  C   LIG    1        7.592   1.451  -0.058  0.00  0.00    +0.091 A 
ATOM     16  N   LIG    1        8.921   1.743  -0.071  0.00  0.00    -0.360 N 
ATOM     17  C   LIG    1        9.667   0.583  -0.091  0.00  0.00    +0.047 A 
ATOM     18  C   LIG    1       11.035   0.331  -0.110  0.00  0.00    +0.026 A 
ATOM     19  C   LIG    1       11.495  -0.968  -0.112  0.00  0.00    +0.002 A 
ATOM     20  C   LIG    1       10.606  -2.033  -0.109  0.00  0.00    +0.001 A 
ATOM     21  C   LIG    1        9.247  -1.804  -0.095  0.00  0.00    +0.010 A 
ATOM     22  H   LIG    1        9.291   2.640  -0.067  0.00  0.00    +0.165 HD
ATOM     23  C   LIG    1        8.768  -0.496  -0.084  0.00  0.00    +0.007 A 
ENDBRANCH   2  14
TORSDOF 2
