REMARK  Name = ZINC09580294
REMARK                            x       y       z     vdW  Elec       q    Type
REMARK                         _______ _______ _______ _____ _____    ______ ____
ROOT
ATOM      1  C   LIG    1       -1.925  -3.452  -0.646  0.00  0.00    +0.329 C 
ATOM      2  O   LIG    1       -2.393  -4.162   0.213  0.00  0.00    -0.249 OA
ENDROOT
BRANCH   1   3
ATOM      3  C   LIG    1       -0.469  -3.067  -0.593  0.00  0.00    +0.193 C 
BRANCH   3   4
ATOM      4  N   LIG    1        0.155  -3.674   0.586  0.00  0.00    -0.228 N 
ATOM      5  C   LIG    1        1.117  -4.613   0.506  0.00  0.00    +0.227 C 
ATOM      6  C   LIG    1        1.293  -5.206   1.914  0.00  0.00    +0.091 C 
ATOM      7  C   LIG    1        0.281  -6.352   1.985  0.00  0.00    +0.040 C 
ATOM      8  C   LIG    1       -0.318  -6.529   3.337  0.00  0.00    -0.030 C 
ATOM      9  C   LIG    1       -0.297  -5.641   4.275  0.00  0.00    -0.030 C 
ATOM     10  C   LIG    1        0.385  -4.317   4.138  0.00  0.00    +0.040 C 
ATOM     11  C   LIG    1        0.836  -3.995   2.743  0.00  0.00    +0.091 C 
ATOM     12  O   LIG    1        1.731  -4.931  -0.490  0.00  0.00    -0.275 OA
ATOM     13  C   LIG    1       -0.179  -3.340   1.852  0.00  0.00    +0.227 C 
ATOM     14  O   LIG    1       -1.113  -2.650   2.200  0.00  0.00    -0.275 OA
ENDBRANCH   3   4
BRANCH   3  15
ATOM     15  C   LIG    1       -0.347  -1.544  -0.506  0.00  0.00    +0.037 C 
BRANCH  15  17
ATOM     16  C   LIG    1       -0.881   0.604  -1.664  0.00  0.00    +0.007 C 
ATOM     17  C   LIG    1       -0.837  -0.918  -1.813  0.00  0.00    -0.015 C 
ATOM     18  C   LIG    1        0.119  -1.292  -2.947  0.00  0.00    +0.007 C 
ENDBRANCH  15  17
ENDBRANCH   3  15
ENDBRANCH   1   3
BRANCH   1  19
ATOM     19  O   LIG    1       -2.701  -3.007  -1.646  0.00  0.00    -0.454 OA
BRANCH  19  20
ATOM     20  C   LIG    1       -4.071  -3.412  -1.633  0.00  0.00    +0.328 C 
BRANCH  20  21
ATOM     21  C   LIG    1       -4.781  -2.821  -2.824  0.00  0.00    +0.255 C 
ATOM     22  N   LIG    1       -6.091  -3.068  -3.020  0.00  0.00    -0.280 N 
ATOM     23  H   LIG    1       -6.596  -3.558  -2.352  0.00  0.00    +0.155 HD
ATOM     24  O   LIG    1       -4.173  -2.121  -3.607  0.00  0.00    -0.272 OA
BRANCH  22  25
ATOM     25  C   LIG    1       -6.723  -2.619  -4.187  0.00  0.00    +0.077 A 
ATOM     26  C   LIG    1       -5.968  -2.284  -5.301  0.00  0.00    +0.047 A 
ATOM     27  C   LIG    1       -6.594  -1.841  -6.452  0.00  0.00    +0.043 A 
ATOM     28 CL   LIG    1       -5.648  -1.423  -7.847  0.00  0.00    -0.083 Cl
ATOM     29  C   LIG    1       -7.972  -1.730  -6.495  0.00  0.00    +0.024 A 
ATOM     30  C   LIG    1       -8.730  -2.062  -5.387  0.00  0.00    +0.049 A 
ATOM     31  C   LIG    1       -8.111  -2.512  -4.233  0.00  0.00    +0.141 A 
BRANCH  31  32
ATOM     32  O   LIG    1       -8.856  -2.845  -3.145  0.00  0.00    -0.493 OA
ATOM     33  C   LIG    1      -10.274  -2.710  -3.264  0.00  0.00    +0.277 C 
ENDBRANCH  31  32
ENDBRANCH  22  25
ENDBRANCH  20  21
ENDBRANCH  19  20
ENDBRANCH   1  19
TORSDOF 9
