REMARK  Name = ZINC09673207
REMARK                            x       y       z     vdW  Elec       q    Type
REMARK                         _______ _______ _______ _____ _____    ______ ____
ROOT
ATOM      1  C   LIG    1        5.293   0.462  -3.336  0.00  0.00    +0.193 A 
ATOM      2  C   LIG    1        6.085   1.326  -4.022  0.00  0.00    +0.008 A 
ATOM      3  C   LIG    1        5.804   1.938  -5.371  0.00  0.00    +0.048 C 
ATOM      4  C   LIG    1        7.265   1.544  -3.186  0.00  0.00    +0.026 A 
ATOM      5  C   LIG    1        8.426   2.309  -3.321  0.00  0.00    +0.040 A 
ATOM      6  C   LIG    1        9.366   2.294  -2.329  0.00  0.00    +0.106 A 
ATOM      7  C   LIG    1        9.175   1.523  -1.190  0.00  0.00    +0.032 A 
ATOM      8  C   LIG    1        8.037   0.761  -1.039  0.00  0.00    +0.049 A 
ATOM      9  C   LIG    1        7.066   0.761  -2.034  0.00  0.00    +0.136 A 
ATOM     10  O   LIG    1        5.877   0.140  -2.164  0.00  0.00    -0.450 OA
ENDROOT
BRANCH   1  13
ATOM     11  N   LIG    1        3.287  -0.895  -3.030  0.00  0.00    -0.305 N 
ATOM     12  H   LIG    1        3.638  -1.177  -2.171  0.00  0.00    +0.149 HD
ATOM     13  C   LIG    1        3.991  -0.042  -3.799  0.00  0.00    +0.280 C 
ATOM     14  O   LIG    1        3.551   0.312  -4.877  0.00  0.00    -0.267 OA
BRANCH  11  15
ATOM     15  C   LIG    1        1.990  -1.397  -3.491  0.00  0.00    +0.143 C 
BRANCH  15  21
ATOM     16  C   LIG    1        0.777  -1.810  -1.336  0.00  0.00    +0.125 A 
ATOM     17  C   LIG    1        0.243  -2.669  -0.386  0.00  0.00    +0.046 A 
ATOM     18  C   LIG    1        0.351  -4.036  -0.554  0.00  0.00    +0.004 A 
ATOM     19  C   LIG    1        0.991  -4.548  -1.667  0.00  0.00    +0.001 A 
ATOM     20  C   LIG    1        1.525  -3.695  -2.615  0.00  0.00    +0.009 A 
ATOM     21  C   LIG    1        1.414  -2.327  -2.455  0.00  0.00    +0.011 A 
BRANCH  16  22
ATOM     22  O   LIG    1        0.671  -0.465  -1.174  0.00  0.00    -0.492 OA
BRANCH  22  24
ATOM     23  C   LIG    1       -0.019   1.526   0.010  0.00  0.00    +0.048 C 
ATOM     24  C   LIG    1        0.002  -0.004   0.002  0.00  0.00    +0.225 C 
ENDBRANCH  22  24
ENDBRANCH  16  22
ENDBRANCH  15  21
ENDBRANCH  11  15
ENDBRANCH   1  13
BRANCH   6  25
ATOM     25  S   LIG    1       10.831   3.258  -2.498  0.00  0.00    +0.061 S 
ATOM     26  O   LIG    1       11.025   3.462  -3.890  0.00  0.00    -0.153 OA
ATOM     27  O   LIG    1       11.815   2.650  -1.672  0.00  0.00    -0.153 OA
BRANCH  25  28
ATOM     28  N   LIG    1       10.516   4.746  -1.841  0.00  0.00    -0.176 NA
ATOM     29  C   LIG    1        9.967   5.828  -2.669  0.00  0.00    +0.112 C 
ATOM     30  C   LIG    1        8.700   6.368  -1.999  0.00  0.00    +0.002 C 
ATOM     31  C   LIG    1        8.190   7.583  -2.775  0.00  0.00    +0.009 C 
ATOM     32  C   LIG    1        9.024   6.779  -0.561  0.00  0.00    +0.009 C 
ATOM     33  C   LIG    1        9.504   5.557   0.226  0.00  0.00    +0.002 C 
ATOM     34  C   LIG    1        9.795   5.962   1.672  0.00  0.00    +0.009 C 
ATOM     35  C   LIG    1       10.774   5.006  -0.418  0.00  0.00    +0.112 C 
ENDBRANCH  25  28
ENDBRANCH   6  25
TORSDOF 7
