REMARK  Name = ZINC12428439
REMARK                            x       y       z     vdW  Elec       q    Type
REMARK                         _______ _______ _______ _____ _____    ______ ____
ROOT
ATOM      1  C   LIG    1       -3.291   2.469   0.032  0.00  0.00    +0.146 C 
ATOM      2  N   LIG    1       -2.253   1.677   0.022  0.00  0.00    -0.155 NA
ENDROOT
BRANCH   2   3
ATOM      3  N   LIG    1       -1.063   2.173   0.019  0.00  0.00    -0.127 NA
ATOM      4  C   LIG    1       -0.017   1.375   0.010  0.00  0.00    +0.182 C 
ATOM      5  N   LIG    1        0.002  -0.004   0.002  0.00  0.00    -0.263 N 
ATOM      6  H   LIG    1       -0.943  -0.567   0.008  0.00  0.00    +0.157 HD
ATOM      7  C   LIG    1        1.128  -0.696  -0.013  0.00  0.00    +0.229 C 
ATOM      8  C   LIG    1        2.409   0.123  -0.020  0.00  0.00    +0.173 C 
ATOM      9  O   LIG    1        1.139  -1.909  -0.019  0.00  0.00    -0.275 OA
ATOM     10  S   LIG    1        1.713   1.823  -0.004  0.00  0.00    -0.079 S 
ENDBRANCH   2   3
BRANCH   1  14
ATOM     11  C   LIG    1       -7.209   0.834   0.043  0.00  0.00    +0.019 A 
ATOM     12  C   LIG    1       -6.115  -0.011   0.033  0.00  0.00    +0.047 A 
ATOM     13  C   LIG    1       -4.833   0.511   0.029  0.00  0.00    +0.126 A 
ATOM     14  C   LIG    1       -4.649   1.902   0.036  0.00  0.00    +0.037 A 
ATOM     15  C   LIG    1       -5.763   2.747   0.052  0.00  0.00    +0.028 A 
ATOM     16  C   LIG    1       -7.033   2.208   0.050  0.00  0.00    +0.019 A 
ATOM     17 BR   LIG    1       -8.540   3.350   0.063  0.00  0.00    -0.050 Br
BRANCH  13  18
ATOM     18  O   LIG    1       -3.758  -0.319   0.019  0.00  0.00    -0.506 OA
ATOM     19  H   LIG    1       -3.883  -1.248   0.015  0.00  0.00    +0.292 HD
ENDBRANCH  13  18
ENDBRANCH   1  14
TORSDOF 3
