REMARK  Name = ZINC12504498
REMARK                            x       y       z     vdW  Elec       q    Type
REMARK                         _______ _______ _______ _____ _____    ______ ____
ROOT
ATOM      1  C   LIG    1        1.176   1.810   0.001  0.00  0.00    +0.129 A 
ATOM      2  C   LIG    1       -0.013   1.076   0.008  0.00  0.00    +0.066 A 
ATOM      3  C   LIG    1       -1.220   1.777   0.017  0.00  0.00    +0.129 A 
ATOM      4  N   LIG    1       -1.192   3.107   0.030  0.00  0.00    -0.231 NA
ATOM      5  C   LIG    1       -0.049   3.760   0.023  0.00  0.00    +0.222 A 
ATOM      6  N   LIG    1        1.111   3.138   0.008  0.00  0.00    -0.231 NA
ENDROOT
BRANCH   1   9
ATOM      7  N   LIG    1        3.629   1.837  -0.023  0.00  0.00    -0.306 N 
ATOM      8  H   LIG    1        3.591   2.807  -0.017  0.00  0.00    +0.149 HD
ATOM      9  C   LIG    1        2.489   1.119  -0.016  0.00  0.00    +0.263 C 
ATOM     10  O   LIG    1        2.537  -0.095  -0.024  0.00  0.00    -0.269 OA
BRANCH   7  11
ATOM     11  C   LIG    1        4.925   1.155  -0.040  0.00  0.00    +0.140 C 
BRANCH  11  15
ATOM     12  C   LIG    1        8.130   4.083   2.450  0.00  0.00    +0.047 C 
ATOM     13  C   LIG    1        7.565   3.579   1.147  0.00  0.00    -0.015 A 
ATOM     14  C   LIG    1        6.550   2.640   1.150  0.00  0.00    +0.011 A 
ATOM     15  C   LIG    1        6.032   2.178  -0.045  0.00  0.00    -0.030 A 
ATOM     16  C   LIG    1        6.531   2.650  -1.245  0.00  0.00    +0.008 A 
ATOM     17  C   LIG    1        7.542   3.592  -1.250  0.00  0.00    +0.039 A 
ATOM     18  C   LIG    1        8.062   4.056  -0.054  0.00  0.00    +0.126 A 
ATOM     19  F   LIG    1        9.054   4.973  -0.058  0.00  0.00    -0.205 F 
ENDBRANCH  11  15
ENDBRANCH   7  11
ENDBRANCH   1   9
BRANCH   3  20
ATOM     20  C   LIG    1       -2.515   1.050   0.019  0.00  0.00    +0.263 C 
ATOM     21  N   LIG    1       -3.674   1.738   0.028  0.00  0.00    -0.306 N 
ATOM     22  H   LIG    1       -3.662   2.708   0.034  0.00  0.00    +0.149 HD
ATOM     23  O   LIG    1       -2.529  -0.164   0.012  0.00  0.00    -0.269 OA
BRANCH  21  24
ATOM     24  C   LIG    1       -4.951   1.021   0.030  0.00  0.00    +0.140 C 
BRANCH  24  25
ATOM     25  C   LIG    1       -6.085   2.014   0.041  0.00  0.00    -0.030 A 
ATOM     26  C   LIG    1       -6.603   2.457   1.243  0.00  0.00    +0.008 A 
ATOM     27  C   LIG    1       -7.639   3.371   1.254  0.00  0.00    +0.039 A 
ATOM     28  C   LIG    1       -8.166   3.835   0.060  0.00  0.00    +0.126 A 
ATOM     29  F   LIG    1       -9.182   4.725   0.070  0.00  0.00    -0.205 F 
ATOM     30  C   LIG    1       -7.650   3.386  -1.143  0.00  0.00    -0.015 A 
ATOM     31  C   LIG    1       -8.221   3.889  -2.443  0.00  0.00    +0.047 C 
ATOM     32  C   LIG    1       -6.610   2.475  -1.152  0.00  0.00    +0.011 A 
ENDBRANCH  24  25
ENDBRANCH  21  24
ENDBRANCH   3  20
TORSDOF 6
