REMARK  Name = ZINC12410597
REMARK                            x       y       z     vdW  Elec       q    Type
REMARK                         _______ _______ _______ _____ _____    ______ ____
ROOT
ATOM      1  C   LIG    1       -0.017   1.414   0.010  0.00  0.00    +0.032 A 
ATOM      2  C   LIG    1        1.159   2.104   0.002  0.00  0.00    +0.030 A 
ATOM      3  C   LIG    1        2.371   1.426  -0.013  0.00  0.00    +0.105 A 
ATOM      4  C   LIG    1        2.406   0.037  -0.022  0.00  0.00    +0.030 A 
ATOM      5  C   LIG    1        1.248  -0.682  -0.014  0.00  0.00    +0.032 A 
ATOM      6  C   LIG    1        0.002  -0.004   0.002  0.00  0.00    +0.100 A 
ENDROOT
BRANCH   6   7
ATOM      7  N   LIG    1       -1.132  -0.689   0.010  0.00  0.00    -0.074 NA
ATOM      8  N   LIG    1       -1.110  -1.813   0.003  0.00  0.00    -0.192 NA
ATOM      9  N   LIG    1       -1.089  -2.912  -0.003  0.00  0.00    -0.127 NA
ATOM     10  H   LIG    1       -1.463  -3.416   0.756  0.00  0.00    +0.228 HD
ENDBRANCH   6   7
BRANCH   3  11
ATOM     11  S   LIG    1        3.879   2.337  -0.024  0.00  0.00    +0.056 S 
ATOM     12  O   LIG    1        3.578   3.615  -0.565  0.00  0.00    -0.153 OA
ATOM     13  O   LIG    1        4.865   1.483  -0.589  0.00  0.00    -0.153 OA
BRANCH  11  14
ATOM     14  N   LIG    1        4.314   2.581   1.556  0.00  0.00    -0.204 NA
ATOM     15  H   LIG    1        3.632   2.652   2.241  0.00  0.00    +0.144 HD
ATOM     16  H   LIG    1        5.252   2.653   1.795  0.00  0.00    +0.144 HD
ENDBRANCH  11  14
ENDBRANCH   3  11
TORSDOF 3
