REMARK  Name = ZINC08587540
REMARK                            x       y       z     vdW  Elec       q    Type
REMARK                         _______ _______ _______ _____ _____    ______ ____
ROOT
ATOM      1  C   LIG    1        1.456  -2.914   0.163  0.00  0.00    +0.186 C 
ATOM      2  C   LIG    1        2.240  -3.300   1.399  0.00  0.00    +0.076 A 
ATOM      3  C   LIG    1        1.971  -4.223   2.311  0.00  0.00    +0.082 A 
ATOM      4  C   LIG    1        3.058  -4.152   3.319  0.00  0.00    +0.089 A 
ATOM      5  C   LIG    1        3.028  -5.061   4.469  0.00  0.00    +0.266 A 
ATOM      6  N   LIG    1        1.973  -5.915   4.510  0.00  0.00    -0.263 N 
ATOM      7  C   LIG    1        1.885  -6.850   5.634  0.00  0.00    +0.157 C 
ATOM      8  C   LIG    1        1.011  -5.952   3.583  0.00  0.00    +0.332 A 
ATOM      9  O   LIG    1        0.120  -6.765   3.738  0.00  0.00    -0.246 OA
ATOM     10  O   LIG    1        3.890  -5.051   5.329  0.00  0.00    -0.267 OA
ATOM     11  C   LIG    1        3.916  -3.164   2.902  0.00  0.00    +0.069 A 
ATOM     12  N   LIG    1        0.944  -5.161   2.489  0.00  0.00    -0.294 N 
ATOM     13  C   LIG    1       -0.157  -5.279   1.529  0.00  0.00    +0.154 C 
ATOM     14  N   LIG    1        3.425  -2.662   1.736  0.00  0.00    -0.306 N 
ATOM     15  C   LIG    1        3.972  -1.663   0.918  0.00  0.00    +0.068 A 
ATOM     16  C   LIG    1        5.023  -0.873   1.343  0.00  0.00    +0.031 A 
ATOM     17  C   LIG    1        5.520   0.115   0.512  0.00  0.00    -0.045 A 
ATOM     18  C   LIG    1        6.667   0.978   0.971  0.00  0.00    +0.044 C 
ATOM     19  C   LIG    1        4.966   0.313  -0.740  0.00  0.00    -0.046 A 
ATOM     20  C   LIG    1        5.505   1.399  -1.634  0.00  0.00    +0.044 C 
ATOM     21  C   LIG    1        3.920  -0.479  -1.175  0.00  0.00    +0.028 A 
ATOM     22  C   LIG    1        3.421  -1.478  -0.354  0.00  0.00    +0.052 A 
ATOM     23  N   LIG    1        2.394  -2.319  -0.801  0.00  0.00    -0.328 N 
ATOM     24  H   LIG    1        2.302  -2.511  -1.748  0.00  0.00    +0.147 HD
ENDROOT
BRANCH   1  29
ATOM     25  C   LIG    1       -3.064  -0.877   1.091  0.00  0.00    +0.086 C 
ATOM     26  C   LIG    1       -1.573  -1.024   0.929  0.00  0.00    +0.102 A 
ATOM     27  C   LIG    1       -0.661  -0.054   1.121  0.00  0.00    +0.045 A 
ATOM     28  C   LIG    1        0.606  -0.625   0.861  0.00  0.00    +0.047 A 
ATOM     29  C   LIG    1        0.393  -1.910   0.526  0.00  0.00    +0.131 A 
ATOM     30  O   LIG    1       -0.928  -2.148   0.574  0.00  0.00    -0.463 OA
ENDBRANCH   1  29
BRANCH  11  31
ATOM     31  C   LIG    1        5.144  -2.726   3.591  0.00  0.00    -0.000 A 
ATOM     32  C   LIG    1        5.083  -2.261   4.907  0.00  0.00    +0.010 A 
ATOM     33  C   LIG    1        6.236  -1.854   5.546  0.00  0.00    +0.001 A 
ATOM     34  C   LIG    1        7.451  -1.906   4.886  0.00  0.00    +0.000 A 
ATOM     35  C   LIG    1        7.520  -2.365   3.583  0.00  0.00    +0.001 A 
ATOM     36  C   LIG    1        6.376  -2.781   2.934  0.00  0.00    +0.010 A 
ENDBRANCH  11  31
TORSDOF 2
