REMARK  Name = ZINC11536236
REMARK                            x       y       z     vdW  Elec       q    Type
REMARK                         _______ _______ _______ _____ _____    ______ ____
ROOT
ATOM      1  S   LIG    1       -2.727   0.853   0.022  0.00  0.00    +0.044 S 
ATOM      2  O   LIG    1       -2.442  -0.421  -0.540  0.00  0.00    -0.163 OA
ATOM      3  O   LIG    1       -3.712   1.721  -0.520  0.00  0.00    -0.163 OA
ENDROOT
BRANCH   1   7
ATOM      4  C   LIG    1        1.168   3.160   0.029  0.00  0.00    +0.000 A 
ATOM      5  C   LIG    1        1.183   1.778   0.018  0.00  0.00    +0.002 A 
ATOM      6  C   LIG    1       -0.006   1.073   0.019  0.00  0.00    +0.027 A 
ATOM      7  C   LIG    1       -1.211   1.751   0.027  0.00  0.00    +0.095 A 
ATOM      8  C   LIG    1       -1.226   3.133   0.042  0.00  0.00    +0.027 A 
ATOM      9  C   LIG    1       -0.037   3.837   0.041  0.00  0.00    +0.002 A 
ENDBRANCH   1   7
BRANCH   1  10
ATOM     10  C   LIG    1       -3.172   0.573   1.704  0.00  0.00    +0.204 A 
ATOM     11  N   LIG    1       -3.921   1.451   2.342  0.00  0.00    -0.127 NA
ATOM     12  N   LIG    1       -4.267   1.293   3.567  0.00  0.00    -0.110 NA
ATOM     13  C   LIG    1       -3.895   0.237   4.273  0.00  0.00    +0.232 A 
ATOM     14  C   LIG    1       -3.102  -0.744   3.683  0.00  0.00    +0.072 A 
ATOM     15  C   LIG    1       -2.736  -0.570   2.357  0.00  0.00    +0.055 A 
BRANCH  13  16
ATOM     16  O   LIG    1       -4.283   0.111   5.567  0.00  0.00    -0.491 OA
ATOM     17  H   LIG    1       -4.018  -0.637   6.065  0.00  0.00    +0.294 HD
ENDBRANCH  13  16
ENDBRANCH   1  10
TORSDOF 3
