REMARK  Name = ZINC11632570
REMARK                            x       y       z     vdW  Elec       q    Type
REMARK                         _______ _______ _______ _____ _____    ______ ____
ROOT
ATOM      1  C   LIG    1       -1.274   5.823  -0.060  0.00  0.00    +0.129 A 
ATOM      2  C   LIG    1       -2.442   5.075  -0.056  0.00  0.00    +0.048 A 
ATOM      3  C   LIG    1       -3.667   5.707  -0.142  0.00  0.00    +0.027 A 
ATOM      4  C   LIG    1       -3.729   7.091  -0.242  0.00  0.00    +0.030 A 
ATOM      5  C   LIG    1       -2.559   7.839  -0.252  0.00  0.00    +0.027 A 
ATOM      6  C   LIG    1       -1.335   7.206  -0.160  0.00  0.00    +0.048 A 
ENDROOT
BRANCH   4   7
ATOM      7  N   LIG    1       -4.969   7.732  -0.335  0.00  0.00    -0.333 N 
ATOM      8  C   LIG    1       -5.041   8.568  -1.542  0.00  0.00    +0.086 C 
ATOM      9  C   LIG    1       -6.379   9.311  -1.565  0.00  0.00    -0.063 C 
ATOM     10  N   LIG    1       -7.486   8.336  -1.544  0.00  0.00    +0.381 N 
ATOM     11  H   LIG    1       -8.381   8.838  -1.552  0.00  0.00    -0.086 HD
ATOM     12  H   LIG    1       -7.423   7.734  -2.374  0.00  0.00    -0.086 HD
ATOM     13  C   LIG    1       -7.407   7.500  -0.331  0.00  0.00    -0.063 C 
ATOM     14  C   LIG    1       -6.069   6.757  -0.307  0.00  0.00    +0.086 C 
ENDBRANCH   4   7
BRANCH   1  15
ATOM     15  O   LIG    1       -0.069   5.201   0.030  0.00  0.00    -0.456 OA
BRANCH  15  19
ATOM     16  C   LIG    1       -0.006   1.077  -0.064  0.00  0.00    +0.000 A 
ATOM     17  C   LIG    1        0.340   1.746   1.096  0.00  0.00    +0.004 A 
ATOM     18  C   LIG    1        0.326   3.127   1.128  0.00  0.00    +0.046 A 
ATOM     19  C   LIG    1       -0.048   3.842  -0.001  0.00  0.00    +0.128 A 
ATOM     20  C   LIG    1       -0.401   3.168  -1.161  0.00  0.00    +0.046 A 
ATOM     21  C   LIG    1       -0.379   1.787  -1.190  0.00  0.00    +0.004 A 
ENDBRANCH  15  19
ENDBRANCH   1  15
TORSDOF 3
