REMARK  Name = ZINC12356005
REMARK                            x       y       z     vdW  Elec       q    Type
REMARK                         _______ _______ _______ _____ _____    ______ ____
ROOT
ATOM      1  N   LIG    1       -0.056   1.113  -2.440  0.00  0.00    +0.381 N 
ATOM      2  H   LIG    1       -0.042   0.086  -2.438  0.00  0.00    -0.086 HD
ATOM      3  H   LIG    1        0.907   1.468  -2.439  0.00  0.00    -0.086 HD
ENDROOT
BRANCH   1   5
ATOM      4  C   LIG    1       -1.886   0.624  -4.001  0.00  0.00    -0.013 C 
ATOM      5  C   LIG    1       -0.749   1.587  -3.653  0.00  0.00    -0.071 C 
BRANCH   5   6
ATOM      6  C   LIG    1        0.248   1.641  -4.812  0.00  0.00    +0.019 C 
BRANCH   6   7
ATOM      7  C   LIG    1        1.300   2.679  -4.522  0.00  0.00    -0.049 A 
ATOM      8  C   LIG    1        1.113   3.986  -4.934  0.00  0.00    +0.007 A 
ATOM      9  C   LIG    1        2.074   4.941  -4.664  0.00  0.00    +0.046 A 
ATOM     10  C   LIG    1        3.233   4.586  -3.989  0.00  0.00    +0.120 A 
ATOM     11  C   LIG    1        3.421   3.273  -3.583  0.00  0.00    +0.046 A 
ATOM     12  C   LIG    1        2.455   2.323  -3.850  0.00  0.00    +0.007 A 
BRANCH  10  13
ATOM     13  O   LIG    1        4.182   5.522  -3.727  0.00  0.00    -0.495 OA
ATOM     14  C   LIG    1        3.921   6.854  -4.176  0.00  0.00    +0.277 C 
ENDBRANCH  10  13
ENDBRANCH   6   7
ENDBRANCH   5   6
ENDBRANCH   1   5
BRANCH   1  15
ATOM     15  C   LIG    1       -0.753   1.593  -1.232  0.00  0.00    -0.082 C 
BRANCH  15  16
ATOM     16  C   LIG    1       -0.013   1.086   0.008  0.00  0.00    -0.014 C 
BRANCH  16  17
ATOM     17  C   LIG    1       -0.729   1.579   1.267  0.00  0.00    +0.033 C 
BRANCH  17  18
ATOM     18  C   LIG    1        0.000   1.080   2.488  0.00  0.00    -0.047 A 
ATOM     19  C   LIG    1       -0.347  -0.133   3.052  0.00  0.00    +0.003 A 
ATOM     20  C   LIG    1        0.325  -0.593   4.169  0.00  0.00    +0.000 A 
ATOM     21  C   LIG    1        1.337   0.164   4.728  0.00  0.00    +0.000 A 
ATOM     22  C   LIG    1        1.680   1.380   4.167  0.00  0.00    +0.000 A 
ATOM     23  C   LIG    1        1.012   1.838   3.046  0.00  0.00    +0.003 A 
ENDBRANCH  17  18
ENDBRANCH  16  17
ENDBRANCH  15  16
ENDBRANCH   1  15
TORSDOF 8
