REMARK  Name = ZINC08589274
REMARK                            x       y       z     vdW  Elec       q    Type
REMARK                         _______ _______ _______ _____ _____    ______ ____
ROOT
ATOM      1  C   LIG    1        0.219  -0.827  -1.226  0.00  0.00    +0.140 A 
ATOM      2  C   LIG    1        0.213  -0.226  -2.489  0.00  0.00    +0.078 A 
ATOM      3  C   LIG    1        0.318  -0.980  -3.662  0.00  0.00    +0.087 A 
ATOM      4  N   LIG    1        0.429  -2.361  -3.479  0.00  0.00    -0.192 N 
ATOM      5  C   LIG    1        0.430  -2.903  -2.225  0.00  0.00    +0.204 A 
ATOM      6  C   LIG    1        0.553  -4.272  -2.403  0.00  0.00    +0.249 A 
ATOM      7  N   LIG    1        0.621  -4.521  -3.705  0.00  0.00    -0.108 NA
ATOM      8  N   LIG    1        0.551  -3.425  -4.378  0.00  0.00    -0.057 NA
ATOM      9  C   LIG    1        0.299  -0.255  -4.855  0.00  0.00    +0.036 A 
ATOM     10  C   LIG    1        0.185   1.092  -4.831  0.00  0.00    +0.048 A 
ATOM     11  S   LIG    1        0.092   1.442  -3.082  0.00  0.00    -0.092 S 
ATOM     12  N   LIG    1        0.332  -2.140  -1.123  0.00  0.00    -0.209 NA
ENDROOT
BRANCH   6  13
ATOM     13  S   LIG    1        0.611  -5.477  -1.119  0.00  0.00    +0.047 S 
ATOM     14  O   LIG    1        0.914  -4.779   0.080  0.00  0.00    -0.163 OA
ATOM     15  O   LIG    1        1.412  -6.547  -1.602  0.00  0.00    -0.163 OA
BRANCH  13  16
ATOM     16  C   LIG    1       -1.021  -6.116  -0.931  0.00  0.00    +0.097 A 
ATOM     17  C   LIG    1       -1.927  -5.467  -0.112  0.00  0.00    +0.027 A 
ATOM     18  C   LIG    1       -3.207  -5.967   0.036  0.00  0.00    +0.003 A 
ATOM     19  C   LIG    1       -3.582  -7.117  -0.633  0.00  0.00    +0.020 A 
ATOM     20  C   LIG    1       -2.676  -7.767  -1.452  0.00  0.00    +0.043 A 
ATOM     21 CL   LIG    1       -3.146  -9.210  -2.294  0.00  0.00    -0.083 Cl
ATOM     22  C   LIG    1       -1.396  -7.262  -1.605  0.00  0.00    +0.047 A 
ENDBRANCH  13  16
ENDBRANCH   6  13
BRANCH   1  24
ATOM     23  C   LIG    1       -0.143   1.390  -0.204  0.00  0.00    +0.131 C 
ATOM     24  N   LIG    1        0.113  -0.048  -0.087  0.00  0.00    -0.313 N 
BRANCH  24  25
ATOM     25  C   LIG    1        0.257  -0.661   1.235  0.00  0.00    +0.141 C 
BRANCH  25  26
ATOM     26  C   LIG    1       -1.107  -0.972   1.796  0.00  0.00    -0.030 A 
ATOM     27  C   LIG    1       -1.736  -0.064   2.627  0.00  0.00    +0.005 A 
ATOM     28  C   LIG    1       -2.987  -0.349   3.142  0.00  0.00    +0.000 A 
ATOM     29  C   LIG    1       -3.609  -1.542   2.824  0.00  0.00    +0.000 A 
ATOM     30  C   LIG    1       -2.980  -2.450   1.992  0.00  0.00    +0.000 A 
ATOM     31  C   LIG    1       -1.731  -2.163   1.474  0.00  0.00    +0.005 A 
ENDBRANCH  25  26
ENDBRANCH  24  25
ENDBRANCH   1  24
TORSDOF 5
