REMARK  Name = ZINC11615926
REMARK                            x       y       z     vdW  Elec       q    Type
REMARK                         _______ _______ _______ _____ _____    ______ ____
ROOT
ATOM      1  C   LIG    1        0.006   1.070   2.496  0.00  0.00    +0.035 A 
ATOM      2  C   LIG    1        1.308   1.351   2.803  0.00  0.00    +0.066 A 
ATOM      3  C   LIG    1        1.589   0.670   4.077  0.00  0.00    +0.020 A 
ATOM      4  C   LIG    1        0.419   0.023   4.425  0.00  0.00    +0.058 A 
ATOM      5  N   LIG    1       -0.515   0.281   3.456  0.00  0.00    -0.342 N 
ENDROOT
BRANCH   4   6
ATOM      6  C   LIG    1        0.211  -0.804   5.630  0.00  0.00    -0.001 A 
ATOM      7  C   LIG    1       -0.946  -0.648   6.396  0.00  0.00    +0.013 A 
ATOM      8  C   LIG    1       -1.137  -1.426   7.519  0.00  0.00    +0.039 A 
ATOM      9  C   LIG    1       -0.178  -2.354   7.893  0.00  0.00    +0.123 A 
ATOM     10  F   LIG    1       -0.369  -3.110   8.996  0.00  0.00    -0.205 F 
ATOM     11  C   LIG    1        0.975  -2.510   7.140  0.00  0.00    +0.039 A 
ATOM     12  C   LIG    1        1.174  -1.741   6.013  0.00  0.00    +0.013 A 
ENDBRANCH   4   6
BRANCH   3  13
ATOM     13  C   LIG    1        2.865   0.673   4.828  0.00  0.00    -0.015 A 
ATOM     14  C   LIG    1        2.934   1.267   6.089  0.00  0.00    +0.008 A 
ATOM     15  C   LIG    1        4.125   1.262   6.786  0.00  0.00    +0.001 A 
ATOM     16  C   LIG    1        5.251   0.679   6.233  0.00  0.00    +0.000 A 
ATOM     17  C   LIG    1        5.190   0.093   4.981  0.00  0.00    +0.001 A 
ATOM     18  C   LIG    1        4.004   0.087   4.276  0.00  0.00    +0.008 A 
ENDBRANCH   3  13
BRANCH   2  19
ATOM     19  C   LIG    1        2.241   2.173   2.017  0.00  0.00    +0.251 C 
ATOM     20  N   LIG    1        3.012   1.600   1.072  0.00  0.00    -0.281 N 
ATOM     21  H   LIG    1        3.001   0.638   0.955  0.00  0.00    +0.155 HD
ATOM     22  O   LIG    1        2.317   3.370   2.221  0.00  0.00    -0.270 OA
BRANCH  20  23
ATOM     23  C   LIG    1        3.828   2.394   0.259  0.00  0.00    +0.034 A 
ATOM     24  C   LIG    1        4.042   2.043  -1.067  0.00  0.00    +0.023 A 
ATOM     25  C   LIG    1        4.845   2.831  -1.868  0.00  0.00    +0.002 A 
ATOM     26  C   LIG    1        5.444   3.964  -1.347  0.00  0.00    +0.000 A 
ATOM     27  C   LIG    1        5.237   4.314  -0.026  0.00  0.00    +0.002 A 
ATOM     28  C   LIG    1        4.431   3.533   0.779  0.00  0.00    +0.023 A 
ENDBRANCH  20  23
ENDBRANCH   2  19
BRANCH   1  30
ATOM     29  C   LIG    1       -0.012   1.064   0.016  0.00  0.00    +0.014 C 
ATOM     30  C   LIG    1       -0.728   1.559   1.274  0.00  0.00    +0.030 C 
ATOM     31  C   LIG    1       -0.758   3.089   1.275  0.00  0.00    +0.014 C 
ENDBRANCH   1  30
BRANCH   5  32
ATOM     32  C   LIG    1       -1.889  -0.229   3.463  0.00  0.00    +0.124 C 
BRANCH  32  33
ATOM     33  C   LIG    1       -1.936  -1.576   2.738  0.00  0.00    +0.053 C 
BRANCH  33  34
ATOM     34  C   LIG    1       -3.370  -2.108   2.745  0.00  0.00    +0.119 C 
BRANCH  34  35
ATOM     35  O   LIG    1       -3.768  -2.388   4.089  0.00  0.00    -0.392 OA
ATOM     36  H   LIG    1       -3.216  -3.046   4.534  0.00  0.00    +0.210 HD
ENDBRANCH  34  35
BRANCH  34  37
ATOM     37  C   LIG    1       -3.442  -3.392   1.915  0.00  0.00    +0.063 C 
BRANCH  37  38
ATOM     38  C   LIG    1       -4.896  -3.856   1.819  0.00  0.00    +0.128 C 
BRANCH  38  39
ATOM     39  O   LIG    1       -5.657  -2.891   1.089  0.00  0.00    -0.391 OA
ATOM     40  H   LIG    1       -5.344  -2.744   0.186  0.00  0.00    +0.210 HD
ENDBRANCH  38  39
BRANCH  38  41
ATOM     41  C   LIG    1       -4.955  -5.203   1.096  0.00  0.00    +0.151 C 
BRANCH  41  42
ATOM     42  C   LIG    1       -6.371  -5.719   1.109  0.00  0.00    +0.307 C 
ATOM     43  O   LIG    1       -7.244  -5.076   1.641  0.00  0.00    -0.251 OA
BRANCH  42  44
ATOM     44  O   LIG    1       -6.662  -6.894   0.529  0.00  0.00    -0.481 OA
ATOM     45  H   LIG    1       -5.985  -7.393   0.115  0.00  0.00    +0.295 HD
ENDBRANCH  42  44
ENDBRANCH  41  42
ENDBRANCH  38  41
ENDBRANCH  37  38
ENDBRANCH  34  37
ENDBRANCH  33  34
ENDBRANCH  32  33
ENDBRANCH   5  32
TORSDOF 15
