REMARK  Name = ZINC11688098
REMARK                            x       y       z     vdW  Elec       q    Type
REMARK                         _______ _______ _______ _____ _____    ______ ____
ROOT
ATOM      1  C   LIG    1        2.052  -1.313   3.279  0.00  0.00    +0.136 A 
ATOM      2  C   LIG    1        2.958  -0.637   4.116  0.00  0.00    +0.067 A 
ATOM      3  C   LIG    1        3.271  -1.469   5.151  0.00  0.00    +0.076 A 
ATOM      4  N   LIG    1        2.586  -2.637   4.962  0.00  0.00    -0.231 N 
ATOM      5  N   LIG    1        1.834  -2.511   3.787  0.00  0.00    -0.157 NA
ENDROOT
BRANCH   3   6
ATOM      6  C   LIG    1        4.188  -1.165   6.271  0.00  0.00    +0.001 A 
ATOM      7  C   LIG    1        4.849  -2.199   6.935  0.00  0.00    +0.011 A 
ATOM      8  C   LIG    1        5.708  -1.909   7.975  0.00  0.00    +0.020 A 
ATOM      9  C   LIG    1        5.906  -0.597   8.367  0.00  0.00    +0.041 A 
ATOM     10 CL   LIG    1        6.983  -0.240   9.681  0.00  0.00    -0.084 Cl
ATOM     11  C   LIG    1        5.249   0.433   7.715  0.00  0.00    +0.020 A 
ATOM     12  C   LIG    1        4.392   0.156   6.670  0.00  0.00    +0.011 A 
ENDBRANCH   3   6
BRANCH   4  13
ATOM     13  C   LIG    1        2.630  -3.762   5.796  0.00  0.00    +0.066 A 
ATOM     14  C   LIG    1        2.760  -5.030   5.246  0.00  0.00    +0.031 A 
ATOM     15  C   LIG    1        2.808  -6.138   6.069  0.00  0.00    +0.048 A 
ATOM     16  C   LIG    1        2.716  -5.984   7.444  0.00  0.00    +0.120 A 
ATOM     17  C   LIG    1        2.580  -4.718   7.995  0.00  0.00    +0.048 A 
ATOM     18  C   LIG    1        2.537  -3.609   7.173  0.00  0.00    +0.031 A 
BRANCH  16  19
ATOM     19  O   LIG    1        2.758  -7.076   8.254  0.00  0.00    -0.495 OA
ATOM     20  C   LIG    1        2.899  -8.348   7.620  0.00  0.00    +0.277 C 
ENDBRANCH  16  19
ENDBRANCH   4  13
BRANCH   1  22
ATOM     21  C   LIG    1        0.992  -0.366   1.095  0.00  0.00    -0.071 C 
ATOM     22  C   LIG    1        1.469  -0.793   2.079  0.00  0.00    -0.043 C 
BRANCH  21  24
ATOM     23  C   LIG    1        0.903   1.592  -0.377  0.00  0.00    +0.044 C 
ATOM     24  C   LIG    1        0.393   0.170  -0.139  0.00  0.00    +0.177 C 
BRANCH  24  25
ATOM     25  N   LIG    1        0.768  -0.680  -1.272  0.00  0.00    -0.169 N 
ATOM     26  C   LIG    1        2.068  -0.848  -1.587  0.00  0.00    +0.236 C 
ATOM     27  C   LIG    1        2.454  -1.722  -2.752  0.00  0.00    +0.111 C 
ATOM     28  O   LIG    1        2.927  -0.296  -0.932  0.00  0.00    -0.274 OA
BRANCH  25  29
ATOM     29  O   LIG    1       -0.234  -1.324  -2.036  0.00  0.00    -0.291 OA
ATOM     30  H   LIG    1        0.109  -1.863  -2.762  0.00  0.00    +0.242 HD
ENDBRANCH  25  29
ENDBRANCH  24  25
ENDBRANCH  21  24
ENDBRANCH   1  22
TORSDOF 7
