REMARK  Name = ZINC11959221
REMARK                            x       y       z     vdW  Elec       q    Type
REMARK                         _______ _______ _______ _____ _____    ______ ____
ROOT
ATOM      1  C   LIG    1       -0.640   3.102   1.337  0.00  0.00    +0.016 C 
ENDROOT
BRANCH   1   2
ATOM      2  C   LIG    1       -1.402   3.707   0.185  0.00  0.00    +0.201 C 
ATOM      3  N   LIG    1       -0.747   4.405  -0.763  0.00  0.00    -0.303 N 
ATOM      4  C   LIG    1        0.683   4.750  -0.740  0.00  0.00    +0.108 C 
ATOM      5  C   LIG    1        0.977   5.570  -2.013  0.00  0.00    +0.020 C 
ATOM      6  C   LIG    1       -0.419   6.131  -2.393  0.00  0.00    +0.020 C 
ATOM      7  C   LIG    1       -1.346   4.956  -1.992  0.00  0.00    +0.108 C 
ATOM      8  O   LIG    1       -2.604   3.565   0.112  0.00  0.00    -0.277 OA
ENDBRANCH   1   2
BRANCH   1   9
ATOM      9  N   LIG    1       -1.457   3.209   2.559  0.00  0.00    +0.386 N 
ATOM     10  H   LIG    1       -1.682   4.197   2.729  0.00  0.00    -0.089 HD
ATOM     11  H   LIG    1       -0.940   2.844   3.357  0.00  0.00    -0.089 HD
ATOM     12  H   LIG    1       -2.323   2.685   2.447  0.00  0.00    -0.089 HD
ENDBRANCH   1   9
BRANCH   1  13
ATOM     13  C   LIG    1       -0.329   1.636   1.029  0.00  0.00    -0.020 C 
ATOM     14  C   LIG    1        0.569   1.554  -0.207  0.00  0.00    +0.006 C 
BRANCH  13  16
ATOM     15  C   LIG    1        0.588  -0.490   1.967  0.00  0.00    +0.004 C 
ATOM     16  C   LIG    1        0.388   1.005   2.224  0.00  0.00    -0.001 C 
ENDBRANCH  13  16
ENDBRANCH   1  13
TORSDOF 4
