REMARK  Name = ZINC08670459
REMARK                            x       y       z     vdW  Elec       q    Type
REMARK                         _______ _______ _______ _____ _____    ______ ____
ROOT
ATOM      1  S   LIG    1        0.259   2.555  -4.883  0.00  0.00    -0.083 S 
ENDROOT
BRANCH   1   5
ATOM      2  C   LIG    1       -0.013   1.086   0.008  0.00  0.00    +0.066 C 
ATOM      3  C   LIG    1       -0.742   1.585  -1.213  0.00  0.00    +0.046 A 
ATOM      4  N   LIG    1       -0.069   1.827  -2.335  0.00  0.00    -0.228 NA
ATOM      5  C   LIG    1       -0.680   2.259  -3.422  0.00  0.00    +0.169 A 
ATOM      6  N   LIG    1       -2.023   2.485  -3.431  0.00  0.00    -0.302 N 
ATOM      7  H   LIG    1       -2.457   2.806  -4.237  0.00  0.00    +0.171 HD
ATOM      8  C   LIG    1       -2.748   2.260  -2.315  0.00  0.00    +0.252 A 
ATOM      9  O   LIG    1       -3.952   2.456  -2.306  0.00  0.00    -0.268 OA
ATOM     10  C   LIG    1       -2.090   1.794  -1.164  0.00  0.00    +0.093 A 
ENDBRANCH   1   5
BRANCH   1  11
ATOM     11  C   LIG    1        1.957   2.127  -4.409  0.00  0.00    +0.112 C 
BRANCH  11  12
ATOM     12  C   LIG    1        2.875   2.338  -5.584  0.00  0.00    -0.037 A 
ATOM     13  C   LIG    1        3.104   1.306  -6.476  0.00  0.00    +0.008 A 
ATOM     14  C   LIG    1        3.946   1.497  -7.554  0.00  0.00    +0.046 A 
ATOM     15  C   LIG    1        4.562   2.726  -7.743  0.00  0.00    +0.120 A 
ATOM     16  C   LIG    1        4.331   3.760  -6.847  0.00  0.00    +0.046 A 
ATOM     17  C   LIG    1        3.484   3.565  -5.773  0.00  0.00    +0.008 A 
BRANCH  15  18
ATOM     18  O   LIG    1        5.391   2.916  -8.802  0.00  0.00    -0.495 OA
ATOM     19  C   LIG    1        5.991   4.206  -8.934  0.00  0.00    +0.277 C 
ENDBRANCH  15  18
ENDBRANCH  11  12
ENDBRANCH   1  11
TORSDOF 4
