REMARK  Name = ZINC08764137
REMARK                            x       y       z     vdW  Elec       q    Type
REMARK                         _______ _______ _______ _____ _____    ______ ____
ROOT
ATOM      1  C   LIG    1       -2.978   3.825   0.050  0.00  0.00    +0.016 A 
ATOM      2  C   LIG    1       -1.645   4.120   0.040  0.00  0.00    +0.012 A 
ATOM      3  C   LIG    1       -0.704   3.086   0.025  0.00  0.00    +0.020 A 
ATOM      4  C   LIG    1        0.755   3.044   0.011  0.00  0.00    +0.142 A 
ATOM      5  N   LIG    1        1.117   1.793   0.001  0.00  0.00    -0.181 NA
ATOM      6  N   LIG    1       -0.011   0.966   0.007  0.00  0.00    -0.277 N 
ATOM      7  H   LIG    1        0.003  -0.034   0.006  0.00  0.00    +0.189 HD
ATOM      8  C   LIG    1       -1.138   1.746   0.016  0.00  0.00    +0.067 A 
ATOM      9  C   LIG    1       -2.502   1.468   0.034  0.00  0.00    +0.043 A 
ATOM     10  C   LIG    1       -3.410   2.503   0.048  0.00  0.00    +0.020 A 
ATOM     11 BR   LIG    1       -5.263   2.125   0.063  0.00  0.00    -0.050 Br
ENDROOT
TORSDOF 0
