REMARK  Name = ZINC09357357
REMARK                            x       y       z     vdW  Elec       q    Type
REMARK                         _______ _______ _______ _____ _____    ______ ____
ROOT
ATOM      1  C   LIG    1        3.711  -0.707  -0.038  0.00  0.00    +0.163 C 
ATOM      2  C   LIG    1        4.049  -1.209   1.355  0.00  0.00    +0.125 C 
ATOM      3  C   LIG    1        4.922  -2.455   0.926  0.00  0.00    +0.138 C 
ATOM      4  C   LIG    1        4.064  -3.050  -0.106  0.00  0.00    +0.206 C 
ATOM      5  C   LIG    1        2.866  -3.788   0.432  0.00  0.00    +0.204 C 
ATOM      6  C   LIG    1        2.883  -5.137  -0.164  0.00  0.00    +0.031 A 
ATOM      7  C   LIG    1        2.010  -6.215  -0.003  0.00  0.00    +0.012 A 
ATOM      8  C   LIG    1        2.238  -7.398  -0.680  0.00  0.00    +0.001 A 
ATOM      9  C   LIG    1        3.329  -7.525  -1.521  0.00  0.00    +0.001 A 
ATOM     10  C   LIG    1        4.206  -6.471  -1.694  0.00  0.00    +0.012 A 
ATOM     11  C   LIG    1        3.995  -5.267  -1.018  0.00  0.00    +0.031 A 
ATOM     12  O   LIG    1        2.042  -3.354   1.208  0.00  0.00    -0.288 OA
ATOM     13  C   LIG    1        4.769  -4.011  -1.026  0.00  0.00    +0.204 C 
ATOM     14  O   LIG    1        5.781  -3.793  -1.657  0.00  0.00    -0.288 OA
ATOM     15  C   LIG    1        5.564  -2.790   2.174  0.00  0.00    +0.234 C 
ATOM     16  N   LIG    1        5.779  -1.586   2.798  0.00  0.00    -0.210 N 
ATOM     17  O   LIG    1        5.851  -3.895   2.583  0.00  0.00    -0.274 OA
ATOM     18  C   LIG    1        5.079  -0.544   2.212  0.00  0.00    +0.233 C 
ATOM     19  O   LIG    1        5.249   0.647   2.359  0.00  0.00    -0.274 OA
ATOM     20  O   LIG    1        3.612  -1.893  -0.874  0.00  0.00    -0.348 OA
ENDROOT
BRANCH  16  21
ATOM     21  C   LIG    1        6.617  -1.425   3.912  0.00  0.00    +0.048 A 
ATOM     22  C   LIG    1        7.288  -2.520   4.439  0.00  0.00    +0.028 A 
ATOM     23  C   LIG    1        8.115  -2.364   5.535  0.00  0.00    +0.051 A 
ATOM     24  C   LIG    1        8.275  -1.114   6.112  0.00  0.00    +0.166 A 
ATOM     25  C   LIG    1        7.602  -0.014   5.586  0.00  0.00    +0.168 A 
ATOM     26  O   LIG    1        7.924   1.089   6.324  0.00  0.00    -0.453 OA
ATOM     27  C   LIG    1        8.477   0.581   7.552  0.00  0.00    +0.466 C 
ATOM     28  O   LIG    1        9.019  -0.700   7.180  0.00  0.00    -0.453 OA
ATOM     29  C   LIG    1        6.779  -0.171   4.483  0.00  0.00    +0.073 A 
ENDBRANCH  16  21
BRANCH   1  33
ATOM     30  C   LIG    1       -0.017   1.378   0.010  0.00  0.00    +0.000 A 
ATOM     31  C   LIG    1        1.171   2.086   0.002  0.00  0.00    +0.000 A 
ATOM     32  C   LIG    1        2.377   1.411  -0.013  0.00  0.00    +0.006 A 
ATOM     33  C   LIG    1        2.396   0.029  -0.020  0.00  0.00    -0.018 A 
ATOM     34  C   LIG    1        1.208  -0.679  -0.012  0.00  0.00    +0.006 A 
ATOM     35  C   LIG    1        0.002  -0.004   0.002  0.00  0.00    +0.000 A 
ENDBRANCH   1  33
TORSDOF 2
