REMARK  Name = ZINC12336348
REMARK                            x       y       z     vdW  Elec       q    Type
REMARK                         _______ _______ _______ _____ _____    ______ ____
ROOT
ATOM      1  N   LIG    1       -1.998   1.723   2.993  0.00  0.00    -0.220 N 
ATOM      2  C   LIG    1       -1.645   0.898   1.969  0.00  0.00    +0.137 A 
ATOM      3  C   LIG    1       -0.718   1.572   1.248  0.00  0.00    +0.066 A 
ATOM      4  N   LIG    1       -0.547   2.751   1.855  0.00  0.00    -0.136 NA
ATOM      5  N   LIG    1       -1.321   2.812   2.880  0.00  0.00    -0.061 NA
ENDROOT
BRANCH   1   9
ATOM      6  C   LIG    1       -4.788   0.870   5.971  0.00  0.00    +0.000 A 
ATOM      7  C   LIG    1       -4.128   2.086   5.971  0.00  0.00    +0.002 A 
ATOM      8  C   LIG    1       -3.203   2.371   4.985  0.00  0.00    +0.028 A 
ATOM      9  C   LIG    1       -2.936   1.436   3.995  0.00  0.00    +0.067 A 
ATOM     10  C   LIG    1       -3.603   0.218   3.995  0.00  0.00    +0.028 A 
ATOM     11  C   LIG    1       -4.523  -0.063   4.986  0.00  0.00    +0.002 A 
ENDBRANCH   1   9
BRANCH   3  12
ATOM     12  C   LIG    1       -0.013   1.086   0.008  0.00  0.00    -0.027 C 
BRANCH  12  13
ATOM     13  N   LIG    1       -0.721   1.597  -1.179  0.00  0.00    +0.382 N 
ATOM     14  H   LIG    1       -0.694   2.624  -1.171  0.00  0.00    -0.090 HD
ATOM     15  H   LIG    1       -1.692   1.290  -1.166  0.00  0.00    -0.090 HD
ATOM     16  H   LIG    1       -0.269   1.260  -2.027  0.00  0.00    -0.090 HD
ENDBRANCH  12  13
ENDBRANCH   3  12
TORSDOF 3
