REMARK  Name = ZINC10186822
REMARK                            x       y       z     vdW  Elec       q    Type
REMARK                         _______ _______ _______ _____ _____    ______ ____
ROOT
ATOM      1  N   LIG    1        4.023  -8.057  -0.079  0.00  0.00    -0.285 N 
ATOM      2  H   LIG    1        3.334  -8.736  -0.003  0.00  0.00    +0.155 HD
ATOM      3  C   LIG    1        5.316  -8.419  -0.189  0.00  0.00    +0.220 C 
ATOM      4  O   LIG    1        6.185  -7.573  -0.188  0.00  0.00    -0.275 OA
ENDROOT
BRANCH   1   8
ATOM      5  C   LIG    1        2.982  -4.022  -0.066  0.00  0.00    +0.007 A 
ATOM      6  C   LIG    1        4.068  -4.462  -0.825  0.00  0.00    +0.012 A 
ATOM      7  C   LIG    1        4.410  -5.796  -0.827  0.00  0.00    +0.024 A 
ATOM      8  C   LIG    1        3.674  -6.705  -0.074  0.00  0.00    +0.033 A 
ATOM      9  C   LIG    1        2.591  -6.270   0.682  0.00  0.00    +0.024 A 
ATOM     10  C   LIG    1        2.249  -4.936   0.694  0.00  0.00    +0.012 A 
BRANCH   5  17
ATOM     11  C   LIG    1        2.668   2.051  -1.035  0.00  0.00    +0.002 A 
ATOM     12  C   LIG    1        1.569   2.208  -0.202  0.00  0.00    +0.001 A 
ATOM     13  C   LIG    1        1.039   1.102   0.437  0.00  0.00    +0.017 A 
ATOM     14  C   LIG    1        1.609  -0.131   0.235  0.00  0.00    +0.040 A 
ATOM     15  C   LIG    1        2.729  -0.324  -0.607  0.00  0.00    +0.079 A 
ATOM     16  N   LIG    1        3.175  -1.591  -0.705  0.00  0.00    -0.239 NA
ATOM     17  C   LIG    1        2.612  -2.591  -0.062  0.00  0.00    +0.109 A 
ATOM     18  S   LIG    1        1.286  -1.778   0.819  0.00  0.00    -0.067 S 
ATOM     19  C   LIG    1        3.240   0.834  -1.241  0.00  0.00    +0.029 A 
ENDBRANCH   5  17
ENDBRANCH   1   8
BRANCH   3  20
ATOM     20  C   LIG    1        5.683  -9.876  -0.313  0.00  0.00    +0.078 C 
ATOM     21  C   LIG    1        5.190 -10.633   0.922  0.00  0.00    +0.030 C 
ATOM     22  C   LIG    1        5.534 -12.119   0.776  0.00  0.00    +0.110 C 
ATOM     23  N   LIG    1        6.976 -12.248   0.525  0.00  0.00    -0.176 NA
ATOM     24  C   LIG    1        7.571 -11.489  -0.584  0.00  0.00    +0.110 C 
ATOM     25  C   LIG    1        7.204 -10.011  -0.422  0.00  0.00    +0.030 C 
BRANCH  23  26
ATOM     26  S   LIG    1        7.913 -13.229   1.475  0.00  0.00    +0.067 S 
ATOM     27  O   LIG    1        7.236 -13.357   2.718  0.00  0.00    -0.152 OA
ATOM     28  O   LIG    1        9.243 -12.738   1.379  0.00  0.00    -0.152 OA
BRANCH  26  29
ATOM     29  C   LIG    1        7.911 -14.827   0.734  0.00  0.00    +0.143 A 
ATOM     30  C   LIG    1        8.762 -15.342  -0.188  0.00  0.00    +0.036 A 
ATOM     31  C   LIG    1        8.567 -16.636  -0.632  0.00  0.00    +0.010 A 
ATOM     32  C   LIG    1        7.531 -17.353  -0.133  0.00  0.00    +0.047 A 
ATOM     33  S   LIG    1        6.794 -16.192   1.007  0.00  0.00    -0.077 S 
ENDBRANCH  26  29
ENDBRANCH  23  26
ENDBRANCH   3  20
TORSDOF 5
