REMARK  Name = ZINC12853771
REMARK                            x       y       z     vdW  Elec       q    Type
REMARK                         _______ _______ _______ _____ _____    ______ ____
ROOT
ATOM      1  N   LIG    1        5.139   8.366   0.860  0.00  0.00    +0.382 N 
ATOM      2  H   LIG    1        4.377   8.791   1.400  0.00  0.00    -0.081 HD
ATOM      3  C   LIG    1        5.444   7.035   1.427  0.00  0.00    -0.077 C 
ATOM      4  C   LIG    1        4.165   6.194   1.435  0.00  0.00    +0.004 C 
ATOM      5  C   LIG    1        3.652   6.039   0.001  0.00  0.00    +0.070 C 
ATOM      6  C   LIG    1        3.412   7.427  -0.600  0.00  0.00    +0.004 C 
ATOM      7  C   LIG    1        4.713   8.232  -0.549  0.00  0.00    -0.077 C 
ENDROOT
BRANCH   5   8
ATOM      8  N   LIG    1        2.397   5.285   0.008  0.00  0.00    -0.309 N 
ATOM      9  H   LIG    1        1.548   5.755   0.018  0.00  0.00    +0.149 HD
ATOM     10  C   LIG    1        2.420   3.937   0.001  0.00  0.00    +0.244 C 
ATOM     11  O   LIG    1        3.483   3.348  -0.012  0.00  0.00    -0.270 OA
BRANCH  10  12
ATOM     12  C   LIG    1        1.153   3.176   0.008  0.00  0.00    +0.037 A 
ATOM     13  C   LIG    1        1.174   1.780   0.000  0.00  0.00    +0.013 A 
ATOM     14  C   LIG    1       -0.013   1.076   0.008  0.00  0.00    +0.001 A 
ATOM     15  C   LIG    1       -1.221   1.750   0.017  0.00  0.00    +0.000 A 
ATOM     16  C   LIG    1       -1.248   3.133   0.031  0.00  0.00    +0.001 A 
ATOM     17  C   LIG    1       -0.070   3.849   0.023  0.00  0.00    +0.013 A 
ENDBRANCH  10  12
ENDBRANCH   5   8
BRANCH   1  18
ATOM     18  C   LIG    1        6.331   9.235   0.946  0.00  0.00    -0.051 C 
BRANCH  18  20
ATOM     19  C   LIG    1        7.812   9.284   2.904  0.00  0.00    +0.002 C 
ATOM     20  C   LIG    1        6.612   9.531   2.397  0.00  0.00    -0.045 C 
BRANCH  19  24
ATOM     21  C   LIG    1        8.603  10.119   6.992  0.00  0.00    +0.000 A 
ATOM     22  C   LIG    1        9.600   9.588   6.192  0.00  0.00    +0.001 A 
ATOM     23  C   LIG    1        9.349   9.315   4.863  0.00  0.00    +0.008 A 
ATOM     24  C   LIG    1        8.087   9.574   4.326  0.00  0.00    -0.025 A 
ATOM     25  C   LIG    1        7.088  10.114   5.137  0.00  0.00    +0.008 A 
ATOM     26  C   LIG    1        7.350  10.378   6.466  0.00  0.00    +0.001 A 
ENDBRANCH  19  24
ENDBRANCH  18  20
ENDBRANCH   1  18
TORSDOF 5
