REMARK  Name = ZINC08969139
REMARK                            x       y       z     vdW  Elec       q    Type
REMARK                         _______ _______ _______ _____ _____    ______ ____
ROOT
ATOM      1  C   LIG    1       -0.006  -2.762  -4.835  0.00  0.00    +0.026 C 
ATOM      2  C   LIG    1        0.488  -2.155  -5.980  0.00  0.00    +0.096 C 
ATOM      3  C   LIG    1        0.398  -2.807  -7.295  0.00  0.00    +0.218 C 
ATOM      4  N   LIG    1        0.888  -2.173  -8.348  0.00  0.00    -0.127 NA
ATOM      5  C   LIG    1        1.455  -0.973  -8.249  0.00  0.00    +0.333 C 
ATOM      6  N   LIG    1        1.581  -0.304  -7.094  0.00  0.00    -0.234 N 
ATOM      7  H   LIG    1        2.005   0.568  -7.092  0.00  0.00    +0.159 HD
ATOM      8  O   LIG    1        1.883  -0.454  -9.265  0.00  0.00    -0.250 OA
ATOM      9  C   LIG    1        1.122  -0.823  -5.935  0.00  0.00    +0.256 C 
ATOM     10  O   LIG    1        1.231  -0.213  -4.887  0.00  0.00    -0.270 OA
ENDROOT
BRANCH   1  14
ATOM     11  C   LIG    1       -0.302  -0.586  -1.278  0.00  0.00    +0.029 A 
ATOM     12  C   LIG    1        0.249  -1.866  -1.264  0.00  0.00    +0.023 A 
ATOM     13  C   LIG    1        0.348  -2.581  -2.422  0.00  0.00    +0.010 A 
ATOM     14  C   LIG    1       -0.106  -2.024  -3.629  0.00  0.00    -0.024 A 
ATOM     15  C   LIG    1       -0.661  -0.734  -3.636  0.00  0.00    +0.010 A 
ATOM     16  C   LIG    1       -0.761  -0.030  -2.472  0.00  0.00    +0.023 A 
BRANCH  11  18
ATOM     17  C   LIG    1       -0.985   1.480  -0.107  0.00  0.00    +0.129 C 
ATOM     18  N   LIG    1       -0.401   0.137  -0.097  0.00  0.00    -0.336 N 
ATOM     19  C   LIG    1        0.080  -0.444   1.159  0.00  0.00    +0.129 C 
ENDBRANCH  11  18
ENDBRANCH   1  14
BRANCH   3  20
ATOM     20  O   LIG    1       -0.172  -4.023  -7.426  0.00  0.00    -0.493 OA
ATOM     21  H   LIG    1       -0.516  -4.463  -6.673  0.00  0.00    +0.294 HD
ENDBRANCH   3  20
TORSDOF 3
