REMARK  Name = ZINC12952552
REMARK                            x       y       z     vdW  Elec       q    Type
REMARK                         _______ _______ _______ _____ _____    ______ ____
ROOT
ATOM      1  C   LIG    1       -3.444   1.742   3.360  0.00  0.00    +0.105 C 
ATOM      2  N   LIG    1       -3.511   2.767   2.310  0.00  0.00    -0.302 NA
ATOM      3  C   LIG    1       -4.699   3.612   2.476  0.00  0.00    +0.112 C 
ATOM      4  C   LIG    1       -4.846   4.527   1.249  0.00  0.00    +0.160 C 
ATOM      5  C   LIG    1       -4.919   3.636  -0.002  0.00  0.00    +0.131 C 
ATOM      6  N   LIG    1       -3.722   2.789  -0.062  0.00  0.00    -0.286 NA
ATOM      7  C   LIG    1       -3.842   1.783  -1.127  0.00  0.00    +0.106 C 
ATOM      8  C   LIG    1       -2.492   3.574  -0.217  0.00  0.00    +0.131 C 
ATOM      9  C   LIG    1       -2.298   4.462   1.023  0.00  0.00    +0.160 C 
ATOM     10  C   LIG    1       -3.550   5.324   1.142  0.00  0.00    +0.173 C 
ATOM     11  O   LIG    1       -3.519   6.531   1.150  0.00  0.00    -0.295 OA
ATOM     12  C   LIG    1       -2.272   3.551   2.261  0.00  0.00    +0.112 C 
ENDROOT
BRANCH   5  13
ATOM     13  C   LIG    1       -4.987   4.502  -1.233  0.00  0.00    +0.060 A 
ATOM     14  C   LIG    1       -5.963   4.263  -2.183  0.00  0.00    +0.025 A 
ATOM     15  C   LIG    1       -6.017   5.065  -3.312  0.00  0.00    +0.003 A 
ATOM     16  C   LIG    1       -5.084   6.082  -3.445  0.00  0.00    +0.020 A 
ATOM     17  C   LIG    1       -4.138   6.261  -2.454  0.00  0.00    +0.111 A 
ATOM     18  N   LIG    1       -4.119   5.481  -1.390  0.00  0.00    -0.258 NA
ENDBRANCH   5  13
BRANCH   8  19
ATOM     19  C   LIG    1       -1.315   2.642  -0.357  0.00  0.00    +0.060 A 
ATOM     20  C   LIG    1       -0.529   2.701  -1.493  0.00  0.00    +0.025 A 
ATOM     21  C   LIG    1        0.547   1.836  -1.615  0.00  0.00    +0.003 A 
ATOM     22  C   LIG    1        0.801   0.948  -0.580  0.00  0.00    +0.020 A 
ATOM     23  C   LIG    1       -0.025   0.951   0.527  0.00  0.00    +0.111 A 
ATOM     24  N   LIG    1       -1.044   1.785   0.607  0.00  0.00    -0.258 NA
ENDBRANCH   8  19
BRANCH   4  25
ATOM     25  C   LIG    1       -6.047   5.431   1.357  0.00  0.00    +0.324 C 
ATOM     26  O   LIG    1       -6.919   5.379   0.523  0.00  0.00    -0.250 OA
BRANCH  25  27
ATOM     27  O   LIG    1       -6.148   6.293   2.381  0.00  0.00    -0.467 OA
ATOM     28  C   LIG    1       -7.332   7.132   2.422  0.00  0.00    +0.280 C 
ENDBRANCH  25  27
ENDBRANCH   4  25
BRANCH   9  29
ATOM     29  C   LIG    1       -1.052   5.304   0.913  0.00  0.00    +0.324 C 
ATOM     30  O   LIG    1       -0.352   5.222  -0.068  0.00  0.00    -0.250 OA
BRANCH  29  31
ATOM     31  O   LIG    1       -0.721   6.144   1.906  0.00  0.00    -0.467 OA
ATOM     32  C   LIG    1        0.492   6.923   1.732  0.00  0.00    +0.280 C 
ENDBRANCH  29  31
ENDBRANCH   9  29
TORSDOF 6
