REMARK  Name = ZINC08670452
REMARK                            x       y       z     vdW  Elec       q    Type
REMARK                         _______ _______ _______ _____ _____    ______ ____
ROOT
ATOM      1  C   LIG    1        0.680  -7.368   2.048  0.00  0.00    +0.171 A 
ATOM      2  N   LIG    1       -0.508  -7.822   1.708  0.00  0.00    -0.185 NA
ATOM      3  C   LIG    1       -1.040  -8.918   2.258  0.00  0.00    +0.283 A 
ATOM      4  O   LIG    1       -2.146  -9.306   1.915  0.00  0.00    -0.265 OA
ATOM      5  C   LIG    1       -0.275  -9.658   3.288  0.00  0.00    +0.080 A 
ATOM      6  C   LIG    1       -0.636 -10.865   4.024  0.00  0.00    +0.010 A 
ATOM      7  C   LIG    1        0.242 -11.362   4.929  0.00  0.00    +0.057 A 
ATOM      8  S   LIG    1        1.611 -10.224   4.838  0.00  0.00    -0.078 S 
ATOM      9  C   LIG    1        0.976  -9.124   3.601  0.00  0.00    +0.093 A 
ATOM     10  N   LIG    1        1.441  -8.002   2.984  0.00  0.00    -0.328 N 
ATOM     11  H   LIG    1        2.315  -7.651   3.215  0.00  0.00    +0.168 HD
ENDROOT
BRANCH   6  12
ATOM     12  C   LIG    1       -1.934 -11.531   3.787  0.00  0.00    +0.021 A 
ATOM     13  C   LIG    1       -2.192 -12.853   3.538  0.00  0.00    +0.016 A 
ATOM     14  C   LIG    1       -3.500 -13.247   3.347  0.00  0.00    +0.008 A 
ATOM     15  C   LIG    1       -4.487 -12.318   3.411  0.00  0.00    +0.046 A 
ATOM     16  S   LIG    1       -3.573 -10.825   3.759  0.00  0.00    -0.097 S 
ENDBRANCH   6  12
BRANCH   1  17
ATOM     17  S   LIG    1        1.302  -5.915   1.270  0.00  0.00    -0.080 S 
BRANCH  17  18
ATOM     18  C   LIG    1       -0.019  -5.429   0.126  0.00  0.00    +0.151 C 
BRANCH  18  22
ATOM     19  C   LIG    1        0.659  -2.064  -1.123  0.00  0.00    +0.212 A 
ATOM     20  C   LIG    1        1.237  -2.795  -2.122  0.00  0.00    +0.057 A 
ATOM     21  C   LIG    1        1.061  -4.146  -1.787  0.00  0.00    +0.046 A 
ATOM     22  C   LIG    1        0.391  -4.181  -0.614  0.00  0.00    +0.116 A 
ATOM     23  O   LIG    1        0.155  -2.925  -0.214  0.00  0.00    -0.452 OA
BRANCH  19  24
ATOM     24  C   LIG    1        0.601  -0.603  -1.048  0.00  0.00    +0.375 C 
ATOM     25  O   LIG    1        1.094   0.071  -1.932  0.00  0.00    -0.241 OA
BRANCH  24  27
ATOM     26  C   LIG    1       -0.017   1.425   0.010  0.00  0.00    +0.280 C 
ATOM     27  O   LIG    1        0.002  -0.004   0.002  0.00  0.00    -0.462 OA
ENDBRANCH  24  27
ENDBRANCH  19  24
ENDBRANCH  18  22
ENDBRANCH  17  18
ENDBRANCH   1  17
TORSDOF 6
