REMARK  Name = ZINC08836022
REMARK                            x       y       z     vdW  Elec       q    Type
REMARK                         _______ _______ _______ _____ _____    ______ ____
ROOT
ATOM      1  C   LIG    1        1.806  -3.831   2.649  0.00  0.00    +0.387 C 
ATOM      2  N   LIG    1        2.249  -5.030   2.978  0.00  0.00    +0.013 NA
ENDROOT
BRANCH   1   3
ATOM      3  N   LIG    1        1.179  -3.638   1.445  0.00  0.00    -0.159 N 
ATOM      4  H   LIG    1        1.459  -2.914   0.863  0.00  0.00    +0.256 HD
ATOM      5  C   LIG    1        0.175  -4.455   1.070  0.00  0.00    +0.368 C 
ATOM      6  N   LIG    1       -0.368  -4.335  -0.158  0.00  0.00    -0.256 N 
ATOM      7  H   LIG    1        0.012  -3.713  -0.798  0.00  0.00    +0.158 HD
ATOM      8  O   LIG    1       -0.241  -5.300   1.839  0.00  0.00    -0.233 OA
BRANCH   6   9
ATOM      9  C   LIG    1       -1.481  -5.108  -0.509  0.00  0.00    +0.036 A 
ATOM     10  C   LIG    1       -2.367  -5.538   0.470  0.00  0.00    +0.023 A 
ATOM     11  C   LIG    1       -3.464  -6.301   0.120  0.00  0.00    +0.002 A 
ATOM     12  C   LIG    1       -3.681  -6.635  -1.204  0.00  0.00    +0.000 A 
ATOM     13  C   LIG    1       -2.801  -6.208  -2.181  0.00  0.00    +0.002 A 
ATOM     14  C   LIG    1       -1.705  -5.441  -1.839  0.00  0.00    +0.023 A 
ENDBRANCH   6   9
ENDBRANCH   1   3
BRANCH   2  15
ATOM     15  C   LIG    1        2.377  -5.980   2.039  0.00  0.00    +0.403 C 
ATOM     16  N   LIG    1        2.758  -7.225   2.386  0.00  0.00    -0.254 N 
ATOM     17  H   LIG    1        2.915  -7.893   1.701  0.00  0.00    +0.158 HD
ATOM     18  O   LIG    1        2.150  -5.716   0.872  0.00  0.00    -0.230 OA
BRANCH  16  19
ATOM     19  C   LIG    1        2.926  -7.554   3.736  0.00  0.00    +0.036 A 
ATOM     20  C   LIG    1        2.088  -7.003   4.696  0.00  0.00    +0.023 A 
ATOM     21  C   LIG    1        2.256  -7.330   6.027  0.00  0.00    +0.002 A 
ATOM     22  C   LIG    1        3.259  -8.204   6.404  0.00  0.00    +0.000 A 
ATOM     23  C   LIG    1        4.095  -8.755   5.451  0.00  0.00    +0.002 A 
ATOM     24  C   LIG    1        3.928  -8.437   4.117  0.00  0.00    +0.023 A 
ENDBRANCH  16  19
ENDBRANCH   2  15
BRANCH   1  25
ATOM     25  N   LIG    1        1.971  -2.781   3.509  0.00  0.00    -0.214 N 
ATOM     26  H   LIG    1        2.452  -2.907   4.342  0.00  0.00    +0.268 HD
BRANCH  25  36
ATOM     27  C   LIG    1        1.364   1.797   4.787  0.00  0.00    +0.066 C 
ATOM     28  C   LIG    1        1.156   0.674   3.804  0.00  0.00    +0.053 A 
ATOM     29  C   LIG    1        0.456   0.890   2.602  0.00  0.00    +0.022 A 
ATOM     30  C   LIG    1       -0.075   2.144   2.265  0.00  0.00    +0.012 A 
ATOM     31  C   LIG    1       -0.743   2.295   1.087  0.00  0.00    +0.001 A 
ATOM     32  C   LIG    1       -0.906   1.222   0.213  0.00  0.00    +0.002 A 
ATOM     33  C   LIG    1       -0.404  -0.009   0.509  0.00  0.00    +0.028 A 
ATOM     34  C   LIG    1        0.291  -0.202   1.712  0.00  0.00    +0.078 A 
ATOM     35  N   LIG    1        0.805  -1.391   2.051  0.00  0.00    -0.198 NA
ATOM     36  C   LIG    1        1.451  -1.534   3.191  0.00  0.00    +0.293 A 
ATOM     37  N   LIG    1        1.630  -0.530   4.046  0.00  0.00    -0.203 NA
ENDBRANCH  25  36
ENDBRANCH   1  25
TORSDOF 6
