REMARK  Name = ZINC08727138
REMARK                            x       y       z     vdW  Elec       q    Type
REMARK                         _______ _______ _______ _____ _____    ______ ____
ROOT
ATOM      1  C   LIG    1        0.826   5.123   0.023  0.00  0.00    +0.137 A 
ATOM      2  C   LIG    1        2.200   5.047   0.009  0.00  0.00    +0.051 A 
ATOM      3  C   LIG    1        2.533   3.689   0.003  0.00  0.00    +0.057 A 
ATOM      4  C   LIG    1        1.347   2.987   0.005  0.00  0.00    +0.212 A 
ATOM      5  O   LIG    1        0.330   3.873   0.020  0.00  0.00    -0.448 OA
ENDROOT
BRANCH   1   9
ATOM      6  C   LIG    1       -1.466   8.708   0.067  0.00  0.00    +0.001 A 
ATOM      7  C   LIG    1       -0.433   8.529   0.973  0.00  0.00    +0.001 A 
ATOM      8  C   LIG    1        0.314   7.368   0.964  0.00  0.00    +0.012 A 
ATOM      9  C   LIG    1        0.031   6.364   0.038  0.00  0.00    +0.027 A 
ATOM     10  C   LIG    1       -1.018   6.548  -0.889  0.00  0.00    +0.025 A 
ATOM     11  C   LIG    1       -1.765   7.729  -0.857  0.00  0.00    +0.012 A 
BRANCH  10  12
ATOM     12  C   LIG    1       -1.326   5.504  -1.875  0.00  0.00    +0.259 C 
ATOM     13  O   LIG    1       -2.229   5.667  -2.669  0.00  0.00    -0.296 OA
ENDBRANCH  10  12
ENDBRANCH   1   9
BRANCH   4  14
ATOM     14  C   LIG    1        1.214   1.528  -0.001  0.00  0.00    +0.372 C 
ATOM     15  O   LIG    1        2.207   0.827  -0.015  0.00  0.00    -0.242 OA
BRANCH  14  16
ATOM     16  O   LIG    1       -0.011   0.963   0.007  0.00  0.00    -0.475 OA
ATOM     17  H   LIG    1       -0.776   1.503   0.018  0.00  0.00    +0.296 HD
ENDBRANCH  14  16
ENDBRANCH   4  14
TORSDOF 4
