REMARK  Name = ZINC12590430
REMARK                            x       y       z     vdW  Elec       q    Type
REMARK                         _______ _______ _______ _____ _____    ______ ____
ROOT
ATOM      1  C   LIG    1        5.393   3.391  -0.033  0.00  0.00    +0.028 C 
ATOM      2  C   LIG    1        6.521   2.694  -0.315  0.00  0.00    +0.074 C 
ATOM      3  C   LIG    1        6.756   1.229  -0.323  0.00  0.00    +0.217 C 
ATOM      4  N   LIG    1        7.969   0.835  -0.639  0.00  0.00    -0.165 NA
ATOM      5  C   LIG    1        8.938   1.688  -0.937  0.00  0.00    +0.139 C 
ATOM      6  S   LIG    1       10.607   1.336  -1.379  0.00  0.00    -0.026 S 
ATOM      7  S   LIG    1        8.147   3.281  -0.774  0.00  0.00    -0.060 S 
ENDROOT
BRANCH   1  14
ATOM      8  C   LIG    1        4.257   5.593   0.183  0.00  0.00    +0.009 A 
ATOM      9  C   LIG    1        4.311   6.966   0.287  0.00  0.00    +0.020 A 
ATOM     10  C   LIG    1        5.534   7.618   0.270  0.00  0.00    +0.041 A 
ATOM     11 CL   LIG    1        5.591   9.349   0.394  0.00  0.00    -0.084 Cl
ATOM     12  C   LIG    1        6.711   6.896   0.154  0.00  0.00    +0.020 A 
ATOM     13  C   LIG    1        6.673   5.522   0.056  0.00  0.00    +0.009 A 
ATOM     14  C   LIG    1        5.442   4.856   0.072  0.00  0.00    -0.024 A 
ENDBRANCH   1  14
BRANCH   3  15
ATOM     15  O   LIG    1        5.871   0.434  -0.050  0.00  0.00    -0.493 OA
ATOM     16  H   LIG    1        5.015   0.743   0.172  0.00  0.00    +0.294 HD
ENDBRANCH   3  15
TORSDOF 2
