REMARK  Name = ZINC08860530
REMARK                            x       y       z     vdW  Elec       q    Type
REMARK                         _______ _______ _______ _____ _____    ______ ____
ROOT
ATOM      1  C   LIG    1       -3.547 -13.323  -4.843  0.00  0.00    +0.011 C 
ENDROOT
BRANCH   1   2
ATOM      2  C   LIG    1       -2.580 -13.768  -5.943  0.00  0.00    +0.120 C 
BRANCH   2   3
ATOM      3  C   LIG    1       -2.695 -15.258  -6.140  0.00  0.00    +0.307 C 
ATOM      4  O   LIG    1       -3.470 -15.898  -5.470  0.00  0.00    -0.251 OA
BRANCH   3   5
ATOM      5  O   LIG    1       -1.936 -15.874  -7.059  0.00  0.00    -0.462 OA
BRANCH   5   6
ATOM      6  C   LIG    1       -2.097 -17.288  -7.192  0.00  0.00    +0.265 C 
BRANCH   6   7
ATOM      7  C   LIG    1       -1.156 -17.808  -8.281  0.00  0.00    +0.178 C 
BRANCH   7   8
ATOM      8  O   LIG    1        0.200 -17.618  -7.869  0.00  0.00    -0.386 OA
ATOM      9  H   LIG    1        0.430 -18.078  -7.050  0.00  0.00    +0.210 HD
ENDBRANCH   7   8
BRANCH   7  10
ATOM     10  C   LIG    1       -1.416 -19.298  -8.510  0.00  0.00    +0.207 C 
BRANCH  10  11
ATOM     11  O   LIG    1       -0.620 -19.757  -9.605  0.00  0.00    -0.284 OA
BRANCH  11  12
ATOM     12  P   LIG    1       -0.641 -21.280 -10.126  0.00  0.00    +0.472 P 
ATOM     13  O   LIG    1       -2.093 -21.691 -10.460  0.00  0.00    -0.228 OA
BRANCH  12  14
ATOM     14  O   LIG    1        0.270 -21.409 -11.447  0.00  0.00    -0.303 OA
ATOM     15  H   LIG    1        0.304 -22.302 -11.816  0.00  0.00    +0.222 HD
ENDBRANCH  12  14
BRANCH  12  16
ATOM     16  O   LIG    1       -0.084 -22.209  -9.024  0.00  0.00    -0.303 OA
ATOM     17  H   LIG    1       -0.633 -22.132  -8.228  0.00  0.00    +0.222 HD
ENDBRANCH  12  16
ENDBRANCH  11  12
ENDBRANCH  10  11
ENDBRANCH   7  10
ENDBRANCH   6   7
ENDBRANCH   5   6
ENDBRANCH   3   5
ENDBRANCH   2   3
ENDBRANCH   1   2
BRANCH   1  18
ATOM     18  C   LIG    1       -3.431 -11.811  -4.644  0.00  0.00    +0.001 C 
BRANCH  18  19
ATOM     19  C   LIG    1       -4.397 -11.366  -3.544  0.00  0.00    +0.000 C 
BRANCH  19  20
ATOM     20  C   LIG    1       -4.281  -9.853  -3.344  0.00  0.00    +0.000 C 
BRANCH  20  21
ATOM     21  C   LIG    1       -5.247  -9.408  -2.245  0.00  0.00    +0.004 C 
BRANCH  21  22
ATOM     22  C   LIG    1       -5.131  -7.896  -2.045  0.00  0.00    +0.027 C 
BRANCH  22  24
ATOM     23  C   LIG    1       -5.641  -6.764   0.057  0.00  0.00    -0.031 C 
ATOM     24  C   LIG    1       -6.083  -7.458  -0.963  0.00  0.00    -0.031 C 
BRANCH  23  25
ATOM     25  C   LIG    1       -4.221  -6.260   0.067  0.00  0.00    +0.027 C 
BRANCH  25  26
ATOM     26  C   LIG    1       -4.216  -4.756   0.350  0.00  0.00    +0.004 C 
BRANCH  26  27
ATOM     27  C   LIG    1       -2.774  -4.244   0.359  0.00  0.00    +0.000 C 
BRANCH  27  28
ATOM     28  C   LIG    1       -2.769  -2.740   0.642  0.00  0.00    +0.000 C 
BRANCH  28  29
ATOM     29  C   LIG    1       -1.327  -2.228   0.651  0.00  0.00    -0.000 C 
BRANCH  29  30
ATOM     30  C   LIG    1       -1.322  -0.725   0.934  0.00  0.00    -0.000 C 
BRANCH  30  32
ATOM     31  C   LIG    1        0.124   1.291   1.226  0.00  0.00    +0.004 C 
ATOM     32  C   LIG    1        0.119  -0.212   0.944  0.00  0.00    -0.003 C 
ENDBRANCH  30  32
ENDBRANCH  29  30
ENDBRANCH  28  29
ENDBRANCH  27  28
ENDBRANCH  26  27
ENDBRANCH  25  26
ENDBRANCH  23  25
ENDBRANCH  22  24
ENDBRANCH  21  22
ENDBRANCH  20  21
ENDBRANCH  19  20
ENDBRANCH  18  19
ENDBRANCH   1  18
TORSDOF 24
