REMARK  Name = ZINC12375998
REMARK                            x       y       z     vdW  Elec       q    Type
REMARK                         _______ _______ _______ _____ _____    ______ ____
ROOT
ATOM      1  C   LIG    1        3.711  -0.707  -0.038  0.00  0.00    +0.119 C 
ENDROOT
BRANCH   1   2
ATOM      2  C   LIG    1        3.539  -2.043  -0.764  0.00  0.00    +0.026 C 
ATOM      3  C   LIG    1        3.088  -1.788  -2.205  0.00  0.00    -0.012 C 
ATOM      4  C   LIG    1        2.994  -3.122  -2.948  0.00  0.00    -0.082 C 
ATOM      5  N   LIG    1        4.308  -3.776  -2.954  0.00  0.00    +0.379 N 
ATOM      6  H   LIG    1        4.988  -3.159  -3.372  0.00  0.00    -0.086 HD
ATOM      7  H   LIG    1        4.256  -4.629  -3.490  0.00  0.00    -0.086 HD
ATOM      8  C   LIG    1        4.715  -4.089  -1.578  0.00  0.00    -0.082 C 
ATOM      9  C   LIG    1        4.875  -2.792  -0.782  0.00  0.00    -0.012 C 
ENDBRANCH   1   2
BRANCH   1  13
ATOM     10  C   LIG    1       -0.017   1.378   0.010  0.00  0.00    +0.000 A 
ATOM     11  C   LIG    1        1.171   2.086   0.002  0.00  0.00    +0.000 A 
ATOM     12  C   LIG    1        2.377   1.411  -0.013  0.00  0.00    +0.007 A 
ATOM     13  C   LIG    1        2.396   0.029  -0.020  0.00  0.00    -0.011 A 
ATOM     14  C   LIG    1        1.208  -0.679  -0.012  0.00  0.00    +0.007 A 
ATOM     15  C   LIG    1        0.002  -0.004   0.002  0.00  0.00    +0.000 A 
ENDBRANCH   1  13
BRANCH   1  16
ATOM     16  C   LIG    1        4.164  -0.959   1.377  0.00  0.00    -0.011 A 
ATOM     17  C   LIG    1        3.793  -2.123   2.025  0.00  0.00    +0.007 A 
ATOM     18  C   LIG    1        4.208  -2.354   3.323  0.00  0.00    +0.000 A 
ATOM     19  C   LIG    1        4.996  -1.423   3.973  0.00  0.00    +0.000 A 
ATOM     20  C   LIG    1        5.369  -0.260   3.325  0.00  0.00    +0.000 A 
ATOM     21  C   LIG    1        4.957  -0.030   2.025  0.00  0.00    +0.007 A 
ENDBRANCH   1  16
BRANCH   1  22
ATOM     22  O   LIG    1        4.689   0.082  -0.718  0.00  0.00    -0.379 OA
ATOM     23  H   LIG    1        5.562  -0.331  -0.767  0.00  0.00    +0.211 HD
ENDBRANCH   1  22
TORSDOF 4
