REMARK  Name = ZINC09306405
REMARK                            x       y       z     vdW  Elec       q    Type
REMARK                         _______ _______ _______ _____ _____    ______ ____
ROOT
ATOM      1  C   LIG    1        1.265  -2.174  -0.022  0.00  0.00    +0.066 C 
ATOM      2  C   LIG    1        1.228  -0.668  -0.013  0.00  0.00    +0.044 A 
ATOM      3  C   LIG    1        0.002  -0.004   0.002  0.00  0.00    +0.066 A 
ATOM      4  C   LIG    1       -0.017   1.375   0.010  0.00  0.00    +0.127 A 
ATOM      5  N   LIG    1        1.175   2.052   0.002  0.00  0.00    -0.200 N 
ATOM      6  C   LIG    1        2.352   1.352  -0.013  0.00  0.00    +0.166 A 
ATOM      7  C   LIG    1        3.384   2.298  -0.018  0.00  0.00    +0.050 A 
ATOM      8  C   LIG    1        2.786   3.564  -0.005  0.00  0.00    +0.070 A 
ATOM      9  C   LIG    1        3.519   4.880  -0.005  0.00  0.00    +0.068 C 
ATOM     10  N   LIG    1        1.484   3.416   0.007  0.00  0.00    -0.168 NA
ATOM     11  N   LIG    1        2.353   0.015  -0.020  0.00  0.00    -0.232 NA
ENDROOT
BRANCH   7  12
ATOM     12  C   LIG    1        4.838   2.013  -0.033  0.00  0.00    +0.006 A 
ATOM     13  C   LIG    1        5.512   1.880  -1.247  0.00  0.00    +0.011 A 
ATOM     14  C   LIG    1        6.867   1.621  -1.256  0.00  0.00    +0.021 A 
ATOM     15  C   LIG    1        7.556   1.481  -0.063  0.00  0.00    +0.042 A 
ATOM     16 CL   LIG    1        9.260   1.147  -0.082  0.00  0.00    -0.083 Cl
ATOM     17  C   LIG    1        6.892   1.606   1.145  0.00  0.00    +0.040 A 
ATOM     18  C   LIG    1        5.537   1.871   1.166  0.00  0.00    +0.050 A 
ATOM     19 CL   LIG    1        4.705   2.028   2.682  0.00  0.00    -0.083 Cl
ENDBRANCH   7  12
BRANCH   4  20
ATOM     20  N   LIG    1       -1.212   2.060   0.019  0.00  0.00    -0.311 N 
ATOM     21  C   LIG    1       -1.286   2.975   1.167  0.00  0.00    +0.134 C 
ATOM     22  C   LIG    1       -2.601   3.757   1.106  0.00  0.00    +0.178 C 
ATOM     23  O   LIG    1       -3.696   2.837   1.075  0.00  0.00    -0.377 OA
ATOM     24  C   LIG    1       -3.656   1.931  -0.030  0.00  0.00    +0.178 C 
ATOM     25  C   LIG    1       -2.352   1.131   0.019  0.00  0.00    +0.134 C 
ENDBRANCH   4  20
TORSDOF 2
