REMARK  Name = ZINC12524354
REMARK                            x       y       z     vdW  Elec       q    Type
REMARK                         _______ _______ _______ _____ _____    ______ ____
ROOT
ATOM      1  C   LIG    1       -0.247   0.655   0.448  0.00  0.00    +0.028 C 
ATOM      2  C   LIG    1       -0.001  -0.564  -0.096  0.00  0.00    +0.077 C 
ATOM      3  C   LIG    1        1.272  -1.301  -0.215  0.00  0.00    +0.263 C 
ATOM      4  N   LIG    1        1.218  -2.488  -0.796  0.00  0.00    -0.224 N 
ATOM      5  C   LIG    1        0.058  -2.991  -1.265  0.00  0.00    +0.125 C 
ATOM      6  S   LIG    1       -0.213  -4.490  -2.046  0.00  0.00    -0.027 S 
ATOM      7  O   LIG    1        2.318  -0.842   0.204  0.00  0.00    -0.269 OA
ATOM      8  S   LIG    1       -1.128  -1.714  -0.873  0.00  0.00    -0.061 S 
ENDROOT
BRANCH   1  12
ATOM      9  C   LIG    1       -4.054   2.452  -0.017  0.00  0.00    +0.029 A 
ATOM     10  C   LIG    1       -3.118   3.022   0.842  0.00  0.00    +0.023 A 
ATOM     11  C   LIG    1       -1.885   2.444   0.995  0.00  0.00    +0.010 A 
ATOM     12  C   LIG    1       -1.567   1.278   0.287  0.00  0.00    -0.024 A 
ATOM     13  C   LIG    1       -2.510   0.711  -0.580  0.00  0.00    +0.010 A 
ATOM     14  C   LIG    1       -3.743   1.293  -0.723  0.00  0.00    +0.023 A 
BRANCH   9  16
ATOM     15  C   LIG    1       -5.666   4.214   0.633  0.00  0.00    +0.129 C 
ATOM     16  N   LIG    1       -5.306   3.043  -0.170  0.00  0.00    -0.336 N 
ATOM     17  C   LIG    1       -6.262   2.493  -1.134  0.00  0.00    +0.129 C 
ENDBRANCH   9  16
ENDBRANCH   1  12
BRANCH   4  18
ATOM     18  C   LIG    1        2.395  -3.238  -0.934  0.00  0.00    +0.043 A 
ATOM     19  C   LIG    1        2.560  -4.412  -0.210  0.00  0.00    +0.027 A 
ATOM     20  C   LIG    1        3.717  -5.152  -0.349  0.00  0.00    +0.047 A 
ATOM     21  C   LIG    1        4.719  -4.719  -1.205  0.00  0.00    +0.117 A 
ATOM     22  C   LIG    1        4.558  -3.544  -1.925  0.00  0.00    +0.047 A 
ATOM     23  C   LIG    1        3.399  -2.805  -1.789  0.00  0.00    +0.027 A 
BRANCH  21  24
ATOM     24  O   LIG    1        5.860  -5.446  -1.338  0.00  0.00    -0.507 OA
ATOM     25  H   LIG    1        6.558  -5.200  -0.715  0.00  0.00    +0.292 HD
ENDBRANCH  21  24
ENDBRANCH   4  18
TORSDOF 4
