REMARK  Name = ZINC08598812
REMARK                            x       y       z     vdW  Elec       q    Type
REMARK                         _______ _______ _______ _____ _____    ______ ____
ROOT
ATOM      1  C   LIG    1        3.160  -4.454  -5.515  0.00  0.00    +0.129 A 
ATOM      2  C   LIG    1        3.757  -3.826  -6.562  0.00  0.00    +0.074 A 
ATOM      3  C   LIG    1        4.253  -4.817  -7.431  0.00  0.00    +0.095 A 
ATOM      4  N   LIG    1        3.963  -5.995  -6.920  0.00  0.00    -0.165 NA
ATOM      5  N   LIG    1        3.280  -5.796  -5.713  0.00  0.00    -0.218 N 
ENDROOT
BRANCH   3   6
ATOM      6  C   LIG    1        4.979  -4.574  -8.702  0.00  0.00    +0.002 A 
ATOM      7  C   LIG    1        5.227  -3.271  -9.128  0.00  0.00    +0.010 A 
ATOM      8  C   LIG    1        5.902  -3.051 -10.312  0.00  0.00    +0.001 A 
ATOM      9  C   LIG    1        6.332  -4.122 -11.075  0.00  0.00    +0.000 A 
ATOM     10  C   LIG    1        6.088  -5.418 -10.657  0.00  0.00    +0.001 A 
ATOM     11  C   LIG    1        5.419  -5.649  -9.472  0.00  0.00    +0.010 A 
ENDBRANCH   3   6
BRANCH   5  12
ATOM     12  C   LIG    1        2.803  -6.801  -4.862  0.00  0.00    +0.067 A 
ATOM     13  C   LIG    1        2.808  -6.608  -3.487  0.00  0.00    +0.028 A 
ATOM     14  C   LIG    1        2.336  -7.600  -2.650  0.00  0.00    +0.002 A 
ATOM     15  C   LIG    1        1.859  -8.785  -3.181  0.00  0.00    +0.000 A 
ATOM     16  C   LIG    1        1.853  -8.980  -4.550  0.00  0.00    +0.002 A 
ATOM     17  C   LIG    1        2.318  -7.989  -5.392  0.00  0.00    +0.028 A 
ENDBRANCH   5  12
BRANCH   1  19
ATOM     18  C   LIG    1        2.492  -2.490  -4.359  0.00  0.00    +0.249 C 
ATOM     19  N   LIG    1        2.541  -3.836  -4.430  0.00  0.00    -0.266 N 
ATOM     20  H   LIG    1        2.144  -4.373  -3.727  0.00  0.00    +0.157 HD
ATOM     21  O   LIG    1        2.989  -1.817  -5.241  0.00  0.00    -0.270 OA
BRANCH  18  25
ATOM     22  C   LIG    1        0.605  -0.606  -1.054  0.00  0.00    +0.120 A 
ATOM     23  C   LIG    1        1.172   0.166  -2.061  0.00  0.00    +0.046 A 
ATOM     24  C   LIG    1        1.785  -0.441  -3.134  0.00  0.00    +0.016 A 
ATOM     25  C   LIG    1        1.837  -1.836  -3.210  0.00  0.00    +0.037 A 
ATOM     26  C   LIG    1        1.265  -2.608  -2.196  0.00  0.00    +0.016 A 
ATOM     27  C   LIG    1        0.658  -1.994  -1.123  0.00  0.00    +0.046 A 
BRANCH  22  29
ATOM     28  C   LIG    1       -0.017   1.425   0.010  0.00  0.00    +0.277 C 
ATOM     29  O   LIG    1        0.002  -0.004   0.002  0.00  0.00    -0.495 OA
ENDBRANCH  22  29
ENDBRANCH  18  25
ENDBRANCH   1  19
TORSDOF 5
