REMARK  Name = ZINC11422311
REMARK                            x       y       z     vdW  Elec       q    Type
REMARK                         _______ _______ _______ _____ _____    ______ ____
ROOT
ATOM      1  C   LIG    1       -1.225   2.176   0.020  0.00  0.00    +0.010 A 
ATOM      2  C   LIG    1       -1.249   3.558   0.033  0.00  0.00    +0.049 A 
ATOM      3  C   LIG    1       -0.062   4.272   0.026  0.00  0.00    +0.158 A 
ATOM      4  C   LIG    1        1.154   3.594   0.010  0.00  0.00    +0.159 A 
ATOM      5  C   LIG    1        1.171   2.209   0.003  0.00  0.00    +0.055 A 
ATOM      6  C   LIG    1       -0.018   1.503   0.010  0.00  0.00    -0.017 A 
ENDROOT
BRANCH   6   7
ATOM      7  C   LIG    1        0.002  -0.004   0.002  0.00  0.00    +0.131 C 
ATOM      8  C   LIG    1       -0.233  -0.526   1.422  0.00  0.00    -0.046 C 
ATOM      9  N   LIG    1       -0.284  -2.001   1.400  0.00  0.00    +0.382 N 
ATOM     10  H   LIG    1        0.615  -2.366   1.064  0.00  0.00    -0.086 HD
ATOM     11  H   LIG    1       -0.462  -2.348   2.349  0.00  0.00    -0.086 HD
ATOM     12  C   LIG    1       -1.361  -2.459   0.503  0.00  0.00    -0.054 C 
ATOM     13  C   LIG    1       -1.115  -1.918  -0.908  0.00  0.00    +0.141 C 
ATOM     14  O   LIG    1       -1.032  -0.491  -0.857  0.00  0.00    -0.376 OA
ENDBRANCH   6   7
BRANCH   3  15
ATOM     15  O   LIG    1       -0.084   5.632   0.034  0.00  0.00    -0.503 OA
ATOM     16  H   LIG    1       -0.099   6.030  -0.848  0.00  0.00    +0.292 HD
ENDBRANCH   3  15
BRANCH   4  17
ATOM     17  O   LIG    1        2.322   4.290   0.003  0.00  0.00    -0.503 OA
ATOM     18  H   LIG    1        2.651   4.496  -0.883  0.00  0.00    +0.292 HD
ENDBRANCH   4  17
TORSDOF 3
