REMARK  Name = ZINC10634597
REMARK                            x       y       z     vdW  Elec       q    Type
REMARK                         _______ _______ _______ _____ _____    ______ ____
ROOT
ATOM      1  N   LIG    1       -2.987  -3.794   0.040  0.00  0.00    -0.258 N 
ATOM      2  C   LIG    1       -2.995  -4.506  -1.104  0.00  0.00    +0.258 C 
ATOM      3  O   LIG    1       -2.790  -3.954  -2.164  0.00  0.00    -0.271 OA
ENDROOT
BRANCH   1   4
ATOM      4  C   LIG    1       -3.131  -4.445   1.271  0.00  0.00    +0.037 A 
ATOM      5  C   LIG    1       -2.138  -5.303   1.724  0.00  0.00    +0.026 A 
ATOM      6  C   LIG    1       -2.282  -5.944   2.939  0.00  0.00    +0.040 A 
ATOM      7  C   LIG    1       -3.416  -5.731   3.705  0.00  0.00    +0.124 A 
ATOM      8  F   LIG    1       -3.555  -6.359   4.893  0.00  0.00    -0.205 F 
ATOM      9  C   LIG    1       -4.407  -4.876   3.255  0.00  0.00    +0.040 A 
ATOM     10  C   LIG    1       -4.265  -4.229   2.043  0.00  0.00    +0.026 A 
ENDBRANCH   1   4
BRANCH   1  11
ATOM     11  C   LIG    1       -2.827  -2.338  -0.005  0.00  0.00    +0.234 C 
BRANCH  11  12
ATOM     12  C   LIG    1       -1.362  -1.992   0.064  0.00  0.00    +0.325 C 
ATOM     13  O   LIG    1       -0.536  -2.870   0.143  0.00  0.00    -0.249 OA
BRANCH  12  14
ATOM     14  O   LIG    1       -0.974  -0.707   0.038  0.00  0.00    -0.464 OA
BRANCH  14  16
ATOM     15  C   LIG    1        0.677   1.058   0.065  0.00  0.00    +0.048 C 
ATOM     16  C   LIG    1        0.430  -0.451   0.107  0.00  0.00    +0.229 C 
ENDBRANCH  14  16
ENDBRANCH  12  14
ENDBRANCH  11  12
ENDBRANCH   1  11
BRANCH   2  17
ATOM     17  C   LIG    1       -3.260  -5.989  -1.066  0.00  0.00    +0.328 C 
BRANCH  17  18
ATOM     18  O   LIG    1       -3.339  -6.494  -2.401  0.00  0.00    -0.455 OA
BRANCH  18  19
ATOM     19  C   LIG    1       -3.572  -7.808  -2.543  0.00  0.00    +0.312 C 
ATOM     20  O   LIG    1       -3.705  -8.507  -1.567  0.00  0.00    -0.250 OA
BRANCH  19  21
ATOM     21  C   LIG    1       -3.668  -8.411  -3.921  0.00  0.00    +0.157 C 
BRANCH  21  22
ATOM     22  C   LIG    1       -3.933  -9.890  -3.804  0.00  0.00    -0.012 A 
ATOM     23  C   LIG    1       -3.015 -10.870  -3.821  0.00  0.00    +0.087 A 
ATOM     24  N   LIG    1       -3.628 -12.086  -3.691  0.00  0.00    -0.360 N 
ATOM     25  C   LIG    1       -4.990 -11.915  -3.584  0.00  0.00    +0.047 A 
ATOM     26  C   LIG    1       -6.057 -12.794  -3.437  0.00  0.00    +0.026 A 
ATOM     27  C   LIG    1       -7.341 -12.303  -3.341  0.00  0.00    +0.002 A 
ATOM     28  C   LIG    1       -7.583 -10.938  -3.405  0.00  0.00    +0.001 A 
ATOM     29  C   LIG    1       -6.549 -10.056  -3.554  0.00  0.00    +0.010 A 
ATOM     30  H   LIG    1       -3.171 -12.941  -3.676  0.00  0.00    +0.165 HD
ATOM     31  C   LIG    1       -5.240 -10.531  -3.644  0.00  0.00    +0.003 A 
ENDBRANCH  21  22
ENDBRANCH  19  21
ENDBRANCH  18  19
ENDBRANCH  17  18
ENDBRANCH   2  17
TORSDOF 10
