REMARK  Name = ZINC12629325
REMARK                            x       y       z     vdW  Elec       q    Type
REMARK                         _______ _______ _______ _____ _____    ______ ____
ROOT
ATOM      1  N   LIG    1        4.165  -0.951   1.338  0.00  0.00    -0.295 NA
ATOM      2  C   LIG    1        3.250  -1.880   2.016  0.00  0.00    +0.103 C 
ATOM      3  C   LIG    1        3.627  -1.971   3.499  0.00  0.00    +0.120 C 
ATOM      4  N   LIG    1        5.052  -2.318   3.599  0.00  0.00    -0.327 N 
ATOM      5  C   LIG    1        6.019  -1.514   2.835  0.00  0.00    +0.120 C 
ATOM      6  C   LIG    1        5.549  -1.441   1.379  0.00  0.00    +0.103 C 
ENDROOT
BRANCH   4   7
ATOM      7  C   LIG    1        5.477  -3.382   4.397  0.00  0.00    +0.030 A 
ATOM      8  C   LIG    1        6.812  -3.767   4.393  0.00  0.00    +0.023 A 
ATOM      9  C   LIG    1        7.229  -4.819   5.184  0.00  0.00    +0.002 A 
ATOM     10  C   LIG    1        6.319  -5.490   5.980  0.00  0.00    +0.000 A 
ATOM     11  C   LIG    1        4.989  -5.110   5.987  0.00  0.00    +0.002 A 
ATOM     12  C   LIG    1        4.567  -4.054   5.203  0.00  0.00    +0.023 A 
ENDBRANCH   4   7
BRANCH   1  13
ATOM     13  C   LIG    1        3.734  -0.703  -0.044  0.00  0.00    +0.119 C 
BRANCH  13  17
ATOM     14  C   LIG    1       -0.009   1.356  -0.024  0.00  0.00    +0.000 A 
ATOM     15  C   LIG    1        1.174   2.072  -0.018  0.00  0.00    +0.000 A 
ATOM     16  C   LIG    1        2.385   1.405  -0.024  0.00  0.00    +0.005 A 
ATOM     17  C   LIG    1        2.413   0.024  -0.036  0.00  0.00    -0.033 A 
ATOM     18  C   LIG    1        1.231  -0.692  -0.041  0.00  0.00    +0.005 A 
ATOM     19  C   LIG    1        0.020  -0.026  -0.036  0.00  0.00    +0.000 A 
ENDBRANCH  13  17
ENDBRANCH   1  13
TORSDOF 3
