REMARK  Name = ZINC10277834
REMARK                            x       y       z     vdW  Elec       q    Type
REMARK                         _______ _______ _______ _____ _____    ______ ____
ROOT
ATOM      1  N   LIG    1        1.233  -2.082  -0.027  0.00  0.00    -0.269 N 
ATOM      2  H   LIG    1        0.403  -2.579   0.040  0.00  0.00    +0.156 HD
ATOM      3  C   LIG    1        2.405  -2.740  -0.136  0.00  0.00    +0.308 C 
ATOM      4  N   LIG    1        2.416  -4.083  -0.245  0.00  0.00    -0.269 N 
ATOM      5  H   LIG    1        1.581  -4.571  -0.314  0.00  0.00    +0.156 HD
ATOM      6  O   LIG    1        3.451  -2.121  -0.135  0.00  0.00    -0.252 OA
ENDROOT
BRANCH   1  10
ATOM      7  C   LIG    1        1.178   2.087   0.024  0.00  0.00    +0.121 A 
ATOM      8  C   LIG    1        0.148   1.387  -0.588  0.00  0.00    +0.047 A 
ATOM      9  C   LIG    1        0.166   0.007  -0.605  0.00  0.00    +0.027 A 
ATOM     10  C   LIG    1        1.215  -0.681  -0.010  0.00  0.00    +0.035 A 
ATOM     11  C   LIG    1        2.245   0.020   0.602  0.00  0.00    +0.027 A 
ATOM     12  C   LIG    1        2.226   1.400   0.618  0.00  0.00    +0.047 A 
BRANCH   7  13
ATOM     13  O   LIG    1        1.160   3.447   0.040  0.00  0.00    -0.492 OA
BRANCH  13  14
ATOM     14  C   LIG    1        2.253   4.102   0.687  0.00  0.00    +0.229 C 
BRANCH  14  15
ATOM     15  C   LIG    1        2.059   5.618   0.605  0.00  0.00    +0.044 C 
BRANCH  15  17
ATOM     16  C   LIG    1        3.101   7.832   1.108  0.00  0.00    +0.007 C 
ATOM     17  C   LIG    1        3.229   6.319   1.298  0.00  0.00    -0.014 C 
ATOM     18  C   LIG    1        3.209   5.989   2.791  0.00  0.00    +0.007 C 
ENDBRANCH  15  17
ENDBRANCH  14  15
ENDBRANCH  13  14
ENDBRANCH   7  13
ENDBRANCH   1  10
BRANCH   4  19
ATOM     19  C   LIG    1        3.635  -4.774  -0.261  0.00  0.00    +0.035 A 
ATOM     20  C   LIG    1        4.745  -4.211  -0.875  0.00  0.00    +0.027 A 
ATOM     21  C   LIG    1        5.947  -4.891  -0.887  0.00  0.00    +0.047 A 
ATOM     22  C   LIG    1        6.042  -6.141  -0.293  0.00  0.00    +0.121 A 
ATOM     23  C   LIG    1        4.932  -6.707   0.317  0.00  0.00    +0.047 A 
ATOM     24  C   LIG    1        3.731  -6.026   0.333  0.00  0.00    +0.027 A 
BRANCH  22  25
ATOM     25  O   LIG    1        7.225  -6.812  -0.309  0.00  0.00    -0.492 OA
BRANCH  25  26
ATOM     26  C   LIG    1        8.326  -6.171  -0.954  0.00  0.00    +0.229 C 
BRANCH  26  27
ATOM     27  C   LIG    1        9.561  -7.071  -0.871  0.00  0.00    +0.044 C 
BRANCH  27  28
ATOM     28  C   LIG    1       10.741  -6.384  -1.562  0.00  0.00    -0.014 C 
ATOM     29  C   LIG    1       10.444  -6.241  -3.056  0.00  0.00    +0.007 C 
ATOM     30  C   LIG    1       12.004  -7.226  -1.371  0.00  0.00    +0.007 C 
ENDBRANCH  27  28
ENDBRANCH  26  27
ENDBRANCH  25  26
ENDBRANCH  22  25
ENDBRANCH   4  19
TORSDOF 10
