REMARK  Name = ZINC08626709
REMARK                            x       y       z     vdW  Elec       q    Type
REMARK                         _______ _______ _______ _____ _____    ______ ____
ROOT
ATOM      1  C   LIG    1        4.366  -2.988   6.752  0.00  0.00    +0.153 A 
ATOM      2  C   LIG    1        3.280  -3.817   6.540  0.00  0.00    +0.149 A 
ATOM      3  C   LIG    1        3.161  -4.995   7.253  0.00  0.00    +0.047 A 
ATOM      4  C   LIG    1        4.129  -5.346   8.176  0.00  0.00    +0.059 A 
ATOM      5  C   LIG    1        5.217  -4.519   8.384  0.00  0.00    +0.047 A 
ATOM      6  C   LIG    1        5.337  -3.341   7.670  0.00  0.00    +0.149 A 
ENDROOT
BRANCH   4   7
ATOM      7  C   LIG    1        3.998  -6.630   8.954  0.00  0.00    +0.418 C 
ATOM      8  F   LIG    1        5.272  -7.119   9.263  0.00  0.00    -0.166 F 
ATOM      9  F   LIG    1        3.310  -7.573   8.185  0.00  0.00    -0.166 F 
ATOM     10  F   LIG    1        3.292  -6.388  10.137  0.00  0.00    -0.166 F 
ENDBRANCH   4   7
BRANCH   1  11
ATOM     11  S   LIG    1        4.515  -1.483   5.847  0.00  0.00    +0.031 S 
ATOM     12  O   LIG    1        4.342  -1.815   4.476  0.00  0.00    -0.164 OA
ATOM     13  O   LIG    1        5.681  -0.832   6.332  0.00  0.00    -0.164 OA
BRANCH  11  17
ATOM     14  C   LIG    1        0.593  -0.230   9.066  0.00  0.00    +0.045 C 
ATOM     15  C   LIG    1        1.365   0.062   7.806  0.00  0.00    -0.030 A 
ATOM     16  C   LIG    1        2.438  -0.735   7.452  0.00  0.00    +0.033 A 
ATOM     17  C   LIG    1        3.147  -0.468   6.296  0.00  0.00    +0.112 A 
ATOM     18  C   LIG    1        2.786   0.601   5.494  0.00  0.00    +0.068 A 
ATOM     19 CL   LIG    1        3.681   0.941   4.046  0.00  0.00    -0.082 Cl
ATOM     20  C   LIG    1        1.710   1.395   5.845  0.00  0.00    +0.042 A 
ATOM     21  C   LIG    1        1.000   1.127   7.002  0.00  0.00    +0.045 A 
ATOM     22 CL   LIG    1       -0.347   2.128   7.446  0.00  0.00    -0.083 Cl
ENDBRANCH  11  17
ENDBRANCH   1  11
BRANCH   2  23
ATOM     23  N   LIG    1        2.244  -3.442   5.553  0.00  0.00    +0.008 N 
ATOM     24  O   LIG    1        1.072  -3.407   5.883  0.00  0.00    -0.130 OA
BRANCH  23  25
ATOM     25  O   LIG    1        2.562  -3.167   4.410  0.00  0.00    -0.396 OA
ATOM     26  H   LIG    1        3.464  -3.193   4.155  0.00  0.00    +0.329 HD
ENDBRANCH  23  25
ENDBRANCH   2  23
BRANCH   6  27
ATOM     27  N   LIG    1        6.502  -2.456   7.893  0.00  0.00    +0.008 N 
ATOM     28  O   LIG    1        7.228  -2.158   6.962  0.00  0.00    -0.130 OA
BRANCH  27  29
ATOM     29  O   LIG    1        6.731  -2.021   9.007  0.00  0.00    -0.396 OA
ATOM     30  H   LIG    1        6.173  -2.249   9.724  0.00  0.00    +0.329 HD
ENDBRANCH  27  29
ENDBRANCH   6  27
TORSDOF 7
