REMARK  Name = ZINC08684366
REMARK                            x       y       z     vdW  Elec       q    Type
REMARK                         _______ _______ _______ _____ _____    ______ ____
ROOT
ATOM      1  C   LIG    1       -6.160  -1.100   0.126  0.00  0.00    +0.056 C 
ATOM      2  C   LIG    1       -7.442  -1.516   0.206  0.00  0.00    +0.017 C 
ATOM      3  C   LIG    1       -7.740  -2.993   0.251  0.00  0.00    +0.061 C 
ATOM      4  N   LIG    1       -8.472  -0.621   0.247  0.00  0.00    -0.300 N 
ATOM      5  H   LIG    1       -9.377  -0.967   0.304  0.00  0.00    +0.154 HD
ATOM      6  C   LIG    1       -8.304   0.707   0.212  0.00  0.00    +0.135 C 
ATOM      7  S   LIG    1       -9.684   1.718   0.269  0.00  0.00    -0.019 S 
ATOM      8  N   LIG    1       -7.084   1.273   0.132  0.00  0.00    -0.315 N 
ATOM      9  H   LIG    1       -6.985   2.238   0.108  0.00  0.00    +0.149 HD
ATOM     10  C   LIG    1       -5.904   0.393   0.088  0.00  0.00    +0.146 C 
ENDROOT
BRANCH  10  11
ATOM     11  C   LIG    1       -5.015   0.741   1.254  0.00  0.00    +0.015 A 
ATOM     12  C   LIG    1       -3.697   1.056   1.258  0.00  0.00    +0.013 A 
ATOM     13  C   LIG    1       -3.080   1.344   2.461  0.00  0.00    +0.008 A 
ATOM     14  C   LIG    1       -3.812   1.304   3.601  0.00  0.00    +0.045 A 
ATOM     15  S   LIG    1       -5.427   0.854   2.988  0.00  0.00    -0.099 S 
ENDBRANCH  10  11
BRANCH   1  18
ATOM     16  N   LIG    1       -4.669  -2.622   1.217  0.00  0.00    -0.279 N 
ATOM     17  H   LIG    1       -5.122  -2.444   2.056  0.00  0.00    +0.155 HD
ATOM     18  C   LIG    1       -5.090  -2.028   0.083  0.00  0.00    +0.248 C 
ATOM     19  O   LIG    1       -4.552  -2.288  -0.977  0.00  0.00    -0.270 OA
BRANCH  16  25
ATOM     20  C   LIG    1       -2.817  -3.711   2.332  0.00  0.00    +0.142 A 
ATOM     21  C   LIG    1       -1.741  -4.583   2.295  0.00  0.00    +0.047 A 
ATOM     22  C   LIG    1       -1.419  -5.235   1.119  0.00  0.00    +0.004 A 
ATOM     23  C   LIG    1       -2.169  -5.020  -0.023  0.00  0.00    +0.002 A 
ATOM     24  C   LIG    1       -3.245  -4.152   0.006  0.00  0.00    +0.027 A 
ATOM     25  C   LIG    1       -3.576  -3.498   1.184  0.00  0.00    +0.076 A 
BRANCH  20  26
ATOM     26  O   LIG    1       -3.135  -3.069   3.488  0.00  0.00    -0.490 OA
BRANCH  26  28
ATOM     27  C   LIG    1       -2.820  -2.530   5.823  0.00  0.00    +0.048 C 
ATOM     28  C   LIG    1       -2.312  -3.336   4.626  0.00  0.00    +0.226 C 
ENDBRANCH  26  28
ENDBRANCH  20  26
ENDBRANCH  16  25
ENDBRANCH   1  18
TORSDOF 5
