REMARK  Name = ZINC09272541
REMARK                            x       y       z     vdW  Elec       q    Type
REMARK                         _______ _______ _______ _____ _____    ______ ____
ROOT
ATOM      1  C   LIG    1       -1.111   7.988   0.055  0.00  0.00    +0.174 C 
ENDROOT
BRANCH   1   4
ATOM      2  N   LIG    1       -0.745  10.434   0.065  0.00  0.00    -0.206 N 
ATOM      3  H   LIG    1        0.209  10.260   0.055  0.00  0.00    +0.177 HD
ATOM      4  C   LIG    1       -1.617   9.407   0.067  0.00  0.00    +0.242 C 
ATOM      5  O   LIG    1       -2.811   9.625   0.080  0.00  0.00    -0.273 OA
BRANCH   2   7
ATOM      6  C   LIG    1       -0.376  12.743   0.073  0.00  0.00    +0.138 C 
ATOM      7  N   LIG    1       -1.216  11.754   0.076  0.00  0.00    -0.188 NA
BRANCH   6  11
ATOM      8  C   LIG    1       -1.803  16.741   0.106  0.00  0.00    +0.030 A 
ATOM      9  C   LIG    1       -0.434  16.493   0.093  0.00  0.00    +0.024 A 
ATOM     10  C   LIG    1        0.032  15.197   0.082  0.00  0.00    +0.011 A 
ATOM     11  C   LIG    1       -0.871  14.131   0.085  0.00  0.00    -0.005 A 
ATOM     12  C   LIG    1       -2.246  14.384   0.093  0.00  0.00    +0.011 A 
ATOM     13  C   LIG    1       -2.705  15.682   0.109  0.00  0.00    +0.024 A 
BRANCH   8  14
ATOM     14  N   LIG    1       -2.272  18.055   0.117  0.00  0.00    -0.330 N 
BRANCH  14  16
ATOM     15  C   LIG    1       -4.202  18.402   1.579  0.00  0.00    +0.024 C 
ATOM     16  C   LIG    1       -3.713  18.318   0.131  0.00  0.00    +0.102 C 
ENDBRANCH  14  16
BRANCH  14  17
ATOM     17  C   LIG    1       -1.323  19.171   0.114  0.00  0.00    +0.102 C 
ATOM     18  C   LIG    1       -1.006  19.567  -1.329  0.00  0.00    +0.024 C 
ENDBRANCH  14  17
ENDBRANCH   8  14
ENDBRANCH   6  11
ENDBRANCH   2   7
ENDBRANCH   1   4
BRANCH   1  19
ATOM     19  S   LIG    1       -2.515   6.846   0.062  0.00  0.00    -0.078 S 
BRANCH  19  20
ATOM     20  C   LIG    1       -1.658   5.307   0.046  0.00  0.00    +0.171 A 
ATOM     21  N   LIG    1       -0.354   5.171   0.033  0.00  0.00    -0.222 NA
ATOM     22  C   LIG    1       -0.033   3.850   0.023  0.00  0.00    +0.090 A 
ATOM     23  C   LIG    1        1.180   3.158   0.008  0.00  0.00    +0.030 A 
ATOM     24  C   LIG    1        1.182   1.781   0.000  0.00  0.00    +0.002 A 
ATOM     25  C   LIG    1       -0.013   1.076   0.008  0.00  0.00    +0.002 A 
ATOM     26  C   LIG    1       -1.219   1.745   0.017  0.00  0.00    +0.028 A 
ATOM     27  C   LIG    1       -1.240   3.131   0.031  0.00  0.00    +0.070 A 
ATOM     28  N   LIG    1       -2.252   4.077   0.045  0.00  0.00    -0.314 N 
BRANCH  28  29
ATOM     29  C   LIG    1       -3.692   3.808   0.058  0.00  0.00    +0.159 C 
BRANCH  29  30
ATOM     30  C   LIG    1       -4.200   3.724  -1.358  0.00  0.00    -0.028 A 
ATOM     31  C   LIG    1       -4.658   4.861  -1.996  0.00  0.00    +0.007 A 
ATOM     32  C   LIG    1       -5.119   4.786  -3.297  0.00  0.00    +0.020 A 
ATOM     33  C   LIG    1       -5.132   3.570  -3.957  0.00  0.00    +0.041 A 
ATOM     34 CL   LIG    1       -5.717   3.473  -5.589  0.00  0.00    -0.084 Cl
ATOM     35  C   LIG    1       -4.679   2.431  -3.316  0.00  0.00    +0.020 A 
ATOM     36  C   LIG    1       -4.213   2.508  -2.017  0.00  0.00    +0.007 A 
ENDBRANCH  29  30
ENDBRANCH  28  29
ENDBRANCH  19  20
ENDBRANCH   1  19
TORSDOF 10
