REMARK  Name = ZINC08766923
REMARK                            x       y       z     vdW  Elec       q    Type
REMARK                         _______ _______ _______ _____ _____    ______ ____
ROOT
ATOM      1  N   LIG    1       -2.427   1.038   0.019  0.00  0.00    -0.269 N 
ATOM      2  H   LIG    1       -3.385   1.571   0.115  0.00  0.00    +0.156 HD
ATOM      3  C   LIG    1       -2.412  -0.305  -0.090  0.00  0.00    +0.310 C 
ATOM      4  N   LIG    1       -3.571  -0.986  -0.190  0.00  0.00    -0.247 N 
ATOM      5  H   LIG    1       -4.529  -0.446  -0.182  0.00  0.00    +0.158 HD
ATOM      6  O   LIG    1       -1.353  -0.903  -0.098  0.00  0.00    -0.252 OA
ENDROOT
BRANCH   1  11
ATOM      7  C   LIG    1        0.089   3.622   0.750  0.00  0.00    +0.122 A 
ATOM      8  C   LIG    1        1.156   3.170  -0.015  0.00  0.00    +0.046 A 
ATOM      9  C   LIG    1        1.032   2.014  -0.761  0.00  0.00    +0.005 A 
ATOM     10  C   LIG    1       -0.153   1.303  -0.748  0.00  0.00    +0.023 A 
ATOM     11  C   LIG    1       -1.225   1.754   0.011  0.00  0.00    +0.038 A 
ATOM     12  C   LIG    1       -1.101   2.912   0.765  0.00  0.00    +0.069 A 
BRANCH   7  14
ATOM     13  C   LIG    1        1.467   5.440   1.419  0.00  0.00    +0.277 C 
ATOM     14  O   LIG    1        0.212   4.760   1.482  0.00  0.00    -0.495 OA
ENDBRANCH   7  14
ENDBRANCH   1  11
BRANCH   4  15
ATOM     15  C   LIG    1       -3.556  -2.370  -0.302  0.00  0.00    +0.189 A 
ATOM     16  N   LIG    1       -2.525  -3.201  -0.337  0.00  0.00    -0.125 NA
ATOM     17  N   LIG    1       -2.678  -4.450  -0.440  0.00  0.00    -0.140 NA
ATOM     18  C   LIG    1       -3.895  -4.972  -0.529  0.00  0.00    +0.134 A 
ATOM     19  S   LIG    1       -4.884  -3.484  -0.444  0.00  0.00    -0.030 S 
BRANCH  18  20
ATOM     20  C   LIG    1       -4.315  -6.383  -0.661  0.00  0.00    +0.012 A 
ATOM     21  C   LIG    1       -5.670  -6.727  -0.735  0.00  0.00    +0.030 A 
ATOM     22  C   LIG    1       -6.016  -8.056  -0.863  0.00  0.00    +0.111 A 
ATOM     23  N   LIG    1       -5.091  -8.996  -0.905  0.00  0.00    -0.263 NA
ATOM     24  C   LIG    1       -3.804  -8.716  -0.834  0.00  0.00    +0.111 A 
ATOM     25  C   LIG    1       -3.368  -7.414  -0.710  0.00  0.00    +0.030 A 
ENDBRANCH  18  20
ENDBRANCH   4  15
TORSDOF 4
