REMARK  Name = ZINC08617650
REMARK                            x       y       z     vdW  Elec       q    Type
REMARK                         _______ _______ _______ _____ _____    ______ ____
ROOT
ATOM      1  C   LIG    1       -0.018   1.503   0.010  0.00  0.00    +0.135 C 
ENDROOT
BRANCH   1   2
ATOM      2  C   LIG    1       -0.845   1.914   1.202  0.00  0.00    +0.021 A 
ATOM      3  C   LIG    1       -2.228   2.017   1.074  0.00  0.00    +0.010 A 
ATOM      4  C   LIG    1       -3.002   2.385   2.131  0.00  0.00    +0.010 A 
ATOM      5  C   LIG    1       -2.403   2.666   3.370  0.00  0.00    +0.004 A 
ATOM      6  C   LIG    1       -3.171   3.050   4.486  0.00  0.00    +0.011 A 
ATOM      7  C   LIG    1       -2.520   3.308   5.658  0.00  0.00    +0.020 A 
ATOM      8  C   LIG    1       -1.133   3.188   5.724  0.00  0.00    +0.111 A 
ATOM      9  N   LIG    1       -0.422   2.830   4.683  0.00  0.00    -0.251 NA
ATOM     10  C   LIG    1       -0.997   2.564   3.507  0.00  0.00    +0.113 A 
ATOM     11  C   LIG    1       -0.227   2.174   2.391  0.00  0.00    +0.148 A 
BRANCH  11  12
ATOM     12  O   LIG    1        1.123   2.063   2.498  0.00  0.00    -0.504 OA
ATOM     13  H   LIG    1        1.602   2.879   2.298  0.00  0.00    +0.292 HD
ENDBRANCH  11  12
ENDBRANCH   1   2
BRANCH   1  17
ATOM     14  C   LIG    1        0.523  -2.734   0.048  0.00  0.00    +0.000 A 
ATOM     15  C   LIG    1        1.531  -1.905   0.503  0.00  0.00    +0.000 A 
ATOM     16  C   LIG    1        1.356  -0.533   0.491  0.00  0.00    +0.006 A 
ATOM     17  C   LIG    1        0.173   0.008   0.023  0.00  0.00    -0.023 A 
ATOM     18  C   LIG    1       -0.837  -0.822  -0.428  0.00  0.00    +0.006 A 
ATOM     19  C   LIG    1       -0.659  -2.193  -0.420  0.00  0.00    +0.000 A 
ENDBRANCH   1  17
BRANCH   1  20
ATOM     20  N   LIG    1       -0.707   1.896  -1.221  0.00  0.00    -0.331 N 
ATOM     21  H   LIG    1       -1.670   2.013  -1.222  0.00  0.00    +0.147 HD
BRANCH  20  22
ATOM     22  C   LIG    1        0.021   2.104  -2.392  0.00  0.00    +0.054 A 
ATOM     23  C   LIG    1        1.390   1.946  -2.395  0.00  0.00    +0.025 A 
ATOM     24  C   LIG    1        2.128   2.143  -3.558  0.00  0.00    +0.003 A 
ATOM     25  C   LIG    1        1.520   2.510  -4.720  0.00  0.00    +0.010 A 
ATOM     26  C   LIG    1        0.127   2.687  -4.756  0.00  0.00    +0.002 A 
ATOM     27  C   LIG    1       -0.531   3.066  -5.942  0.00  0.00    +0.011 A 
ATOM     28  C   LIG    1       -1.888   3.220  -5.905  0.00  0.00    +0.020 A 
ATOM     29  C   LIG    1       -2.579   3.003  -4.715  0.00  0.00    +0.111 A 
ATOM     30  N   LIG    1       -1.962   2.650  -3.613  0.00  0.00    -0.253 NA
ATOM     31  C   LIG    1       -0.638   2.483  -3.582  0.00  0.00    +0.092 A 
ENDBRANCH  20  22
ENDBRANCH   1  20
TORSDOF 5
