REMARK  Name = ZINC11677837
REMARK                            x       y       z     vdW  Elec       q    Type
REMARK                         _______ _______ _______ _____ _____    ______ ____
ROOT
ATOM      1  N   LIG    1       -0.526   5.225   0.203  0.00  0.00    -0.227 N 
ATOM      2  C   LIG    1       -1.859   5.254  -0.026  0.00  0.00    +0.133 A 
ATOM      3  C   LIG    1       -2.285   3.941  -0.082  0.00  0.00    +0.017 A 
ATOM      4  C   LIG    1       -3.719   3.581  -0.350  0.00  0.00    +0.059 C 
ATOM      5  C   LIG    1       -4.613   4.718   0.149  0.00  0.00    +0.119 C 
ATOM      6  N   LIG    1       -4.124   6.032  -0.252  0.00  0.00    -0.266 N 
ATOM      7  C   LIG    1       -1.152   3.165   0.144  0.00  0.00    +0.151 A 
ATOM      8  C   LIG    1       -2.811   6.356  -0.225  0.00  0.00    +0.270 C 
ATOM      9  O   LIG    1       -2.436   7.504  -0.371  0.00  0.00    -0.268 OA
ATOM     10  N   LIG    1       -0.132   3.999   0.302  0.00  0.00    -0.161 NA
ENDROOT
BRANCH   1  14
ATOM     11  C   LIG    1        1.929   8.577   0.535  0.00  0.00    +0.120 A 
ATOM     12  C   LIG    1        0.692   8.559   1.162  0.00  0.00    +0.048 A 
ATOM     13  C   LIG    1       -0.122   7.450   1.052  0.00  0.00    +0.031 A 
ATOM     14  C   LIG    1        0.298   6.350   0.315  0.00  0.00    +0.066 A 
ATOM     15  C   LIG    1        1.540   6.366  -0.307  0.00  0.00    +0.031 A 
ATOM     16  C   LIG    1        2.351   7.479  -0.202  0.00  0.00    +0.048 A 
BRANCH  11  18
ATOM     17  C   LIG    1        3.991   9.619  -0.027  0.00  0.00    +0.277 C 
ATOM     18  O   LIG    1        2.730   9.669   0.644  0.00  0.00    -0.495 OA
ENDBRANCH  11  18
ENDBRANCH   1  14
BRANCH   6  19
ATOM     19  C   LIG    1       -5.048   6.995  -0.672  0.00  0.00    +0.037 A 
ATOM     20  C   LIG    1       -5.960   7.524   0.233  0.00  0.00    +0.025 A 
ATOM     21  C   LIG    1       -6.868   8.478  -0.180  0.00  0.00    +0.025 A 
ATOM     22  C   LIG    1       -6.877   8.901  -1.503  0.00  0.00    +0.036 A 
ATOM     23  C   LIG    1       -5.969   8.369  -2.409  0.00  0.00    +0.025 A 
ATOM     24  C   LIG    1       -5.058   7.419  -1.994  0.00  0.00    +0.025 A 
BRANCH  22  25
ATOM     25  N   LIG    1       -7.803   9.865  -1.923  0.00  0.00    -0.271 N 
ATOM     26  C   LIG    1       -7.659  11.221  -1.407  0.00  0.00    +0.113 C 
ATOM     27  C   LIG    1       -8.411  12.213  -2.299  0.00  0.00    +0.020 C 
ATOM     28  C   LIG    1       -9.843  11.703  -2.496  0.00  0.00    +0.011 C 
ATOM     29  C   LIG    1       -9.790  10.422  -3.333  0.00  0.00    +0.096 C 
ATOM     30  C   LIG    1       -8.763   9.483  -2.765  0.00  0.00    +0.220 C 
ATOM     31  O   LIG    1       -8.810   8.316  -3.091  0.00  0.00    -0.275 OA
ENDBRANCH  22  25
ENDBRANCH   6  19
BRANCH   7  32
ATOM     32  C   LIG    1       -1.095   1.690   0.191  0.00  0.00    +0.262 C 
ATOM     33  N   LIG    1        0.079   1.068   0.415  0.00  0.00    -0.324 N 
ATOM     34  H   LIG    1        0.888   1.589   0.541  0.00  0.00    +0.145 HD
ATOM     35  H   LIG    1        0.117   0.099   0.447  0.00  0.00    +0.145 HD
ATOM     36  O   LIG    1       -2.108   1.037   0.029  0.00  0.00    -0.269 OA
ENDBRANCH   7  32
TORSDOF 5
