REMARK  Name = ZINC12408973
REMARK                            x       y       z     vdW  Elec       q    Type
REMARK                         _______ _______ _______ _____ _____    ______ ____
ROOT
ATOM      1  C   LIG    1        2.407   4.210   0.001  0.00  0.00    +0.028 C 
ATOM      2  C   LIG    1        2.485   5.388  -0.668  0.00  0.00    +0.077 C 
ATOM      3  C   LIG    1        3.652   6.265  -0.899  0.00  0.00    +0.256 C 
ATOM      4  N   LIG    1        3.433   7.368  -1.595  0.00  0.00    -0.270 N 
ATOM      5  H   LIG    1        4.172   7.973  -1.769  0.00  0.00    +0.156 HD
ATOM      6  C   LIG    1        2.208   7.673  -2.068  0.00  0.00    +0.118 C 
ATOM      7  S   LIG    1        1.730   9.039  -2.982  0.00  0.00    -0.027 S 
ATOM      8  O   LIG    1        4.756   5.987  -0.471  0.00  0.00    -0.269 OA
ATOM      9  S   LIG    1        1.205   6.301  -1.519  0.00  0.00    -0.061 S 
ENDROOT
BRANCH   1  12
ATOM     10  C   LIG    1       -1.304   3.732   0.244  0.00  0.00    +0.003 A 
ATOM     11  C   LIG    1       -0.078   4.311  -0.006  0.00  0.00    +0.008 A 
ATOM     12  C   LIG    1        1.096   3.600   0.266  0.00  0.00    -0.021 A 
ATOM     13  C   LIG    1        1.016   2.305   0.790  0.00  0.00    +0.046 A 
ATOM     14  C   LIG    1       -0.219   1.740   1.035  0.00  0.00    +0.124 A 
ATOM     15  F   LIG    1       -0.300   0.489   1.541  0.00  0.00    -0.205 F 
ATOM     16  C   LIG    1       -1.377   2.450   0.758  0.00  0.00    +0.038 A 
ENDBRANCH   1  12
TORSDOF 1
