REMARK  Name = ZINC12421848
REMARK                            x       y       z     vdW  Elec       q    Type
REMARK                         _______ _______ _______ _____ _____    ______ ____
ROOT
ATOM      1  C   LIG    1       -0.017   1.388   0.010  0.00  0.00    +0.001 A 
ATOM      2  C   LIG    1        1.145   2.101   0.002  0.00  0.00    +0.014 A 
ATOM      3  C   LIG    1        2.373   1.425  -0.013  0.00  0.00    +0.043 A 
ATOM      4  C   LIG    1        2.396   0.010  -0.021  0.00  0.00    +0.086 A 
ATOM      5  N   LIG    1        3.564  -0.646  -0.034  0.00  0.00    -0.253 NA
ATOM      6  C   LIG    1        4.711  -0.017  -0.041  0.00  0.00    +0.128 A 
ATOM      7  C   LIG    1        4.782   1.386  -0.034  0.00  0.00    +0.097 A 
ATOM      8  C   LIG    1        1.179  -0.691  -0.013  0.00  0.00    +0.081 A 
ATOM      9  C   LIG    1        3.598   2.132  -0.020  0.00  0.00    +0.140 A 
ATOM     10  C   LIG    1        0.002  -0.004   0.002  0.00  0.00    +0.014 A 
ENDROOT
BRANCH   7  11
ATOM     11  C   LIG    1        6.089   2.065  -0.042  0.00  0.00    +0.255 C 
ATOM     12  N   LIG    1        7.225   1.340  -0.055  0.00  0.00    -0.261 N 
ATOM     13  H   LIG    1        7.182   0.371  -0.060  0.00  0.00    +0.157 HD
ATOM     14  O   LIG    1        6.143   3.280  -0.036  0.00  0.00    -0.270 OA
BRANCH  12  15
ATOM     15  C   LIG    1        8.457   1.980  -0.062  0.00  0.00    +0.165 A 
ATOM     16  N   LIG    1        8.708   3.272  -0.051  0.00  0.00    -0.233 NA
ATOM     17  C   LIG    1        9.947   3.727  -0.060  0.00  0.00    +0.120 A 
ATOM     18  C   LIG    1       10.941   2.805  -0.081  0.00  0.00    +0.068 A 
ATOM     19  S   LIG    1        9.993   1.292  -0.079  0.00  0.00    -0.061 S 
ENDBRANCH  12  15
ENDBRANCH   7  11
BRANCH   8  20
ATOM     20  C   LIG    1        1.174  -2.198  -0.022  0.00  0.00    +0.419 C 
ATOM     21  F   LIG    1        1.843  -2.672   1.112  0.00  0.00    -0.166 F 
ATOM     22  F   LIG    1        1.822  -2.659  -1.173  0.00  0.00    -0.166 F 
ATOM     23  F   LIG    1       -0.146  -2.660  -0.012  0.00  0.00    -0.166 F 
ENDBRANCH   8  20
BRANCH   9  24
ATOM     24  O   LIG    1        3.624   3.484  -0.014  0.00  0.00    -0.505 OA
ATOM     25  H   LIG    1        2.821   3.968  -0.004  0.00  0.00    +0.292 HD
ENDBRANCH   9  24
TORSDOF 4
