REMARK  Name = ZINC12584333
REMARK                            x       y       z     vdW  Elec       q    Type
REMARK                         _______ _______ _______ _____ _____    ______ ____
ROOT
ATOM      1  C   LIG    1       -5.138   5.619   0.104  0.00  0.00    +0.247 C 
ATOM      2  N   LIG    1       -4.038   4.842   0.035  0.00  0.00    -0.297 N 
ATOM      3  C   LIG    1       -3.370   4.604  -1.252  0.00  0.00    +0.110 C 
ATOM      4  C   LIG    1       -3.235   3.093  -1.465  0.00  0.00    +0.044 C 
ATOM      5  C   LIG    1       -2.521   2.473  -0.261  0.00  0.00    +0.095 C 
ATOM      6  C   LIG    1       -3.350   2.711   1.003  0.00  0.00    +0.044 C 
ATOM      7  C   LIG    1       -3.486   4.218   1.244  0.00  0.00    +0.110 C 
ATOM      8  O   LIG    1       -5.545   6.185  -0.892  0.00  0.00    -0.270 OA
ENDROOT
BRANCH   5   9
ATOM      9  N   LIG    1       -2.361   1.033  -0.476  0.00  0.00    -0.289 N 
ATOM     10  C   LIG    1       -1.151   0.346  -0.526  0.00  0.00    +0.070 A 
ATOM     11  C   LIG    1        0.173   0.739  -0.399  0.00  0.00    +0.028 A 
ATOM     12  C   LIG    1        1.181  -0.200  -0.491  0.00  0.00    +0.002 A 
ATOM     13  C   LIG    1        0.876  -1.532  -0.711  0.00  0.00    +0.002 A 
ATOM     14  C   LIG    1       -0.439  -1.933  -0.840  0.00  0.00    +0.028 A 
ATOM     15  C   LIG    1       -1.458  -0.998  -0.748  0.00  0.00    +0.067 A 
ATOM     16  N   LIG    1       -2.846  -1.085  -0.832  0.00  0.00    -0.306 N 
ATOM     17  H   LIG    1       -3.356  -1.896  -0.981  0.00  0.00    +0.170 HD
ATOM     18  C   LIG    1       -3.359   0.149  -0.668  0.00  0.00    +0.328 A 
ATOM     19  O   LIG    1       -4.544   0.424  -0.686  0.00  0.00    -0.247 OA
ENDBRANCH   5   9
BRANCH   1  24
ATOM     20  C   LIG    1       -5.814   6.290   3.740  0.00  0.00    +0.121 A 
ATOM     21  C   LIG    1       -7.186   6.086   3.800  0.00  0.00    +0.045 A 
ATOM     22  C   LIG    1       -7.887   5.731   2.662  0.00  0.00    +0.004 A 
ATOM     23  C   LIG    1       -7.228   5.584   1.458  0.00  0.00    +0.013 A 
ATOM     24  C   LIG    1       -5.848   5.782   1.390  0.00  0.00    +0.040 A 
ATOM     25  C   LIG    1       -5.142   6.139   2.539  0.00  0.00    +0.058 A 
BRANCH  20  27
ATOM     26  C   LIG    1       -5.887   6.777   6.066  0.00  0.00    +0.277 C 
ATOM     27  O   LIG    1       -5.130   6.639   4.862  0.00  0.00    -0.495 OA
ENDBRANCH  20  27
ENDBRANCH   1  24
TORSDOF 3
