REMARK  Name = ZINC12354799
REMARK                            x       y       z     vdW  Elec       q    Type
REMARK                         _______ _______ _______ _____ _____    ______ ____
ROOT
ATOM      1  C   LIG    1       -2.749   0.115   0.013  0.00  0.00    +0.249 C 
ATOM      2  N   LIG    1       -2.485   1.437   0.020  0.00  0.00    -0.265 N 
ATOM      3  H   LIG    1       -3.215   2.077   0.026  0.00  0.00    +0.157 HD
ATOM      4  O   LIG    1       -1.835  -0.686   0.005  0.00  0.00    -0.270 OA
ENDROOT
BRANCH   1  11
ATOM      5  C   LIG    1       -5.200   0.559   0.032  0.00  0.00    +0.014 A 
ATOM      6  C   LIG    1       -6.503   0.110   0.027  0.00  0.00    +0.016 A 
ATOM      7  C   LIG    1       -6.771  -1.249   0.021  0.00  0.00    +0.018 A 
ATOM      8 BR   LIG    1       -8.562  -1.856   0.024  0.00  0.00    -0.050 Br
ATOM      9  C   LIG    1       -5.732  -2.165   0.012  0.00  0.00    +0.016 A 
ATOM     10  C   LIG    1       -4.424  -1.728   0.010  0.00  0.00    +0.014 A 
ATOM     11  C   LIG    1       -4.148  -0.359   0.016  0.00  0.00    +0.037 A 
ENDBRANCH   1  11
BRANCH   2  12
ATOM     12  C   LIG    1       -1.159   1.887   0.017  0.00  0.00    +0.147 A 
ATOM     13  C   LIG    1       -0.013   1.076   0.008  0.00  0.00    +0.068 A 
ATOM     14  C   LIG    1        1.070   1.887   0.002  0.00  0.00    +0.041 A 
ATOM     15  N   LIG    1        0.631   3.163   0.013  0.00  0.00    -0.280 N 
ATOM     16  H   LIG    1        1.205   3.982   0.011  0.00  0.00    +0.189 HD
ATOM     17  N   LIG    1       -0.770   3.140   0.025  0.00  0.00    -0.158 NA
BRANCH  14  18
ATOM     18  C   LIG    1        2.510   1.444  -0.014  0.00  0.00    +0.037 C 
ATOM     19  C   LIG    1        3.087   1.470   1.416  0.00  0.00    +0.010 C 
ATOM     20  C   LIG    1        4.546   1.953   1.229  0.00  0.00    +0.001 C 
ATOM     21  C   LIG    1        4.414   3.014   0.108  0.00  0.00    +0.001 C 
ATOM     22  C   LIG    1        3.354   2.425  -0.846  0.00  0.00    +0.010 C 
ENDBRANCH  14  18
ENDBRANCH   2  12
TORSDOF 3
