REMARK  Name = ZINC11536222
REMARK                            x       y       z     vdW  Elec       q    Type
REMARK                         _______ _______ _______ _____ _____    ______ ____
ROOT
ATOM      1  S   LIG    1        1.232  -2.434  -0.024  0.00  0.00    +0.044 S 
ATOM      2  O   LIG    1       -0.002  -2.860   0.539  0.00  0.00    -0.163 OA
ATOM      3  O   LIG    1        2.488  -2.821   0.514  0.00  0.00    -0.163 OA
ENDROOT
BRANCH   1  10
ATOM      4  C   LIG    1       -0.004   0.000  -0.009  0.00  0.00    +0.028 A 
ATOM      5  C   LIG    1       -0.026   1.382  -0.007  0.00  0.00    +0.017 A 
ATOM      6  C   LIG    1        1.161   2.092  -0.018  0.00  0.00    +0.018 A 
ATOM      7 BR   LIG    1        1.132   3.983  -0.016  0.00  0.00    -0.050 Br
ATOM      8  C   LIG    1        2.370   1.419  -0.031  0.00  0.00    +0.017 A 
ATOM      9  C   LIG    1        2.391   0.037  -0.033  0.00  0.00    +0.028 A 
ATOM     10  C   LIG    1        1.204  -0.672  -0.022  0.00  0.00    +0.095 A 
ENDBRANCH   1  10
BRANCH   1  11
ATOM     11  C   LIG    1        1.223  -2.953  -1.708  0.00  0.00    +0.204 A 
ATOM     12  N   LIG    1        2.361  -3.130  -2.349  0.00  0.00    -0.127 NA
ATOM     13  N   LIG    1        2.405  -3.503  -3.576  0.00  0.00    -0.110 NA
ATOM     14  C   LIG    1        1.308  -3.735  -4.280  0.00  0.00    +0.232 A 
ATOM     15  C   LIG    1        0.059  -3.574  -3.686  0.00  0.00    +0.072 A 
ATOM     16  C   LIG    1        0.018  -3.177  -2.359  0.00  0.00    +0.055 A 
BRANCH  14  17
ATOM     17  O   LIG    1        1.401  -4.127  -5.576  0.00  0.00    -0.491 OA
ATOM     18  H   LIG    1        0.624  -4.291  -6.073  0.00  0.00    +0.294 HD
ENDBRANCH  14  17
ENDBRANCH   1  11
TORSDOF 3
