REMARK  Name = ZINC08587516
REMARK                            x       y       z     vdW  Elec       q    Type
REMARK                         _______ _______ _______ _____ _____    ______ ____
ROOT
ATOM      1  C   LIG    1        1.133  -2.615  -0.470  0.00  0.00    +0.186 C 
ATOM      2  C   LIG    1        1.850  -3.081  -1.718  0.00  0.00    +0.076 A 
ATOM      3  C   LIG    1        1.608  -4.136  -2.483  0.00  0.00    +0.082 A 
ATOM      4  C   LIG    1        2.597  -4.094  -3.590  0.00  0.00    +0.089 A 
ATOM      5  C   LIG    1        2.571  -5.144  -4.613  0.00  0.00    +0.266 A 
ATOM      6  N   LIG    1        1.613  -6.093  -4.451  0.00  0.00    -0.263 N 
ATOM      7  C   LIG    1        1.534  -7.170  -5.440  0.00  0.00    +0.157 C 
ATOM      8  C   LIG    1        0.737  -6.100  -3.441  0.00  0.00    +0.332 A 
ATOM      9  O   LIG    1       -0.071  -7.007  -3.411  0.00  0.00    -0.246 OA
ATOM     10  O   LIG    1        3.354  -5.164  -5.544  0.00  0.00    -0.267 OA
ATOM     11  C   LIG    1        3.375  -2.983  -3.377  0.00  0.00    +0.069 A 
ATOM     12  N   LIG    1        0.675  -5.184  -2.449  0.00  0.00    -0.294 N 
ATOM     13  C   LIG    1       -0.325  -5.280  -1.383  0.00  0.00    +0.154 C 
ATOM     14  N   LIG    1        2.930  -2.383  -2.241  0.00  0.00    -0.306 N 
ATOM     15  C   LIG    1        3.433  -1.239  -1.604  0.00  0.00    +0.068 A 
ATOM     16  C   LIG    1        4.355  -0.414  -2.219  0.00  0.00    +0.028 A 
ATOM     17  C   LIG    1        4.810   0.717  -1.564  0.00  0.00    +0.002 A 
ATOM     18  C   LIG    1        4.341   1.022  -0.299  0.00  0.00    +0.002 A 
ATOM     19  C   LIG    1        3.424   0.197   0.326  0.00  0.00    +0.025 A 
ATOM     20  C   LIG    1        2.969  -0.943  -0.318  0.00  0.00    +0.052 A 
ATOM     21  N   LIG    1        2.078  -1.813   0.323  0.00  0.00    -0.328 N 
ATOM     22  H   LIG    1        2.083  -1.887   1.290  0.00  0.00    +0.147 HD
ENDROOT
BRANCH   1  27
ATOM     23  C   LIG    1       -1.645   1.333  -1.931  0.00  0.00    +0.086 C 
ATOM     24  C   LIG    1       -1.265  -0.055  -1.486  0.00  0.00    +0.102 A 
ATOM     25  C   LIG    1       -2.116  -1.078  -1.287  0.00  0.00    +0.045 A 
ATOM     26  C   LIG    1       -1.337  -2.185  -0.877  0.00  0.00    +0.047 A 
ATOM     27  C   LIG    1       -0.057  -1.772  -0.851  0.00  0.00    +0.131 A 
ATOM     28  O   LIG    1       -0.019  -0.483  -1.226  0.00  0.00    -0.463 OA
ENDBRANCH   1  27
BRANCH  11  29
ATOM     29  C   LIG    1        4.491  -2.524  -4.227  0.00  0.00    -0.000 A 
ATOM     30  C   LIG    1        5.771  -2.380  -3.687  0.00  0.00    +0.010 A 
ATOM     31  C   LIG    1        6.809  -1.950  -4.487  0.00  0.00    +0.001 A 
ATOM     32  C   LIG    1        6.585  -1.664  -5.822  0.00  0.00    +0.000 A 
ATOM     33  C   LIG    1        5.320  -1.805  -6.364  0.00  0.00    +0.001 A 
ATOM     34  C   LIG    1        4.273  -2.238  -5.577  0.00  0.00    +0.010 A 
ENDBRANCH  11  29
TORSDOF 2
