REMARK  Name = ZINC12502895
REMARK                            x       y       z     vdW  Elec       q    Type
REMARK                         _______ _______ _______ _____ _____    ______ ____
ROOT
ATOM      1  C   LIG    1       -0.753   1.933  -1.233  0.00  0.00    +0.178 C 
ATOM      2  C   LIG    1       -0.017   1.425   0.010  0.00  0.00    +0.177 C 
ATOM      3  C   LIG    1        1.419   1.956  -0.001  0.00  0.00    +0.179 C 
ATOM      4  C   LIG    1        2.106   1.509  -1.296  0.00  0.00    +0.205 C 
ATOM      5  C   LIG    1        1.285   1.987  -2.490  0.00  0.00    +0.242 C 
ATOM      6  C   LIG    1        1.303   3.496  -2.568  0.00  0.00    +0.272 C 
ATOM      7  N   LIG    1        1.881   3.788  -3.752  0.00  0.00    -0.264 N 
ATOM      8  H   LIG    1        2.029   4.690  -4.078  0.00  0.00    +0.157 HD
ATOM      9  C   LIG    1        2.225   2.680  -4.420  0.00  0.00    +0.139 C 
ATOM     10  S   LIG    1        2.979   2.691  -5.956  0.00  0.00    -0.018 S 
ATOM     11  O   LIG    1        0.886   4.279  -1.742  0.00  0.00    -0.270 OA
ATOM     12  N   LIG    1        1.909   1.557  -3.748  0.00  0.00    -0.289 N 
ATOM     13  H   LIG    1        2.064   0.644  -4.037  0.00  0.00    +0.151 HD
ATOM     14  O   LIG    1       -0.053   1.509  -2.405  0.00  0.00    -0.338 OA
ENDROOT
BRANCH   2  15
ATOM     15  O   LIG    1        0.002  -0.004   0.002  0.00  0.00    -0.386 OA
ATOM     16  H   LIG    1       -0.876  -0.409   0.008  0.00  0.00    +0.210 HD
ENDBRANCH   2  15
BRANCH   3  17
ATOM     17  O   LIG    1        1.402   3.383   0.063  0.00  0.00    -0.386 OA
ATOM     18  H   LIG    1        0.974   3.736   0.855  0.00  0.00    +0.210 HD
ENDBRANCH   3  17
BRANCH   4  19
ATOM     19  O   LIG    1        3.417   2.073  -1.361  0.00  0.00    -0.384 OA
ATOM     20  H   LIG    1        3.994   1.814  -0.629  0.00  0.00    +0.210 HD
ENDBRANCH   4  19
BRANCH   1  21
ATOM     21  C   LIG    1       -2.174   1.364  -1.253  0.00  0.00    +0.190 C 
BRANCH  21  22
ATOM     22  O   LIG    1       -2.897   1.929  -2.348  0.00  0.00    -0.392 OA
ATOM     23  H   LIG    1       -3.808   1.613  -2.422  0.00  0.00    +0.210 HD
ENDBRANCH  21  22
ENDBRANCH   1  21
TORSDOF 5
