REMARK  Name = ZINC11906992
REMARK                            x       y       z     vdW  Elec       q    Type
REMARK                         _______ _______ _______ _____ _____    ______ ____
ROOT
ATOM      1  C   LIG    1       -1.726   8.489   1.955  0.00  0.00    +0.090 A 
ATOM      2  C   LIG    1       -1.049   9.461   2.641  0.00  0.00    +0.080 A 
ATOM      3  C   LIG    1       -1.757  10.364   3.395  0.00  0.00    +0.142 A 
ATOM      4  C   LIG    1       -3.145  10.243   3.438  0.00  0.00    +0.117 A 
ATOM      5  S   LIG    1       -3.425   8.831   2.382  0.00  0.00    -0.062 S 
ENDROOT
BRANCH   1  10
ATOM      6  C   LIG    1       -1.684   3.388   0.832  0.00  0.00    +0.164 A 
ATOM      7  C   LIG    1       -0.864   4.134   0.010  0.00  0.00    +0.079 A 
ATOM      8  C   LIG    1       -0.772   5.517   0.191  0.00  0.00    +0.093 A 
ATOM      9  C   LIG    1       -1.517   6.134   1.210  0.00  0.00    +0.078 A 
ATOM     10  N   LIG    1       -1.218   7.484   1.137  0.00  0.00    -0.292 N 
ATOM     11  C   LIG    1       -0.331   7.646   0.112  0.00  0.00    +0.205 A 
ATOM     12  C   LIG    1       -2.338   5.373   2.030  0.00  0.00    +0.077 A 
ATOM     13  N   LIG    1       -0.072   6.497  -0.439  0.00  0.00    -0.235 NA
ATOM     14  C   LIG    1       -2.426   4.007   1.839  0.00  0.00    +0.164 A 
BRANCH   6  16
ATOM     15  C   LIG    1       -0.993   1.472  -0.397  0.00  0.00    +0.277 C 
ATOM     16  O   LIG    1       -1.774   2.042   0.655  0.00  0.00    -0.491 OA
ENDBRANCH   6  16
BRANCH  14  17
ATOM     17  O   LIG    1       -3.235   3.262   2.640  0.00  0.00    -0.491 OA
ATOM     18  C   LIG    1       -3.966   3.958   3.651  0.00  0.00    +0.277 C 
ENDBRANCH  14  17
ENDBRANCH   1  10
BRANCH   4  19
ATOM     19  C   LIG    1       -4.087  11.033   4.135  0.00  0.00    +0.252 C 
ATOM     20  N   LIG    1       -5.401  10.751   4.046  0.00  0.00    -0.325 N 
ATOM     21  H   LIG    1       -6.047  11.293   4.525  0.00  0.00    +0.145 HD
ATOM     22  H   LIG    1       -5.702  10.005   3.503  0.00  0.00    +0.145 HD
ATOM     23  O   LIG    1       -3.709  11.969   4.817  0.00  0.00    -0.270 OA
ENDBRANCH   4  19
BRANCH   3  24
ATOM     24  O   LIG    1       -1.122  11.345   4.086  0.00  0.00    -0.486 OA
BRANCH  24  25
ATOM     25  C   LIG    1        0.303  11.392   3.984  0.00  0.00    +0.266 C 
BRANCH  25  26
ATOM     26  C   LIG    1        0.828  12.537   4.810  0.00  0.00    +0.014 A 
ATOM     27  C   LIG    1       -0.037  13.277   5.595  0.00  0.00    +0.009 A 
ATOM     28  C   LIG    1        0.446  14.325   6.357  0.00  0.00    +0.000 A 
ATOM     29  C   LIG    1        1.792  14.639   6.326  0.00  0.00    +0.002 A 
ATOM     30  C   LIG    1        2.656  13.902   5.538  0.00  0.00    +0.027 A 
ATOM     31  C   LIG    1        2.174  12.851   4.780  0.00  0.00    +0.094 A 
BRANCH  31  32
ATOM     32  S   LIG    1        3.275  11.912   3.774  0.00  0.00    -0.006 S 
ATOM     33  C   LIG    1        3.293  10.259   4.521  0.00  0.00    +0.200 C 
ATOM     34  O   LIG    1        4.540  12.539   3.940  0.00  0.00    -0.170 OA
ATOM     35  O   LIG    1        2.651  11.866   2.499  0.00  0.00    -0.170 OA
ENDBRANCH  31  32
ENDBRANCH  25  26
ENDBRANCH  24  25
ENDBRANCH   3  24
TORSDOF 8
