REMARK  Name = ZINC12502774
REMARK                            x       y       z     vdW  Elec       q    Type
REMARK                         _______ _______ _______ _____ _____    ______ ____
ROOT
ATOM      1  N   LIG    1       -3.479   1.643  -0.860  0.00  0.00    -0.305 N 
ATOM      2  H   LIG    1       -3.398   2.592  -1.041  0.00  0.00    +0.150 HD
ATOM      3  C   LIG    1       -4.480   0.934  -1.419  0.00  0.00    +0.248 C 
ATOM      4  O   LIG    1       -4.582  -0.256  -1.193  0.00  0.00    -0.270 OA
ENDROOT
BRANCH   3   5
ATOM      5  C   LIG    1       -5.452   1.602  -2.305  0.00  0.00    +0.081 A 
ATOM      6  C   LIG    1       -5.342   2.971  -2.563  0.00  0.00    +0.055 A 
ATOM      7  C   LIG    1       -6.252   3.589  -3.396  0.00  0.00    +0.124 A 
ATOM      8  F   LIG    1       -6.143   4.912  -3.649  0.00  0.00    -0.205 F 
ATOM      9  C   LIG    1       -7.282   2.858  -3.971  0.00  0.00    +0.042 A 
ATOM     10  C   LIG    1       -7.403   1.506  -3.719  0.00  0.00    +0.049 A 
ATOM     11  C   LIG    1       -6.494   0.869  -2.888  0.00  0.00    +0.129 A 
BRANCH  11  12
ATOM     12  O   LIG    1       -6.613  -0.460  -2.640  0.00  0.00    -0.506 OA
ATOM     13  H   LIG    1       -7.162  -0.669  -1.871  0.00  0.00    +0.292 HD
ENDBRANCH  11  12
ENDBRANCH   3   5
BRANCH   1  15
ATOM     14  C   LIG    1       -3.073   0.925   1.442  0.00  0.00    +0.033 C 
ATOM     15  C   LIG    1       -2.514   0.979   0.019  0.00  0.00    +0.100 C 
BRANCH  15  16
ATOM     16  C   LIG    1       -1.219   1.751   0.017  0.00  0.00    -0.027 A 
ATOM     17  C   LIG    1       -0.013   1.076   0.008  0.00  0.00    +0.006 A 
ATOM     18  C   LIG    1        1.175   1.783   0.000  0.00  0.00    +0.015 A 
ATOM     19  C   LIG    1        1.156   3.166   0.008  0.00  0.00    +0.018 A 
ATOM     20 BR   LIG    1        2.780   4.134  -0.003  0.00  0.00    -0.050 Br
ATOM     21  C   LIG    1       -0.051   3.841   0.022  0.00  0.00    +0.015 A 
ATOM     22  C   LIG    1       -1.238   3.133   0.030  0.00  0.00    +0.006 A 
ENDBRANCH  15  16
ENDBRANCH   1  15
TORSDOF 4
