REMARK  Name = ZINC12339625
REMARK                            x       y       z     vdW  Elec       q    Type
REMARK                         _______ _______ _______ _____ _____    ______ ____
ROOT
ATOM      1  C   LIG    1       -0.006  -2.787  -4.879  0.00  0.00    +0.021 C 
ATOM      2  C   LIG    1       -0.697  -2.290  -5.947  0.00  0.00    +0.046 C 
ATOM      3  C   LIG    1       -0.900  -2.932  -7.266  0.00  0.00    +0.008 A 
ATOM      4  C   LIG    1       -0.492  -4.146  -7.808  0.00  0.00    +0.010 A 
ATOM      5  C   LIG    1       -0.849  -4.472  -9.101  0.00  0.00    +0.001 A 
ATOM      6  C   LIG    1       -1.609  -3.594  -9.854  0.00  0.00    +0.002 A 
ATOM      7  C   LIG    1       -2.019  -2.386  -9.325  0.00  0.00    +0.024 A 
ATOM      8  C   LIG    1       -1.670  -2.040  -8.024  0.00  0.00    +0.042 A 
ATOM      9  N   LIG    1       -1.946  -0.911  -7.263  0.00  0.00    -0.281 N 
ATOM     10  H   LIG    1       -2.465  -0.154  -7.576  0.00  0.00    +0.155 HD
ATOM     11  C   LIG    1       -1.405  -1.003  -6.035  0.00  0.00    +0.249 C 
ATOM     12  O   LIG    1       -1.486  -0.168  -5.153  0.00  0.00    -0.270 OA
ENDROOT
BRANCH   1  16
ATOM     13  C   LIG    1        0.681  -0.355  -1.489  0.00  0.00    +0.029 A 
ATOM     14  C   LIG    1        0.365  -1.702  -1.325  0.00  0.00    +0.023 A 
ATOM     15  C   LIG    1        0.142  -2.491  -2.416  0.00  0.00    +0.010 A 
ATOM     16  C   LIG    1        0.232  -1.944  -3.704  0.00  0.00    -0.024 A 
ATOM     17  C   LIG    1        0.550  -0.588  -3.864  0.00  0.00    +0.010 A 
ATOM     18  C   LIG    1        0.766   0.195  -2.766  0.00  0.00    +0.023 A 
BRANCH  13  20
ATOM     19  C   LIG    1        1.234   1.863  -0.544  0.00  0.00    +0.129 C 
ATOM     20  N   LIG    1        0.907   0.445  -0.374  0.00  0.00    -0.336 N 
ATOM     21  C   LIG    1        0.818  -0.131   0.970  0.00  0.00    +0.129 C 
ENDBRANCH  13  20
ENDBRANCH   1  16
TORSDOF 2
