REMARK  Name = ZINC09262865
REMARK                            x       y       z     vdW  Elec       q    Type
REMARK                         _______ _______ _______ _____ _____    ______ ____
ROOT
ATOM      1  C   LIG    1        1.549  -4.820  -4.541  0.00  0.00    +0.162 A 
ATOM      2  C   LIG    1        2.136  -3.609  -4.849  0.00  0.00    +0.057 A 
ATOM      3  C   LIG    1        2.165  -2.586  -3.893  0.00  0.00    -0.019 A 
ATOM      4  C   LIG    1        1.588  -2.794  -2.634  0.00  0.00    +0.012 A 
ATOM      5  C   LIG    1        1.000  -4.004  -2.338  0.00  0.00    +0.050 A 
ATOM      6  C   LIG    1        0.977  -5.019  -3.285  0.00  0.00    +0.162 A 
ENDROOT
BRANCH   3   7
ATOM      7  C   LIG    1        2.793  -1.298  -4.212  0.00  0.00    +0.036 C 
ATOM      8  C   LIG    1        3.527  -0.650  -3.272  0.00  0.00    +0.098 C 
ATOM      9  C   LIG    1        3.933  -1.154  -1.952  0.00  0.00    +0.269 C 
ATOM     10  N   LIG    1        4.643  -0.164  -1.374  0.00  0.00    -0.216 N 
ATOM     11  C   LIG    1        4.720   0.886  -2.204  0.00  0.00    +0.313 C 
ATOM     12  O   LIG    1        5.303   1.923  -1.952  0.00  0.00    -0.252 OA
ATOM     13  O   LIG    1        3.678  -2.245  -1.475  0.00  0.00    -0.268 OA
ATOM     14  N   LIG    1        4.066   0.642  -3.354  0.00  0.00    -0.265 N 
ATOM     15  H   LIG    1        3.982   1.250  -4.105  0.00  0.00    +0.157 HD
BRANCH  10  16
ATOM     16  C   LIG    1        5.247  -0.229  -0.040  0.00  0.00    +0.156 C 
BRANCH  16  17
ATOM     17  C   LIG    1        4.263   0.281   0.982  0.00  0.00    +0.006 A 
ATOM     18  C   LIG    1        4.373   1.572   1.462  0.00  0.00    +0.008 A 
ATOM     19  C   LIG    1        3.471   2.040   2.399  0.00  0.00    +0.000 A 
ATOM     20  C   LIG    1        2.458   1.218   2.856  0.00  0.00    +0.003 A 
ATOM     21  C   LIG    1        2.343  -0.072   2.373  0.00  0.00    +0.038 A 
ATOM     22  C   LIG    1        3.250  -0.543   1.438  0.00  0.00    +0.128 A 
ATOM     23  F   LIG    1        3.141  -1.806   0.969  0.00  0.00    -0.205 F 
ENDBRANCH  16  17
ENDBRANCH  10  16
ENDBRANCH   3   7
BRANCH   1  24
ATOM     24  O   LIG    1        1.525  -5.818  -5.465  0.00  0.00    -0.489 OA
BRANCH  24  26
ATOM     25  C   LIG    1        2.005  -6.776  -7.631  0.00  0.00    +0.048 C 
ATOM     26  C   LIG    1        2.130  -5.545  -6.730  0.00  0.00    +0.226 C 
ENDBRANCH  24  26
ENDBRANCH   1  24
BRANCH   6  27
ATOM     27  O   LIG    1        0.396  -6.210  -2.987  0.00  0.00    -0.484 OA
BRANCH  27  28
ATOM     28  C   LIG    1       -0.171  -6.347  -1.682  0.00  0.00    +0.264 C 
BRANCH  28  29
ATOM     29  C   LIG    1       -0.766  -7.724  -1.535  0.00  0.00    -0.010 A 
ATOM     30  C   LIG    1       -2.089  -7.943  -1.875  0.00  0.00    +0.008 A 
ATOM     31  C   LIG    1       -2.638  -9.202  -1.747  0.00  0.00    +0.015 A 
ATOM     32  C   LIG    1       -1.859 -10.254  -1.262  0.00  0.00    +0.059 A 
ATOM     33  C   LIG    1       -0.526 -10.025  -0.916  0.00  0.00    +0.015 A 
ATOM     34  C   LIG    1        0.012  -8.762  -1.054  0.00  0.00    +0.008 A 
BRANCH  32  35
ATOM     35  C   LIG    1       -2.442 -11.603  -1.117  0.00  0.00    +0.337 C 
ATOM     36  O   LIG    1       -1.761 -12.517  -0.696  0.00  0.00    -0.245 OA
BRANCH  35  37
ATOM     37  O   LIG    1       -3.728 -11.821  -1.453  0.00  0.00    -0.477 OA
ATOM     38  H   LIG    1       -4.253 -11.117  -1.778  0.00  0.00    +0.295 HD
ENDBRANCH  35  37
ENDBRANCH  32  35
ENDBRANCH  28  29
ENDBRANCH  27  28
ENDBRANCH   6  27
TORSDOF 10
