REMARK  Name = ZINC12952544
REMARK                            x       y       z     vdW  Elec       q    Type
REMARK                         _______ _______ _______ _____ _____    ______ ____
ROOT
ATOM      1  C   LIG    1        0.940   1.586  -0.211  0.00  0.00    +0.105 C 
ATOM      2  N   LIG    1        0.791   0.129  -0.326  0.00  0.00    -0.302 NA
ATOM      3  C   LIG    1       -0.617  -0.243  -0.506  0.00  0.00    +0.112 C 
ATOM      4  C   LIG    1       -0.708  -1.743  -0.832  0.00  0.00    +0.160 C 
ATOM      5  C   LIG    1        0.143  -2.009  -2.085  0.00  0.00    +0.131 C 
ATOM      6  N   LIG    1        1.519  -1.561  -1.838  0.00  0.00    -0.286 NA
ATOM      7  C   LIG    1        2.317  -1.610  -3.071  0.00  0.00    +0.106 C 
ATOM      8  C   LIG    1        2.167  -2.319  -0.761  0.00  0.00    +0.131 C 
ATOM      9  C   LIG    1        1.416  -2.070   0.557  0.00  0.00    +0.160 C 
ATOM     10  C   LIG    1       -0.033  -2.481   0.319  0.00  0.00    +0.173 C 
ATOM     11  O   LIG    1       -0.596  -3.318   0.983  0.00  0.00    -0.295 OA
ATOM     12  C   LIG    1        1.405  -0.554   0.818  0.00  0.00    +0.112 C 
ENDROOT
BRANCH   5  13
ATOM     13  C   LIG    1        0.141  -3.484  -2.392  0.00  0.00    +0.060 A 
ATOM     14  C   LIG    1        0.765  -3.945  -3.536  0.00  0.00    +0.025 A 
ATOM     15  C   LIG    1        0.757  -5.304  -3.809  0.00  0.00    +0.003 A 
ATOM     16  C   LIG    1        0.118  -6.153  -2.917  0.00  0.00    +0.020 A 
ATOM     17  C   LIG    1       -0.485  -5.619  -1.794  0.00  0.00    +0.111 A 
ATOM     18  N   LIG    1       -0.453  -4.321  -1.563  0.00  0.00    -0.258 NA
ENDBRANCH   5  13
BRANCH   8  19
ATOM     19  C   LIG    1        2.133  -3.789  -1.091  0.00  0.00    +0.060 A 
ATOM     20  C   LIG    1        2.831  -4.260  -2.187  0.00  0.00    +0.025 A 
ATOM     21  C   LIG    1        2.793  -5.614  -2.481  0.00  0.00    +0.003 A 
ATOM     22  C   LIG    1        2.052  -6.448  -1.657  0.00  0.00    +0.020 A 
ATOM     23  C   LIG    1        1.381  -5.905  -0.579  0.00  0.00    +0.111 A 
ATOM     24  N   LIG    1        1.443  -4.612  -0.326  0.00  0.00    -0.258 NA
ENDBRANCH   8  19
BRANCH   4  25
ATOM     25  C   LIG    1       -2.137  -2.186  -1.015  0.00  0.00    +0.324 C 
ATOM     26  O   LIG    1       -2.492  -2.663  -2.067  0.00  0.00    -0.250 OA
BRANCH  25  27
ATOM     27  O   LIG    1       -3.015  -2.051  -0.009  0.00  0.00    -0.467 OA
ATOM     28  C   LIG    1       -4.353  -2.492  -0.252  0.00  0.00    +0.280 C 
ENDBRANCH  25  27
ENDBRANCH   4  25
BRANCH   9  29
ATOM     29  C   LIG    1        2.039  -2.826   1.702  0.00  0.00    +0.324 C 
ATOM     30  O   LIG    1        3.010  -3.519   1.511  0.00  0.00    -0.250 OA
BRANCH  29  31
ATOM     31  O   LIG    1        1.516  -2.729   2.934  0.00  0.00    -0.467 OA
ATOM     32  C   LIG    1        2.157  -3.473   3.972  0.00  0.00    +0.280 C 
ENDBRANCH  29  31
ENDBRANCH   9  29
TORSDOF 6
