REMARK  Name = ZINC12647762
REMARK                            x       y       z     vdW  Elec       q    Type
REMARK                         _______ _______ _______ _____ _____    ______ ____
ROOT
ATOM      1  C   LIG    1       -1.242   3.150   0.032  0.00  0.00    +0.019 A 
ATOM      2  C   LIG    1       -0.051   3.841   0.024  0.00  0.00    +0.005 A 
ATOM      3  C   LIG    1        1.160   3.162   0.007  0.00  0.00    -0.042 A 
ATOM      4  C   LIG    1        1.178   1.781   0.000  0.00  0.00    -0.029 A 
ATOM      5  C   LIG    1        2.469   1.004  -0.012  0.00  0.00    +0.116 C 
ATOM      6  N   LIG    1        3.582   1.863  -0.428  0.00  0.00    -0.312 NA
ATOM      7  H   LIG    1        4.530   1.320  -0.304  0.00  0.00    +0.122 HD
ATOM      8  C   LIG    1        3.616   3.085   0.391  0.00  0.00    +0.086 C 
ATOM      9  C   LIG    1       -0.013   1.076   0.008  0.00  0.00    +0.024 A 
ATOM     10  C   LIG    1        2.433   3.969  -0.007  0.00  0.00    +0.050 C 
ATOM     11  C   LIG    1       -1.231   1.754   0.017  0.00  0.00    +0.052 A 
ENDROOT
BRANCH  11  12
ATOM     12  C   LIG    1       -2.463   1.023   0.018  0.00  0.00    +0.099 C 
ATOM     13  N   LIG    1       -3.440   0.443   0.018  0.00  0.00    -0.191 NA
ENDBRANCH  11  12
TORSDOF 1
