REMARK  Name = ZINC09781790
REMARK                            x       y       z     vdW  Elec       q    Type
REMARK                         _______ _______ _______ _____ _____    ______ ____
ROOT
ATOM      1  N   LIG    1       -1.697   3.966   0.144  0.00  0.00    +0.381 N 
ATOM      2  H   LIG    1       -2.648   3.597   0.030  0.00  0.00    -0.082 HD
ATOM      3  C   LIG    1       -1.183   3.563   1.471  0.00  0.00    -0.078 C 
ATOM      4  C   LIG    1       -1.259   2.039   1.592  0.00  0.00    -0.014 C 
ATOM      5  C   LIG    1       -0.406   1.401   0.491  0.00  0.00    +0.005 C 
ATOM      6  C   LIG    1       -0.903   1.886  -0.874  0.00  0.00    -0.014 C 
ATOM      7  C   LIG    1       -0.836   3.414  -0.923  0.00  0.00    -0.078 C 
ENDROOT
BRANCH   1   8
ATOM      8  C   LIG    1       -1.740   5.440   0.047  0.00  0.00    -0.044 C 
BRANCH   8   9
ATOM      9  C   LIG    1       -2.684   5.827  -1.093  0.00  0.00    +0.135 C 
BRANCH   9  10
ATOM     10  O   LIG    1       -4.001   5.358  -0.800  0.00  0.00    -0.390 OA
ATOM     11  H   LIG    1       -4.375   5.718   0.015  0.00  0.00    +0.210 HD
ENDBRANCH   9  10
BRANCH   9  12
ATOM     12  C   LIG    1       -2.706   7.350  -1.242  0.00  0.00    +0.258 C 
BRANCH  12  13
ATOM     13  O   LIG    1       -3.495   7.706  -2.378  0.00  0.00    -0.489 OA
BRANCH  13  19
ATOM     14  C   LIG    1       -4.370   9.448  -3.742  0.00  0.00    -0.002 A 
ATOM     15  C   LIG    1       -4.494  10.796  -4.019  0.00  0.00    +0.007 A 
ATOM     16  C   LIG    1       -3.869  11.729  -3.213  0.00  0.00    +0.001 A 
ATOM     17  C   LIG    1       -3.119  11.316  -2.127  0.00  0.00    +0.004 A 
ATOM     18  C   LIG    1       -2.997   9.970  -1.842  0.00  0.00    +0.046 A 
ATOM     19  C   LIG    1       -3.618   9.031  -2.653  0.00  0.00    +0.124 A 
BRANCH  14  20
ATOM     20  C   LIG    1       -5.052   8.431  -4.621  0.00  0.00    +0.065 C 
BRANCH  20  22
ATOM     21  C   LIG    1       -7.478   8.182  -4.739  0.00  0.00    +0.004 C 
ATOM     22  C   LIG    1       -6.386   8.065  -4.024  0.00  0.00    -0.030 C 
ENDBRANCH  20  22
ENDBRANCH  14  20
ENDBRANCH  13  19
ENDBRANCH  12  13
ENDBRANCH   9  12
ENDBRANCH   8   9
ENDBRANCH   1   8
BRANCH   5  23
ATOM     23  C   LIG    1       -0.528  -0.122   0.568  0.00  0.00    +0.132 C 
BRANCH  23  24
ATOM     24  N   LIG    1        0.054  -0.595   1.826  0.00  0.00    -0.275 N 
ATOM     25  C   LIG    1        1.360  -0.920   1.855  0.00  0.00    +0.262 A 
ATOM     26  C   LIG    1        1.981  -1.395   3.101  0.00  0.00    +0.048 A 
ATOM     27  C   LIG    1        3.323  -1.734   3.177  0.00  0.00    +0.014 A 
ATOM     28  C   LIG    1        3.863  -2.182   4.377  0.00  0.00    +0.001 A 
ATOM     29  C   LIG    1        3.102  -2.300   5.504  0.00  0.00    +0.008 A 
ATOM     30  C   LIG    1        1.737  -1.966   5.470  0.00  0.00    -0.016 A 
ATOM     31  C   LIG    1        0.912  -2.070   6.603  0.00  0.00    +0.008 A 
ATOM     32  C   LIG    1       -0.409  -1.733   6.520  0.00  0.00    +0.001 A 
ATOM     33  C   LIG    1       -0.972  -1.282   5.332  0.00  0.00    +0.014 A 
ATOM     34  C   LIG    1       -0.192  -1.166   4.191  0.00  0.00    +0.048 A 
ATOM     35  C   LIG    1        1.177  -1.510   4.258  0.00  0.00    +0.007 A 
ATOM     36  O   LIG    1        2.031  -0.817   0.846  0.00  0.00    -0.267 OA
ATOM     37  C   LIG    1       -0.739  -0.694   2.910  0.00  0.00    +0.262 A 
ATOM     38  O   LIG    1       -1.915  -0.393   2.829  0.00  0.00    -0.267 OA
ENDBRANCH  23  24
ENDBRANCH   5  23
TORSDOF 10
