REMARK  Name = ZINC11597116
REMARK                            x       y       z     vdW  Elec       q    Type
REMARK                         _______ _______ _______ _____ _____    ______ ____
ROOT
ATOM      1  C   LIG    1       -0.127   1.668   0.024  0.00  0.00    -0.040 C 
ATOM      2  N   LIG    1        1.274   2.097   0.129  0.00  0.00    +0.384 N 
ATOM      3  H   LIG    1        1.314   3.122   0.181  0.00  0.00    -0.085 HD
ATOM      4  H   LIG    1        1.691   1.695   0.977  0.00  0.00    -0.085 HD
ATOM      5  C   LIG    1        2.030   1.638  -1.052  0.00  0.00    -0.077 C 
ATOM      6  C   LIG    1        2.203   0.122  -0.959  0.00  0.00    +0.016 C 
ATOM      7  C   LIG    1        0.871  -0.533  -0.696  0.00  0.00    -0.048 A 
ATOM      8  C   LIG    1        0.747  -1.895  -0.926  0.00  0.00    +0.004 A 
ATOM      9  C   LIG    1       -0.455  -2.534  -0.694  0.00  0.00    +0.000 A 
ATOM     10  C   LIG    1       -1.539  -1.813  -0.229  0.00  0.00    +0.000 A 
ATOM     11  C   LIG    1       -1.417  -0.458  -0.001  0.00  0.00    +0.002 A 
ATOM     12  C   LIG    1       -0.210   0.187  -0.236  0.00  0.00    -0.058 A 
ENDROOT
BRANCH   1  13
ATOM     13  C   LIG    1       -0.849   1.993   1.333  0.00  0.00    -0.008 C 
BRANCH  13  15
ATOM     14  C   LIG    1       -0.693   1.859   3.823  0.00  0.00    +0.007 C 
ATOM     15  C   LIG    1       -0.081   1.380   2.505  0.00  0.00    -0.018 C 
ATOM     16  C   LIG    1       -0.166  -0.146   2.428  0.00  0.00    +0.007 C 
ENDBRANCH  13  15
ENDBRANCH   1  13
TORSDOF 2
