REMARK  Name = ZINC12493522
REMARK                            x       y       z     vdW  Elec       q    Type
REMARK                         _______ _______ _______ _____ _____    ______ ____
ROOT
ATOM      1  C   LIG    1        3.603   2.122  -0.021  0.00  0.00    +0.255 C 
ATOM      2  C   LIG    1        4.404   1.821   1.265  0.00  0.00    +0.195 C 
ATOM      3  C   LIG    1        5.873   1.769   0.789  0.00  0.00    +0.178 C 
ATOM      4  C   LIG    1        5.786   2.044  -0.729  0.00  0.00    +0.178 C 
ATOM      5  O   LIG    1        4.444   1.656  -1.099  0.00  0.00    -0.346 OA
ENDROOT
BRANCH   1   8
ATOM      6  C   LIG    1       -0.017   1.411   0.010  0.00  0.00    +0.088 A 
ATOM      7  C   LIG    1        1.153   2.084   0.002  0.00  0.00    +0.098 A 
ATOM      8  N   LIG    1        2.333   1.392  -0.013  0.00  0.00    -0.271 N 
ATOM      9  C   LIG    1        2.338   0.046  -0.021  0.00  0.00    +0.331 A 
ATOM     10  N   LIG    1        1.186  -0.650  -0.013  0.00  0.00    -0.275 N 
ATOM     11  H   LIG    1        1.207  -1.619  -0.018  0.00  0.00    +0.173 HD
ATOM     12  O   LIG    1        3.398  -0.549  -0.034  0.00  0.00    -0.246 OA
ATOM     13  C   LIG    1        0.002  -0.004   0.002  0.00  0.00    +0.254 A 
ATOM     14  O   LIG    1       -1.041  -0.633   0.009  0.00  0.00    -0.268 OA
ENDBRANCH   1   8
BRANCH   2  15
ATOM     15  O   LIG    1        4.223   2.866   2.224  0.00  0.00    -0.385 OA
ATOM     16  H   LIG    1        4.704   2.729   3.051  0.00  0.00    +0.210 HD
ENDBRANCH   2  15
BRANCH   3  17
ATOM     17  O   LIG    1        6.647   2.779   1.440  0.00  0.00    -0.386 OA
ATOM     18  H   LIG    1        6.685   2.687   2.402  0.00  0.00    +0.210 HD
ENDBRANCH   3  17
BRANCH   4  19
ATOM     19  C   LIG    1        6.815   1.199  -1.483  0.00  0.00    +0.206 C 
BRANCH  19  20
ATOM     20  O   LIG    1        6.798   1.552  -2.868  0.00  0.00    -0.284 OA
BRANCH  20  21
ATOM     21  P   LIG    1        7.756   0.860  -3.961  0.00  0.00    +0.483 P 
ATOM     22  O   LIG    1        9.229   0.992  -3.511  0.00  0.00    -0.227 OA
BRANCH  21  23
ATOM     23  O   LIG    1        7.390  -0.635  -4.094  0.00  0.00    -0.302 OA
ATOM     24  H   LIG    1        7.507  -1.074  -3.237  0.00  0.00    +0.222 HD
ENDBRANCH  21  23
BRANCH  21  25
ATOM     25  O   LIG    1        7.562   1.589  -5.383  0.00  0.00    -0.186 OA
BRANCH  25  26
ATOM     26  P   LIG    1        8.400   1.600  -6.758  0.00  0.00    +0.481 P 
ATOM     27  O   LIG    1        9.932   1.641  -6.436  0.00  0.00    -0.227 OA
BRANCH  26  28
ATOM     28  O   LIG    1        8.009   2.863  -7.598  0.00  0.00    -0.302 OA
ATOM     29  H   LIG    1        8.211   3.664  -7.090  0.00  0.00    +0.222 HD
ENDBRANCH  26  28
BRANCH  26  30
ATOM     30  O   LIG    1        8.073   0.305  -7.578  0.00  0.00    -0.302 OA
ATOM     31  H   LIG    1        8.315  -0.477  -7.058  0.00  0.00    +0.222 HD
ENDBRANCH  26  30
ENDBRANCH  25  26
ENDBRANCH  21  25
ENDBRANCH  20  21
ENDBRANCH  19  20
ENDBRANCH   4  19
TORSDOF 11
