REMARK  Name = ZINC08816436
REMARK                            x       y       z     vdW  Elec       q    Type
REMARK                         _______ _______ _______ _____ _____    ______ ____
ROOT
ATOM      1  N   LIG    1       -4.114   2.447   2.352  0.00  0.00    -0.285 N 
ATOM      2  H   LIG    1       -4.641   2.717   3.279  0.00  0.00    +0.155 HD
ATOM      3  C   LIG    1       -4.802   2.317   1.200  0.00  0.00    +0.222 C 
ATOM      4  O   LIG    1       -4.240   1.925   0.199  0.00  0.00    -0.275 OA
ENDROOT
BRANCH   1  11
ATOM      5  C   LIG    1       -0.097   0.898   4.725  0.00  0.00    +0.044 C 
ATOM      6  C   LIG    1       -0.757   1.488   3.506  0.00  0.00    -0.048 A 
ATOM      7  C   LIG    1        0.005   1.825   2.402  0.00  0.00    +0.006 A 
ATOM      8  C   LIG    1       -0.598   2.366   1.281  0.00  0.00    -0.048 A 
ATOM      9  C   LIG    1        0.236   2.730   0.080  0.00  0.00    +0.044 C 
ATOM     10  C   LIG    1       -1.963   2.573   1.262  0.00  0.00    +0.026 A 
ATOM     11  C   LIG    1       -2.731   2.237   2.369  0.00  0.00    +0.034 A 
ATOM     12  C   LIG    1       -2.124   1.688   3.490  0.00  0.00    +0.026 A 
ENDBRANCH   1  11
BRANCH   3  13
ATOM     13  C   LIG    1       -6.269   2.657   1.156  0.00  0.00    +0.101 C 
ATOM     14  C   LIG    1       -7.077   1.752   2.115  0.00  0.00    +0.110 C 
ATOM     15  C   LIG    1       -7.535   0.603   1.244  0.00  0.00    +0.217 C 
ATOM     16  N   LIG    1       -7.409   0.929  -0.054  0.00  0.00    -0.298 N 
ATOM     17  O   LIG    1       -7.953  -0.458   1.657  0.00  0.00    -0.276 OA
ATOM     18  C   LIG    1       -6.881   2.288  -0.214  0.00  0.00    +0.121 C 
BRANCH  16  19
ATOM     19  C   LIG    1       -7.755   0.040  -1.166  0.00  0.00    +0.076 C 
ATOM     20  C   LIG    1       -9.238  -0.329  -1.082  0.00  0.00    +0.022 C 
ATOM     21  C   LIG    1       -9.599  -1.256  -2.244  0.00  0.00    +0.002 C 
ATOM     22  C   LIG    1       -8.752  -2.528  -2.163  0.00  0.00    +0.000 C 
ATOM     23  C   LIG    1       -7.269  -2.160  -2.247  0.00  0.00    +0.002 C 
ATOM     24  C   LIG    1       -6.908  -1.232  -1.085  0.00  0.00    +0.022 C 
ENDBRANCH  16  19
ENDBRANCH   3  13
TORSDOF 3
