REMARK  Name = ZINC12410487
REMARK                            x       y       z     vdW  Elec       q    Type
REMARK                         _______ _______ _______ _____ _____    ______ ____
ROOT
ATOM      1  C   LIG    1       -0.018   1.503   0.010  0.00  0.00    +0.044 C 
ATOM      2  C   LIG    1        0.002  -0.004   0.002  0.00  0.00    -0.048 A 
ATOM      3  C   LIG    1        0.006  -0.687  -1.203  0.00  0.00    +0.009 A 
ATOM      4  C   LIG    1        0.024  -2.067  -1.219  0.00  0.00    -0.025 A 
ATOM      5  C   LIG    1        0.028  -2.804  -2.533  0.00  0.00    +0.046 C 
ATOM      6  C   LIG    1        0.040  -2.777  -0.024  0.00  0.00    +0.069 A 
ATOM      7  C   LIG    1        0.035  -2.088   1.191  0.00  0.00    +0.066 A 
ATOM      8  N   LIG    1        0.051  -2.781   2.398  0.00  0.00    -0.316 N 
ATOM      9  H   LIG    1        0.048  -2.293   3.236  0.00  0.00    +0.169 HD
ATOM     10  C   LIG    1        0.069  -4.130   2.404  0.00  0.00    +0.314 A 
ATOM     11  O   LIG    1        0.083  -4.738   3.454  0.00  0.00    -0.262 OA
ATOM     12  C   LIG    1        0.074  -4.865   1.106  0.00  0.00    +0.314 A 
ATOM     13  O   LIG    1        0.091  -6.080   1.090  0.00  0.00    -0.262 OA
ATOM     14  N   LIG    1        0.058  -4.169  -0.048  0.00  0.00    -0.316 N 
ATOM     15  H   LIG    1        0.061  -4.638  -0.897  0.00  0.00    +0.169 HD
ATOM     16  C   LIG    1        0.023  -0.698   1.194  0.00  0.00    +0.031 A 
ENDROOT
TORSDOF 0
