REMARK  Name = ZINC08585017
REMARK                            x       y       z     vdW  Elec       q    Type
REMARK                         _______ _______ _______ _____ _____    ______ ____
ROOT
ATOM      1  C   LIG    1        0.246   1.383   0.671  0.00  0.00    +0.003 A 
ATOM      2  C   LIG    1        1.358   2.101   0.345  0.00  0.00    +0.011 A 
ATOM      3  C   LIG    1        2.538   1.431  -0.006  0.00  0.00    +0.012 A 
ATOM      4  C   LIG    1        2.560   0.016  -0.017  0.00  0.00    +0.041 A 
ATOM      5  C   LIG    1        3.745  -0.663  -0.370  0.00  0.00    +0.133 A 
ATOM      6  C   LIG    1        4.859   0.029  -0.699  0.00  0.00    +0.063 A 
ATOM      7  C   LIG    1        4.867   1.442  -0.697  0.00  0.00    +0.094 A 
ATOM      8  N   LIG    1        5.994   2.103  -1.029  0.00  0.00    -0.207 NA
ATOM      9  C   LIG    1        6.034   3.410  -1.037  0.00  0.00    +0.280 A 
ATOM     10  C   LIG    1        4.835   4.183  -0.680  0.00  0.00    +0.311 A 
ATOM     11  O   LIG    1        4.860   5.401  -0.684  0.00  0.00    -0.262 OA
ATOM     12  N   LIG    1        3.705   3.521  -0.347  0.00  0.00    -0.316 N 
ATOM     13  H   LIG    1        2.902   4.010  -0.107  0.00  0.00    +0.169 HD
ATOM     14  C   LIG    1        1.397  -0.690   0.326  0.00  0.00    +0.115 A 
ATOM     15  C   LIG    1        3.708   2.146  -0.351  0.00  0.00    +0.076 A 
ATOM     16  C   LIG    1        0.266  -0.008   0.661  0.00  0.00    +0.029 A 
ENDROOT
BRANCH  14  17
ATOM     17  S   LIG    1        1.398  -2.452   0.321  0.00  0.00    +0.057 S 
ATOM     18  O   LIG    1        2.486  -2.860   1.139  0.00  0.00    -0.153 OA
ATOM     19  O   LIG    1        1.273  -2.854  -1.037  0.00  0.00    -0.153 OA
BRANCH  17  20
ATOM     20  N   LIG    1        0.017  -2.945   1.089  0.00  0.00    -0.203 NA
ATOM     21  H   LIG    1       -0.170  -3.892   1.191  0.00  0.00    +0.144 HD
ATOM     22  H   LIG    1       -0.605  -2.288   1.438  0.00  0.00    +0.144 HD
ENDBRANCH  17  20
ENDBRANCH  14  17
BRANCH   5  23
ATOM     23  N   LIG    1        3.769  -2.143  -0.381  0.00  0.00    +0.007 N 
ATOM     24  O   LIG    1        4.347  -2.745   0.494  0.00  0.00    -0.130 OA
BRANCH  23  25
ATOM     25  O   LIG    1        3.210  -2.750  -1.265  0.00  0.00    -0.396 OA
ATOM     26  H   LIG    1        2.762  -2.284  -1.943  0.00  0.00    +0.329 HD
ENDBRANCH  23  25
ENDBRANCH   5  23
BRANCH   9  27
ATOM     27  O   LIG    1        7.179   4.051  -1.375  0.00  0.00    -0.489 OA
ATOM     28  H   LIG    1        7.207   4.988  -1.380  0.00  0.00    +0.294 HD
ENDBRANCH   9  27
TORSDOF 5
