REMARK  Name = ZINC11686663
REMARK                            x       y       z     vdW  Elec       q    Type
REMARK                         _______ _______ _______ _____ _____    ______ ____
ROOT
ATOM      1  C   LIG    1       -1.390  -0.633  -0.054  0.00  0.00    +0.165 C 
ENDROOT
BRANCH   1   2
ATOM      2  N   LIG    1       -1.812  -1.984   0.323  0.00  0.00    -0.270 N 
ATOM      3  H   LIG    1       -2.127  -2.601  -0.356  0.00  0.00    +0.153 HD
ATOM      4  C   LIG    1       -1.764  -2.371   1.613  0.00  0.00    +0.401 C 
ATOM      5  O   LIG    1       -1.369  -1.598   2.464  0.00  0.00    -0.226 OA
BRANCH   4   6
ATOM      6  O   LIG    1       -2.152  -3.612   1.959  0.00  0.00    -0.446 OA
BRANCH   6   7
ATOM      7  C   LIG    1       -2.074  -3.954   3.344  0.00  0.00    +0.269 C 
BRANCH   7   8
ATOM      8  C   LIG    1       -2.546  -5.372   3.539  0.00  0.00    -0.010 A 
ATOM      9  C   LIG    1       -3.882  -5.628   3.784  0.00  0.00    +0.007 A 
ATOM     10  C   LIG    1       -4.316  -6.929   3.962  0.00  0.00    +0.000 A 
ATOM     11  C   LIG    1       -3.412  -7.973   3.896  0.00  0.00    +0.000 A 
ATOM     12  C   LIG    1       -2.076  -7.717   3.651  0.00  0.00    +0.000 A 
ATOM     13  C   LIG    1       -1.644  -6.417   3.468  0.00  0.00    +0.007 A 
ENDBRANCH   7   8
ENDBRANCH   6   7
ENDBRANCH   4   6
ENDBRANCH   1   2
BRANCH   1  14
ATOM     14  C   LIG    1       -2.074  -0.231  -1.335  0.00  0.00    +0.234 C 
ATOM     15  N   LIG    1       -2.204   1.073  -1.649  0.00  0.00    -0.304 N 
ATOM     16  H   LIG    1       -1.924   1.754  -1.018  0.00  0.00    +0.149 HD
ATOM     17  O   LIG    1       -2.509  -1.081  -2.083  0.00  0.00    -0.274 OA
BRANCH  15  18
ATOM     18  C   LIG    1       -2.768   1.462  -2.944  0.00  0.00    +0.152 C 
BRANCH  18  19
ATOM     19  C   LIG    1       -1.679   1.468  -3.985  0.00  0.00    +0.184 C 
ATOM     20  O   LIG    1       -0.520   1.448  -3.646  0.00  0.00    -0.293 OA
BRANCH  19  21
ATOM     21  C   LIG    1       -2.035   1.500  -5.449  0.00  0.00    +0.289 C 
ATOM     22  F   LIG    1       -0.864   1.500  -6.214  0.00  0.00    -0.241 F 
ENDBRANCH  19  21
ENDBRANCH  18  19
BRANCH  18  23
ATOM     23  C   LIG    1       -3.378   2.861  -2.835  0.00  0.00    +0.150 C 
BRANCH  23  24
ATOM     24  C   LIG    1       -4.547   2.827  -1.885  0.00  0.00    +0.307 C 
ATOM     25  O   LIG    1       -4.863   1.781  -1.345  0.00  0.00    -0.251 OA
BRANCH  24  26
ATOM     26  O   LIG    1       -5.176   3.846  -1.656  0.00  0.00    -0.481 OA
ATOM     27  H   LIG    1       -4.933   4.650  -2.071  0.00  0.00    +0.295 HD
ENDBRANCH  24  26
ENDBRANCH  23  24
ENDBRANCH  18  23
ENDBRANCH  15  18
ENDBRANCH   1  14
BRANCH   1  29
ATOM     28  C   LIG    1        0.824  -0.900   1.074  0.00  0.00    +0.009 C 
ATOM     29  C   LIG    1        0.127  -0.611  -0.257  0.00  0.00    +0.012 C 
ATOM     30  C   LIG    1        0.519  -1.678  -1.281  0.00  0.00    +0.009 C 
ENDBRANCH   1  29
TORSDOF 12
