REMARK  Name = ZINC10450796
REMARK                            x       y       z     vdW  Elec       q    Type
REMARK                         _______ _______ _______ _____ _____    ______ ____
ROOT
ATOM      1  N   LIG    1       -2.736  -3.084   0.872  0.00  0.00    +0.382 N 
ATOM      2  H   LIG    1       -1.966  -3.518   1.393  0.00  0.00    -0.081 HD
ATOM      3  C   LIG    1       -3.025  -1.758   1.459  0.00  0.00    -0.077 C 
ATOM      4  C   LIG    1       -1.743  -0.922   1.452  0.00  0.00    +0.004 C 
ATOM      5  C   LIG    1       -1.256  -0.754   0.010  0.00  0.00    +0.070 C 
ATOM      6  C   LIG    1       -1.033  -2.136  -0.610  0.00  0.00    +0.004 C 
ATOM      7  C   LIG    1       -2.335  -2.936  -0.543  0.00  0.00    -0.077 C 
ENDROOT
BRANCH   5   8
ATOM      8  N   LIG    1        0.002  -0.004   0.002  0.00  0.00    -0.309 N 
ATOM      9  H   LIG    1        0.849  -0.478  -0.009  0.00  0.00    +0.149 HD
ATOM     10  C   LIG    1       -0.016   1.344   0.009  0.00  0.00    +0.237 C 
ATOM     11  O   LIG    1       -1.078   1.938   0.018  0.00  0.00    -0.271 OA
BRANCH  10  12
ATOM     12  C   LIG    1        1.242   2.093   0.001  0.00  0.00    +0.068 C 
ATOM     13  C   LIG    1        1.224   3.441   0.009  0.00  0.00    +0.013 C 
BRANCH  13  14
ATOM     14  C   LIG    1        2.488   4.194   0.001  0.00  0.00    -0.025 A 
ATOM     15  C   LIG    1        3.711   3.515  -0.009  0.00  0.00    +0.008 A 
ATOM     16  C   LIG    1        4.891   4.228  -0.022  0.00  0.00    +0.001 A 
ATOM     17  C   LIG    1        4.868   5.612  -0.014  0.00  0.00    +0.000 A 
ATOM     18  C   LIG    1        3.662   6.291   0.001  0.00  0.00    +0.001 A 
ATOM     19  C   LIG    1        2.473   5.592   0.009  0.00  0.00    +0.008 A 
ENDBRANCH  13  14
ENDBRANCH  10  12
ENDBRANCH   5   8
BRANCH   1  20
ATOM     20  C   LIG    1       -3.929  -3.950   0.971  0.00  0.00    -0.043 C 
BRANCH  20  24
ATOM     21  C   LIG    1       -4.652  -4.831   5.088  0.00  0.00    +0.000 A 
ATOM     22  C   LIG    1       -5.248  -3.729   4.502  0.00  0.00    +0.000 A 
ATOM     23  C   LIG    1       -5.013  -3.444   3.170  0.00  0.00    +0.002 A 
ATOM     24  C   LIG    1       -4.184  -4.260   2.424  0.00  0.00    -0.064 A 
ATOM     25  C   LIG    1       -3.594  -5.365   3.008  0.00  0.00    +0.002 A 
ATOM     26  C   LIG    1       -3.823  -5.647   4.342  0.00  0.00    +0.000 A 
ENDBRANCH  20  24
ENDBRANCH   1  20
TORSDOF 5
