REMARK  Name = ZINC12359024
REMARK                            x       y       z     vdW  Elec       q    Type
REMARK                         _______ _______ _______ _____ _____    ______ ____
ROOT
ATOM      1  C   LIG    1        1.286   1.562  -0.002  0.00  0.00    +0.185 C 
ENDROOT
BRANCH   1   2
ATOM      2  O   LIG    1       -0.011   0.963   0.007  0.00  0.00    -0.386 OA
ATOM      3  H   LIG    1        0.002  -0.004   0.002  0.00  0.00    +0.210 HD
ENDBRANCH   1   2
BRANCH   1   4
ATOM      4  C   LIG    1        2.064   1.114   1.238  0.00  0.00    +0.254 C 
BRANCH   4   5
ATOM      5  O   LIG    1        2.297  -0.294   1.171  0.00  0.00    -0.378 OA
ATOM      6  H   LIG    1        1.490  -0.825   1.133  0.00  0.00    +0.211 HD
ENDBRANCH   4   5
BRANCH   4   7
ATOM      7  C   LIG    1        1.264   1.432   2.474  0.00  0.00    +0.336 C 
ATOM      8  O   LIG    1        0.850   0.538   3.174  0.00  0.00    -0.248 OA
BRANCH   7   9
ATOM      9  O   LIG    1        1.010   2.710   2.799  0.00  0.00    -0.479 OA
ATOM     10  H   LIG    1        1.330   3.404   2.257  0.00  0.00    +0.295 HD
ENDBRANCH   7   9
ENDBRANCH   4   7
ENDBRANCH   1   4
BRANCH   1  11
ATOM     11  C   LIG    1        2.040   1.127  -1.261  0.00  0.00    +0.185 C 
BRANCH  11  12
ATOM     12  O   LIG    1        3.337   1.726  -1.270  0.00  0.00    -0.386 OA
ATOM     13  H   LIG    1        3.324   2.693  -1.264  0.00  0.00    +0.210 HD
ENDBRANCH  11  12
BRANCH  11  14
ATOM     14  C   LIG    1        1.262   1.575  -2.500  0.00  0.00    +0.254 C 
BRANCH  14  15
ATOM     15  O   LIG    1        1.029   2.983  -2.433  0.00  0.00    -0.378 OA
ATOM     16  H   LIG    1        1.837   3.514  -2.395  0.00  0.00    +0.211 HD
ENDBRANCH  14  15
BRANCH  14  17
ATOM     17  C   LIG    1        2.063   1.257  -3.737  0.00  0.00    +0.336 C 
ATOM     18  O   LIG    1        2.476   2.151  -4.436  0.00  0.00    -0.248 OA
BRANCH  17  19
ATOM     19  O   LIG    1        2.316  -0.021  -4.062  0.00  0.00    -0.479 OA
ATOM     20  H   LIG    1        1.996  -0.714  -3.520  0.00  0.00    +0.295 HD
ENDBRANCH  17  19
ENDBRANCH  14  17
ENDBRANCH  11  14
ENDBRANCH   1  11
TORSDOF 11
