REMARK  Name = ZINC08706731
REMARK                            x       y       z     vdW  Elec       q    Type
REMARK                         _______ _______ _______ _____ _____    ______ ____
ROOT
ATOM      1  C   LIG    1        0.886   1.877  -1.571  0.00  0.00    +0.136 A 
ATOM      2  N   LIG    1       -0.018   1.013  -1.970  0.00  0.00    -0.233 NA
ATOM      3  C   LIG    1        0.022  -0.293  -1.621  0.00  0.00    +0.080 A 
ATOM      4  C   LIG    1       -0.882  -1.319  -1.980  0.00  0.00    +0.031 A 
ATOM      5  C   LIG    1       -0.697  -2.604  -1.540  0.00  0.00    +0.025 A 
ATOM      6  C   LIG    1        0.381  -2.945  -0.727  0.00  0.00    +0.035 A 
ATOM      7  C   LIG    1        1.287  -1.960  -0.356  0.00  0.00    +0.040 A 
ATOM      8  C   LIG    1        1.105  -0.673  -0.795  0.00  0.00    +0.042 A 
ATOM      9  S   LIG    1        1.976   0.861  -0.584  0.00  0.00    -0.061 S 
ENDROOT
BRANCH   6  10
ATOM     10  N   LIG    1        0.550  -4.264  -0.289  0.00  0.00    -0.283 N 
ATOM     11  H   LIG    1        1.442  -4.621  -0.157  0.00  0.00    +0.155 HD
BRANCH  10  12
ATOM     12  C   LIG    1       -0.554  -5.058  -0.046  0.00  0.00    +0.225 A 
ATOM     13  N   LIG    1       -0.396  -6.342   0.260  0.00  0.00    -0.181 NA
ATOM     14  C   LIG    1       -1.458  -7.104   0.499  0.00  0.00    +0.224 A 
ATOM     15  N   LIG    1       -2.679  -6.585   0.422  0.00  0.00    -0.181 NA
ATOM     16  C   LIG    1       -2.838  -5.303   0.110  0.00  0.00    +0.224 A 
ATOM     17  N   LIG    1       -1.776  -4.539  -0.124  0.00  0.00    -0.181 NA
BRANCH  14  18
ATOM     18  N   LIG    1       -1.293  -8.435   0.824  0.00  0.00    -0.299 N 
ATOM     19  C   LIG    1       -2.093  -9.305  -0.076  0.00  0.00    +0.108 C 
ATOM     20  C   LIG    1       -1.407 -10.687   0.064  0.00  0.00    +0.020 C 
ATOM     21  C   LIG    1        0.091 -10.320   0.169  0.00  0.00    +0.020 C 
ATOM     22  C   LIG    1        0.114  -8.855   0.643  0.00  0.00    +0.108 C 
ENDBRANCH  14  18
BRANCH  16  23
ATOM     23  N   LIG    1       -4.106  -4.764   0.029  0.00  0.00    -0.299 N 
ATOM     24  C   LIG    1       -4.847  -4.953   1.302  0.00  0.00    +0.108 C 
ATOM     25  C   LIG    1       -5.962  -3.880   1.227  0.00  0.00    +0.020 C 
ATOM     26  C   LIG    1       -5.248  -2.686   0.553  0.00  0.00    +0.020 C 
ATOM     27  C   LIG    1       -4.048  -3.303  -0.191  0.00  0.00    +0.108 C 
ENDBRANCH  16  23
ENDBRANCH  10  12
ENDBRANCH   6  10
BRANCH   1  28
ATOM     28  S   LIG    1        0.998   3.601  -1.920  0.00  0.00    -0.089 S 
BRANCH  28  29
ATOM     29  C   LIG    1       -0.468   3.805  -2.962  0.00  0.00    +0.172 C 
BRANCH  29  32
ATOM     30  N   LIG    1       -1.602   5.635  -4.181  0.00  0.00    -0.308 N 
ATOM     31  H   LIG    1       -2.265   4.988  -4.470  0.00  0.00    +0.149 HD
ATOM     32  C   LIG    1       -0.580   5.245  -3.394  0.00  0.00    +0.224 C 
ATOM     33  O   LIG    1        0.249   6.053  -3.032  0.00  0.00    -0.275 OA
BRANCH  30  34
ATOM     34  C   LIG    1       -1.712   7.034  -4.601  0.00  0.00    +0.178 C 
BRANCH  34  37
ATOM     35  C   LIG    1       -4.999   7.571  -6.178  0.00  0.00    +0.041 A 
ATOM     36  C   LIG    1       -4.168   7.512  -5.035  0.00  0.00    +0.046 A 
ATOM     37  C   LIG    1       -2.932   7.205  -5.468  0.00  0.00    +0.122 A 
ATOM     38  O   LIG    1       -2.969   7.081  -6.805  0.00  0.00    -0.466 OA
ATOM     39  C   LIG    1       -4.221   7.296  -7.240  0.00  0.00    +0.195 A 
ENDBRANCH  34  37
ENDBRANCH  30  34
ENDBRANCH  29  32
ENDBRANCH  28  29
ENDBRANCH   1  28
TORSDOF 9
