REMARK  Name = ZINC11422476
REMARK                            x       y       z     vdW  Elec       q    Type
REMARK                         _______ _______ _______ _____ _____    ______ ____
ROOT
ATOM      1  C   LIG    1        1.383  -2.568  -2.396  0.00  0.00    +0.018 A 
ATOM      2  C   LIG    1        2.727  -2.890  -2.341  0.00  0.00    +0.013 A 
ATOM      3  C   LIG    1        3.371  -3.376  -3.463  0.00  0.00    +0.050 A 
ATOM      4  C   LIG    1        2.674  -3.532  -4.651  0.00  0.00    +0.161 A 
ATOM      5  C   LIG    1        1.324  -3.204  -4.709  0.00  0.00    +0.195 A 
ATOM      6  C   LIG    1        0.680  -2.721  -3.578  0.00  0.00    +0.174 A 
ATOM      7  F   LIG    1       -0.631  -2.401  -3.632  0.00  0.00    -0.201 F 
ENDROOT
BRANCH   4   8
ATOM      8  O   LIG    1        3.308  -4.006  -5.756  0.00  0.00    -0.503 OA
ATOM      9  H   LIG    1        3.703  -3.317  -6.308  0.00  0.00    +0.292 HD
ENDBRANCH   4   8
BRANCH   5  10
ATOM     10  O   LIG    1        0.635  -3.355  -5.873  0.00  0.00    -0.501 OA
ATOM     11  H   LIG    1        0.647  -2.572  -6.442  0.00  0.00    +0.292 HD
ENDBRANCH   5  10
BRANCH   1  12
ATOM     12  C   LIG    1        0.684  -2.045  -1.168  0.00  0.00    +0.130 C 
BRANCH  12  13
ATOM     13  O   LIG    1        1.369  -2.500   0.001  0.00  0.00    -0.389 OA
ATOM     14  H   LIG    1        2.291  -2.213   0.053  0.00  0.00    +0.210 HD
ENDBRANCH  12  13
BRANCH  12  15
ATOM     15  C   LIG    1        0.683  -0.515  -1.195  0.00  0.00    -0.046 C 
BRANCH  15  17
ATOM     16  C   LIG    1       -0.018   1.465   0.010  0.00  0.00    -0.100 C 
ATOM     17  N   LIG    1       -0.002  -0.010   0.010  0.00  0.00    +0.379 N 
ATOM     18  H   LIG    1        0.492  -0.344   0.845  0.00  0.00    -0.086 HD
ATOM     19  H   LIG    1       -0.968  -0.359   0.021  0.00  0.00    -0.086 HD
ENDBRANCH  15  17
ENDBRANCH  12  15
ENDBRANCH   1  12
TORSDOF 6
