REMARK  Name = ZINC12409475
REMARK                            x       y       z     vdW  Elec       q    Type
REMARK                         _______ _______ _______ _____ _____    ______ ____
ROOT
ATOM      1  C   LIG    1        2.505  -1.368  -0.029  0.00  0.00    +0.028 C 
ATOM      2  C   LIG    1        1.826  -0.223  -0.285  0.00  0.00    +0.080 C 
ATOM      3  C   LIG    1        2.303   1.177  -0.278  0.00  0.00    +0.258 C 
ATOM      4  N   LIG    1        1.410   2.108  -0.569  0.00  0.00    -0.243 N 
ATOM      5  H   LIG    1        1.681   3.039  -0.576  0.00  0.00    +0.159 HD
ATOM      6  C   LIG    1        0.131   1.792  -0.858  0.00  0.00    +0.283 C 
ATOM      7  O   LIG    1       -0.784   2.539  -1.146  0.00  0.00    -0.262 OA
ATOM      8  O   LIG    1        3.458   1.458  -0.016  0.00  0.00    -0.269 OA
ATOM      9  S   LIG    1        0.109   0.011  -0.724  0.00  0.00    -0.026 S 
ENDROOT
BRANCH   1  14
ATOM     10  C   LIG    1       -0.323  -6.358   0.353  0.00  0.00    +0.044 C 
ATOM     11  C   LIG    1        0.419  -5.049   0.253  0.00  0.00    -0.050 A 
ATOM     12  C   LIG    1        1.803  -5.041   0.248  0.00  0.00    +0.004 A 
ATOM     13  C   LIG    1        2.489  -3.849   0.156  0.00  0.00    +0.008 A 
ATOM     14  C   LIG    1        1.781  -2.644   0.069  0.00  0.00    -0.024 A 
ATOM     15  C   LIG    1        0.382  -2.661   0.080  0.00  0.00    +0.008 A 
ATOM     16  C   LIG    1       -0.288  -3.863   0.167  0.00  0.00    +0.004 A 
ENDBRANCH   1  14
TORSDOF 1
