REMARK  Name = ZINC12407284
REMARK                            x       y       z     vdW  Elec       q    Type
REMARK                         _______ _______ _______ _____ _____    ______ ____
ROOT
ATOM      1  C   LIG    1        1.250  -2.155  -0.022  0.00  0.00    +0.028 C 
ATOM      2  C   LIG    1        2.217  -2.813  -0.709  0.00  0.00    +0.077 C 
ATOM      3  C   LIG    1        2.387  -4.263  -0.943  0.00  0.00    +0.256 C 
ATOM      4  N   LIG    1        3.438  -4.627  -1.659  0.00  0.00    -0.270 N 
ATOM      5  H   LIG    1        3.587  -5.569  -1.836  0.00  0.00    +0.156 HD
ATOM      6  C   LIG    1        4.306  -3.719  -2.148  0.00  0.00    +0.118 C 
ATOM      7  S   LIG    1        5.711  -3.991  -3.088  0.00  0.00    -0.027 S 
ATOM      8  O   LIG    1        1.601  -5.079  -0.499  0.00  0.00    -0.269 OA
ATOM      9  S   LIG    1        3.633  -2.164  -1.586  0.00  0.00    -0.061 S 
ENDROOT
BRANCH   1  12
ATOM     10  C   LIG    1        0.444   1.354   1.028  0.00  0.00    +0.004 A 
ATOM     11  C   LIG    1        0.313   0.003   0.785  0.00  0.00    +0.008 A 
ATOM     12  C   LIG    1        1.384  -0.715   0.240  0.00  0.00    -0.020 A 
ATOM     13  C   LIG    1        2.582  -0.056  -0.054  0.00  0.00    +0.053 A 
ATOM     14  C   LIG    1        2.699   1.300   0.195  0.00  0.00    +0.117 A 
ATOM     15  C   LIG    1        1.630   2.003   0.736  0.00  0.00    +0.045 A 
BRANCH  14  16
ATOM     16  O   LIG    1        3.861   1.945  -0.090  0.00  0.00    -0.507 OA
ATOM     17  H   LIG    1        3.901   2.306  -0.986  0.00  0.00    +0.292 HD
ENDBRANCH  14  16
ENDBRANCH   1  12
TORSDOF 2
