REMARK  Name = ZINC12369679
REMARK                            x       y       z     vdW  Elec       q    Type
REMARK                         _______ _______ _______ _____ _____    ______ ____
ROOT
ATOM      1  C   LIG    1        2.425  -4.201  -0.256  0.00  0.00    +0.133 A 
ATOM      2  C   LIG    1        3.603  -4.892  -0.381  0.00  0.00    +0.080 A 
ATOM      3  S   LIG    1        3.036  -6.529  -0.475  0.00  0.00    -0.079 S 
ATOM      4  C   LIG    1        1.336  -6.210  -0.357  0.00  0.00    +0.084 A 
ATOM      5  N   LIG    1        1.294  -4.907  -0.251  0.00  0.00    -0.239 NA
ENDROOT
BRANCH   1   8
ATOM      6  N   LIG    1        1.238  -2.079  -0.021  0.00  0.00    -0.280 N 
ATOM      7  H   LIG    1        0.409  -2.578   0.053  0.00  0.00    +0.155 HD
ATOM      8  C   LIG    1        2.410  -2.733  -0.137  0.00  0.00    +0.267 C 
ATOM      9  O   LIG    1        3.455  -2.112  -0.144  0.00  0.00    -0.268 OA
BRANCH   6  13
ATOM     10  C   LIG    1        1.172   2.086   0.026  0.00  0.00    -0.045 A 
ATOM     11  C   LIG    1        0.142   1.386  -0.577  0.00  0.00    +0.006 A 
ATOM     12  C   LIG    1        0.161   0.005  -0.594  0.00  0.00    +0.023 A 
ATOM     13  C   LIG    1        1.216  -0.681  -0.005  0.00  0.00    +0.034 A 
ATOM     14  C   LIG    1        2.248   0.025   0.599  0.00  0.00    +0.023 A 
ATOM     15  C   LIG    1        2.224   1.406   0.612  0.00  0.00    +0.006 A 
BRANCH  10  17
ATOM     16  C   LIG    1        1.147   4.086   1.491  0.00  0.00    +0.012 C 
ATOM     17  C   LIG    1        1.149   3.593   0.043  0.00  0.00    +0.013 C 
ATOM     18  C   LIG    1        2.386   4.130  -0.679  0.00  0.00    +0.012 C 
ENDBRANCH  10  17
ENDBRANCH   6  13
ENDBRANCH   1   8
BRANCH   4  19
ATOM     19  C   LIG    1        0.191  -7.190  -0.374  0.00  0.00    +0.101 C 
BRANCH  19  20
ATOM     20  C   LIG    1       -0.267  -7.403  -1.794  0.00  0.00    -0.004 A 
ATOM     21  C   LIG    1       -1.258  -6.600  -2.329  0.00  0.00    +0.046 A 
ATOM     22 CL   LIG    1       -1.974  -5.346  -1.366  0.00  0.00    -0.083 Cl
ATOM     23  C   LIG    1       -1.673  -6.793  -3.635  0.00  0.00    +0.020 A 
ATOM     24  C   LIG    1       -1.108  -7.795  -4.400  0.00  0.00    +0.003 A 
ATOM     25  C   LIG    1       -0.122  -8.601  -3.864  0.00  0.00    +0.020 A 
ATOM     26  C   LIG    1        0.299  -8.406  -2.560  0.00  0.00    +0.046 A 
ATOM     27 CL   LIG    1        1.538  -9.419  -1.887  0.00  0.00    -0.083 Cl
ENDBRANCH  19  20
ENDBRANCH   4  19
TORSDOF 5
