REMARK  Name = ZINC09074095
REMARK                            x       y       z     vdW  Elec       q    Type
REMARK                         _______ _______ _______ _____ _____    ______ ____
ROOT
ATOM      1  C   LIG    1       -0.368   5.126  -0.716  0.00  0.00    +0.223 A 
ATOM      2  N   LIG    1        0.493   4.156  -0.949  0.00  0.00    -0.193 NA
ATOM      3  C   LIG    1        0.162   2.874  -0.750  0.00  0.00    +0.185 A 
ATOM      4  C   LIG    1       -1.141   2.575  -0.279  0.00  0.00    +0.148 A 
ATOM      5  N   LIG    1       -1.502   1.312  -0.075  0.00  0.00    -0.247 NA
ATOM      6  C   LIG    1       -0.638   0.346  -0.304  0.00  0.00    +0.131 A 
ATOM      7  C   LIG    1        0.645   0.635  -0.767  0.00  0.00    +0.133 A 
ATOM      8  C   LIG    1       -2.054   3.693  -0.037  0.00  0.00    +0.156 A 
ATOM      9  N   LIG    1        1.021   1.878  -0.980  0.00  0.00    -0.233 NA
ATOM     10  N   LIG    1       -1.605   4.918  -0.274  0.00  0.00    -0.197 NA
ENDROOT
BRANCH   1  11
ATOM     11  N   LIG    1        0.036   6.430  -0.943  0.00  0.00    -0.284 N 
ATOM     12  H   LIG    1       -0.601   7.157  -0.859  0.00  0.00    +0.155 HD
BRANCH  11  16
ATOM     13  C   LIG    1        3.985   7.233  -1.987  0.00  0.00    +0.059 A 
ATOM     14  C   LIG    1        3.694   6.200  -1.091  0.00  0.00    +0.017 A 
ATOM     15  C   LIG    1        2.387   5.937  -0.748  0.00  0.00    +0.024 A 
ATOM     16  C   LIG    1        1.356   6.698  -1.292  0.00  0.00    +0.034 A 
ATOM     17  C   LIG    1        1.643   7.724  -2.188  0.00  0.00    +0.024 A 
ATOM     18  C   LIG    1        2.947   7.995  -2.532  0.00  0.00    +0.017 A 
BRANCH  13  19
ATOM     19  C   LIG    1        5.384   7.517  -2.357  0.00  0.00    +0.339 C 
ATOM     20  O   LIG    1        6.285   6.854  -1.882  0.00  0.00    -0.245 OA
BRANCH  19  21
ATOM     21  O   LIG    1        5.663   8.513  -3.220  0.00  0.00    -0.461 OA
BRANCH  21  23
ATOM     22  C   LIG    1        7.181   9.898  -4.527  0.00  0.00    +0.048 C 
ATOM     23  C   LIG    1        7.062   8.737  -3.538  0.00  0.00    +0.229 C 
ENDBRANCH  21  23
ENDBRANCH  19  21
ENDBRANCH  13  19
ENDBRANCH  11  16
ENDBRANCH   1  11
BRANCH   8  24
ATOM     24  N   LIG    1       -3.337   3.481   0.422  0.00  0.00    -0.298 N 
ATOM     25  H   LIG    1       -3.673   2.576   0.519  0.00  0.00    +0.154 HD
BRANCH  24  26
ATOM     26  C   LIG    1       -4.152   4.569   0.747  0.00  0.00    +0.033 A 
ATOM     27  C   LIG    1       -3.595   5.715   1.300  0.00  0.00    +0.025 A 
ATOM     28  C   LIG    1       -4.403   6.790   1.615  0.00  0.00    +0.022 A 
ATOM     29  C   LIG    1       -5.767   6.723   1.391  0.00  0.00    +0.041 A 
ATOM     30 CL   LIG    1       -6.779   8.074   1.795  0.00  0.00    -0.084 Cl
ATOM     31  C   LIG    1       -6.325   5.580   0.845  0.00  0.00    +0.022 A 
ATOM     32  C   LIG    1       -5.521   4.504   0.523  0.00  0.00    +0.025 A 
ENDBRANCH  24  26
ENDBRANCH   8  24
TORSDOF 7
