REMARK  Name = ZINC12341826
REMARK                            x       y       z     vdW  Elec       q    Type
REMARK                         _______ _______ _______ _____ _____    ______ ____
ROOT
ATOM      1  C   LIG    1       -2.204   5.345   3.808  0.00  0.00    +0.028 C 
ATOM      2  C   LIG    1       -2.272   4.620   4.952  0.00  0.00    +0.080 C 
ATOM      3  C   LIG    1       -2.974   4.921   6.218  0.00  0.00    +0.258 C 
ATOM      4  N   LIG    1       -2.868   4.021   7.181  0.00  0.00    -0.243 N 
ATOM      5  H   LIG    1       -3.312   4.179   8.029  0.00  0.00    +0.159 HD
ATOM      6  C   LIG    1       -2.157   2.888   7.012  0.00  0.00    +0.283 C 
ATOM      7  O   LIG    1       -1.978   1.983   7.805  0.00  0.00    -0.262 OA
ATOM      8  O   LIG    1       -3.615   5.944   6.367  0.00  0.00    -0.269 OA
ATOM      9  S   LIG    1       -1.547   3.033   5.340  0.00  0.00    -0.026 S 
ENDROOT
BRANCH   1  14
ATOM     10  C   LIG    1       -0.633   2.882   1.451  0.00  0.00    +0.121 A 
ATOM     11  C   LIG    1       -0.407   3.685   0.340  0.00  0.00    +0.045 A 
ATOM     12  C   LIG    1       -0.764   5.021   0.360  0.00  0.00    +0.004 A 
ATOM     13  C   LIG    1       -1.348   5.567   1.484  0.00  0.00    +0.008 A 
ATOM     14  C   LIG    1       -1.581   4.768   2.608  0.00  0.00    -0.020 A 
ATOM     15  C   LIG    1       -1.224   3.416   2.583  0.00  0.00    +0.053 A 
BRANCH  10  17
ATOM     16  C   LIG    1        0.321   1.085   0.222  0.00  0.00    +0.277 C 
ATOM     17  O   LIG    1       -0.279   1.571   1.425  0.00  0.00    -0.495 OA
ENDBRANCH  10  17
ENDBRANCH   1  14
TORSDOF 2
