REMARK  Name = ZINC11802711
REMARK                            x       y       z     vdW  Elec       q    Type
REMARK                         _______ _______ _______ _____ _____    ______ ____
ROOT
ATOM      1  C   LIG    1        4.675  -0.785  -1.246  0.00  0.00    +0.000 A 
ATOM      2  C   LIG    1        3.904  -1.933  -1.277  0.00  0.00    +0.004 A 
ATOM      3  C   LIG    1        2.525  -1.844  -1.276  0.00  0.00    +0.046 A 
ATOM      4  C   LIG    1        1.917  -0.597  -1.246  0.00  0.00    +0.122 A 
ATOM      5  C   LIG    1        2.692   0.547  -1.236  0.00  0.00    -0.023 A 
ATOM      6  C   LIG    1        2.015   1.904  -1.269  0.00  0.00    -0.043 C 
ATOM      7  N   LIG    1        1.320   2.123   0.018  0.00  0.00    +0.384 N 
ATOM      8  H   LIG    1        1.875   1.707   0.774  0.00  0.00    -0.085 HD
ATOM      9  H   LIG    1        1.224   3.133   0.179  0.00  0.00    -0.085 HD
ATOM     10  C   LIG    1       -0.018   1.509   0.010  0.00  0.00    -0.041 C 
ATOM     11  C   LIG    1        0.002  -0.004   0.002  0.00  0.00    +0.210 C 
ATOM     12  O   LIG    1        0.559  -0.498  -1.222  0.00  0.00    -0.494 OA
ATOM     13  C   LIG    1        4.069   0.459  -1.225  0.00  0.00    +0.005 A 
ENDROOT
TORSDOF 0
