REMARK  Name = ZINC11096630
REMARK                            x       y       z     vdW  Elec       q    Type
REMARK                         _______ _______ _______ _____ _____    ______ ____
ROOT
ATOM      1  C   LIG    1        7.211   0.449  -0.214  0.00  0.00    +0.033 A 
ATOM      2  C   LIG    1        6.973  -0.898   0.041  0.00  0.00    +0.024 A 
ATOM      3  C   LIG    1        5.720  -1.316   0.428  0.00  0.00    +0.015 A 
ATOM      4  C   LIG    1        4.686  -0.386   0.566  0.00  0.00    +0.037 A 
ATOM      5  C   LIG    1        4.927   0.966   0.303  0.00  0.00    +0.015 A 
ATOM      6  C   LIG    1        6.184   1.378  -0.078  0.00  0.00    +0.024 A 
ENDROOT
BRANCH   4   7
ATOM      7  C   LIG    1        3.342  -0.830   0.981  0.00  0.00    +0.251 C 
ATOM      8  N   LIG    1        2.515   0.025   1.614  0.00  0.00    -0.267 N 
ATOM      9  C   LIG    1        2.988   1.355   2.025  0.00  0.00    +0.114 C 
ATOM     10  C   LIG    1        2.495   1.605   3.456  0.00  0.00    +0.024 C 
ATOM     11  C   LIG    1        0.967   1.631   3.456  0.00  0.00    +0.038 C 
ATOM     12  C   LIG    1        0.420   0.406   2.772  0.00  0.00    -0.026 A 
ATOM     13  C   LIG    1       -0.884   0.020   3.031  0.00  0.00    +0.005 A 
ATOM     14  C   LIG    1       -1.417  -1.097   2.416  0.00  0.00    +0.000 A 
ATOM     15  C   LIG    1       -0.648  -1.838   1.537  0.00  0.00    +0.002 A 
ATOM     16  C   LIG    1        0.654  -1.462   1.274  0.00  0.00    +0.024 A 
ATOM     17  C   LIG    1        1.191  -0.339   1.892  0.00  0.00    +0.040 A 
ATOM     18  O   LIG    1        2.980  -1.968   0.751  0.00  0.00    -0.270 OA
ENDBRANCH   4   7
BRANCH   1  20
ATOM     19  C   LIG    1        8.616   1.903  -1.460  0.00  0.00    +0.222 C 
ATOM     20  N   LIG    1        8.482   0.869  -0.606  0.00  0.00    -0.285 N 
ATOM     21  H   LIG    1        9.269   0.417  -0.264  0.00  0.00    +0.155 HD
ATOM     22  O   LIG    1        7.634   2.405  -1.963  0.00  0.00    -0.275 OA
BRANCH  19  23
ATOM     23  C   LIG    1        9.987   2.435  -1.789  0.00  0.00    +0.131 C 
BRANCH  23  27
ATOM     24  C   LIG    1        9.631   5.685  -4.539  0.00  0.00    +0.000 A 
ATOM     25  C   LIG    1        9.611   5.926  -3.178  0.00  0.00    +0.000 A 
ATOM     26  C   LIG    1        9.726   4.874  -2.288  0.00  0.00    +0.004 A 
ATOM     27  C   LIG    1        9.861   3.582  -2.759  0.00  0.00    -0.039 A 
ATOM     28  C   LIG    1        9.887   3.341  -4.120  0.00  0.00    +0.004 A 
ATOM     29  C   LIG    1        9.766   4.392  -5.010  0.00  0.00    +0.000 A 
ENDBRANCH  23  27
ENDBRANCH  19  23
ENDBRANCH   1  20
TORSDOF 4
