REMARK  Name = ZINC12321007
REMARK                            x       y       z     vdW  Elec       q    Type
REMARK                         _______ _______ _______ _____ _____    ______ ____
ROOT
ATOM      1  C   LIG    1       -1.149   3.292   0.706  0.00  0.00    +0.034 C 
ATOM      2  C   LIG    1       -0.054   4.059  -0.038  0.00  0.00    +0.083 C 
ATOM      3  C   LIG    1        1.230   3.264  -0.014  0.00  0.00    +0.115 C 
ATOM      4  C   LIG    1        1.203   1.918   0.001  0.00  0.00    +0.046 C 
ATOM      5  C   LIG    1       -0.014   1.210   0.009  0.00  0.00    +0.164 C 
ATOM      6  O   LIG    1        0.002  -0.004   0.002  0.00  0.00    -0.292 OA
ATOM      7  C   LIG    1        2.487   1.125   0.009  0.00  0.00    +0.101 C 
ATOM      8  C   LIG    1        3.632   1.990  -0.437  0.00  0.00    +0.098 C 
ATOM      9  C   LIG    1        3.519   3.340  -0.420  0.00  0.00    +0.198 C 
ATOM     10  O   LIG    1        2.393   3.942  -0.006  0.00  0.00    -0.445 OA
ATOM     11  C   LIG    1       -1.335   1.931   0.019  0.00  0.00    +0.088 C 
ENDROOT
BRANCH   1  15
ATOM     12  C   LIG    1       -4.808   5.491   0.544  0.00  0.00    +0.000 A 
ATOM     13  C   LIG    1       -4.233   5.193   1.766  0.00  0.00    +0.000 A 
ATOM     14  C   LIG    1       -3.049   4.482   1.818  0.00  0.00    +0.004 A 
ATOM     15  C   LIG    1       -2.440   4.067   0.648  0.00  0.00    -0.043 A 
ATOM     16  C   LIG    1       -3.011   4.369  -0.573  0.00  0.00    +0.004 A 
ATOM     17  C   LIG    1       -4.198   5.076  -0.626  0.00  0.00    +0.000 A 
ENDBRANCH   1  15
BRANCH   7  18
ATOM     18  C   LIG    1        2.755   0.621   1.404  0.00  0.00    -0.035 A 
ATOM     19  C   LIG    1        2.914   1.518   2.443  0.00  0.00    +0.004 A 
ATOM     20  C   LIG    1        3.156   1.057   3.724  0.00  0.00    +0.000 A 
ATOM     21  C   LIG    1        3.247  -0.302   3.963  0.00  0.00    +0.000 A 
ATOM     22  C   LIG    1        3.093  -1.199   2.922  0.00  0.00    +0.000 A 
ATOM     23  C   LIG    1        2.847  -0.737   1.643  0.00  0.00    +0.004 A 
ENDBRANCH   7  18
BRANCH   9  24
ATOM     24  N   LIG    1        4.577   4.109  -0.836  0.00  0.00    -0.328 N 
ATOM     25  H   LIG    1        5.505   3.628  -1.179  0.00  0.00    +0.145 HD
ATOM     26  H   LIG    1        4.497   5.206  -0.827  0.00  0.00    +0.145 HD
ENDBRANCH   9  24
BRANCH   8  27
ATOM     27  C   LIG    1        4.851   1.384  -0.883  0.00  0.00    +0.101 C 
ATOM     28  N   LIG    1        5.817   0.903  -1.237  0.00  0.00    -0.191 NA
ENDBRANCH   8  27
TORSDOF 4
