REMARK  Name = ZINC12428514
REMARK                            x       y       z     vdW  Elec       q    Type
REMARK                         _______ _______ _______ _____ _____    ______ ____
ROOT
ATOM      1  C   LIG    1       -0.872   7.222   0.052  0.00  0.00    +0.137 A 
ATOM      2  C   LIG    1       -2.217   7.515   0.066  0.00  0.00    +0.050 A 
ATOM      3  C   LIG    1       -2.901   6.297   0.065  0.00  0.00    +0.050 A 
ATOM      4  C   LIG    1       -1.943   5.300   0.050  0.00  0.00    +0.130 A 
ATOM      5  O   LIG    1       -0.726   5.884   0.047  0.00  0.00    -0.455 OA
ENDROOT
BRANCH   4   6
ATOM      6  C   LIG    1       -2.194   3.911   0.045  0.00  0.00    +0.066 C 
ATOM      7  C   LIG    1       -1.152   3.029   0.029  0.00  0.00    +0.080 C 
ATOM      8  C   LIG    1       -1.170   1.601   0.016  0.00  0.00    +0.256 C 
ATOM      9  N   LIG    1       -0.011   0.966   0.007  0.00  0.00    -0.270 N 
ATOM     10  H   LIG    1        0.002  -0.004   0.002  0.00  0.00    +0.156 HD
ATOM     11  C   LIG    1        1.156   1.647  -0.000  0.00  0.00    +0.118 C 
ATOM     12  S   LIG    1        2.755   1.036  -0.019  0.00  0.00    -0.027 S 
ATOM     13  O   LIG    1       -2.222   0.987   0.018  0.00  0.00    -0.269 OA
ATOM     14  S   LIG    1        0.607   3.347   0.014  0.00  0.00    -0.061 S 
ENDBRANCH   4   6
BRANCH   1  19
ATOM     15  C   LIG    1        2.286  10.060   0.042  0.00  0.00    +0.021 A 
ATOM     16  C   LIG    1        2.299   9.020   0.955  0.00  0.00    +0.022 A 
ATOM     17  C   LIG    1        1.276   8.094   0.964  0.00  0.00    +0.052 A 
ATOM     18 CL   LIG    1        1.294   6.789   2.109  0.00  0.00    -0.083 Cl
ATOM     19  C   LIG    1        0.225   8.208   0.048  0.00  0.00    +0.037 A 
ATOM     20  C   LIG    1        0.222   9.257  -0.874  0.00  0.00    +0.033 A 
ATOM     21  C   LIG    1        1.249  10.180  -0.867  0.00  0.00    +0.042 A 
ATOM     22 CL   LIG    1        1.244  11.489  -2.008  0.00  0.00    -0.084 Cl
ENDBRANCH   1  19
TORSDOF 2
