REMARK  Name = ZINC12358797
REMARK                            x       y       z     vdW  Elec       q    Type
REMARK                         _______ _______ _______ _____ _____    ______ ____
ROOT
ATOM      1  C   LIG    1        0.514   4.106  -1.993  0.00  0.00    +0.016 C 
ATOM      2  C   LIG    1        0.044   4.173  -0.539  0.00  0.00    -0.005 C 
ATOM      3  C   LIG    1        1.118   3.530   0.353  0.00  0.00    +0.019 C 
ATOM      4  C   LIG    1        1.383   2.094  -0.091  0.00  0.00    +0.080 C 
ATOM      5  C   LIG    1        0.086   1.339  -0.227  0.00  0.00    +0.156 C 
ATOM      6  C   LIG    1       -1.187   2.054  -0.265  0.00  0.00    +0.046 C 
ATOM      7  O   LIG    1        0.098   0.126  -0.288  0.00  0.00    -0.293 OA
ATOM      8  C   LIG    1       -0.174   5.610  -0.096  0.00  0.00    +0.031 C 
ATOM      9  C   LIG    1       -0.310   6.612  -1.218  0.00  0.00    +0.119 C 
ATOM     10  C   LIG    1       -0.421   8.057  -0.702  0.00  0.00    +0.041 C 
ATOM     11  C   LIG    1       -1.534   8.159   0.310  0.00  0.00    +0.009 C 
ATOM     12  C   LIG    1       -2.887   7.965  -0.371  0.00  0.00    +0.015 C 
ATOM     13  C   LIG    1       -1.274   7.175   1.467  0.00  0.00    +0.002 C 
ATOM     14  C   LIG    1       -2.385   7.567   2.451  0.00  0.00    +0.008 C 
ATOM     15  C   LIG    1       -2.288   9.120   2.426  0.00  0.00    +0.043 C 
ATOM     16  C   LIG    1       -1.624   9.493   1.075  0.00  0.00    +0.131 C 
ATOM     17  C   LIG    1       -1.197   5.740   1.023  0.00  0.00    -0.001 C 
ATOM     18  C   LIG    1       -2.539   5.093   0.791  0.00  0.00    +0.008 C 
ATOM     19  C   LIG    1       -2.545   4.105  -0.369  0.00  0.00    +0.032 C 
ATOM     20  C   LIG    1       -1.227   3.377  -0.393  0.00  0.00    -0.060 C 
ENDROOT
BRANCH   9  21
ATOM     21  O   LIG    1       -1.395   6.304  -2.084  0.00  0.00    -0.391 OA
ATOM     22  H   LIG    1       -1.448   6.871  -2.865  0.00  0.00    +0.210 HD
ENDBRANCH   9  21
BRANCH  16  23
ATOM     23  O   LIG    1       -0.321  10.030   1.283  0.00  0.00    -0.380 OA
ATOM     24  H   LIG    1       -0.310  10.844   1.806  0.00  0.00    +0.211 HD
ENDBRANCH  16  23
BRANCH  16  25
ATOM     25  C   LIG    1       -2.489  10.459   0.313  0.00  0.00    +0.190 C 
ATOM     26  O   LIG    1       -3.678  10.501   0.523  0.00  0.00    -0.292 OA
BRANCH  25  27
ATOM     27  C   LIG    1       -1.873  11.375  -0.713  0.00  0.00    +0.233 C 
BRANCH  27  28
ATOM     28  O   LIG    1       -2.891  12.191  -1.296  0.00  0.00    -0.387 OA
ATOM     29  H   LIG    1       -2.566  12.806  -1.967  0.00  0.00    +0.210 HD
ENDBRANCH  27  28
ENDBRANCH  25  27
ENDBRANCH  16  25
TORSDOF 5
