REMARK  Name = ZINC12402866
REMARK                            x       y       z     vdW  Elec       q    Type
REMARK                         _______ _______ _______ _____ _____    ______ ____
ROOT
ATOM      1  C   LIG    1        1.721  -2.776   0.900  0.00  0.00    +0.203 A 
ATOM      2  N   LIG    1        2.916  -3.216   0.630  0.00  0.00    -0.229 NA
ATOM      3  C   LIG    1        3.770  -2.168   0.564  0.00  0.00    +0.172 A 
ATOM      4  C   LIG    1        5.203  -2.026   0.287  0.00  0.00    +0.280 A 
ATOM      5  O   LIG    1        5.895  -3.007   0.063  0.00  0.00    -0.265 OA
ATOM      6  N   LIG    1        5.738  -0.795   0.286  0.00  0.00    -0.293 N 
ATOM      7  C   LIG    1        5.005   0.270   0.526  0.00  0.00    +0.195 A 
ATOM      8  N   LIG    1        3.673   0.197   0.788  0.00  0.00    -0.196 NA
ATOM      9  H   LIG    1        6.714  -0.686   0.099  0.00  0.00    +0.172 HD
ATOM     10  C   LIG    1        3.033  -1.015   0.807  0.00  0.00    +0.171 A 
ATOM     11  N   LIG    1        1.750  -1.418   1.020  0.00  0.00    -0.285 N 
ENDROOT
BRANCH  11  12
ATOM     12  C   LIG    1        0.609  -0.550   1.319  0.00  0.00    +0.253 C 
ATOM     13  C   LIG    1        0.002  -0.004   0.002  0.00  0.00    +0.196 C 
ATOM     14  C   LIG    1       -1.426  -0.565   0.013  0.00  0.00    +0.194 C 
ATOM     15  C   LIG    1       -1.659  -0.747   1.537  0.00  0.00    +0.179 C 
ATOM     16  C   LIG    1       -2.906  -1.582   1.750  0.00  0.00    +0.206 C 
ATOM     17  O   LIG    1       -4.025  -0.785   1.293  0.00  0.00    -0.284 OA
ATOM     18  P   LIG    1       -3.981  -0.074  -0.166  0.00  0.00    +0.475 P 
ATOM     19  O   LIG    1       -4.437  -1.023  -1.205  0.00  0.00    -0.227 OA
ATOM     20  O   LIG    1       -2.429   0.351  -0.438  0.00  0.00    -0.278 OA
ATOM     21  O   LIG    1       -0.429  -1.311   1.984  0.00  0.00    -0.346 OA
BRANCH  13  22
ATOM     22  O   LIG    1       -0.017   1.425   0.010  0.00  0.00    -0.385 OA
ATOM     23  H   LIG    1        0.861   1.830   0.004  0.00  0.00    +0.210 HD
ENDBRANCH  13  22
BRANCH  18  24
ATOM     24  O   LIG    1       -4.918   1.236  -0.168  0.00  0.00    -0.302 OA
ATOM     25  H   LIG    1       -5.838   0.975  -0.005  0.00  0.00    +0.222 HD
ENDBRANCH  18  24
ENDBRANCH  11  12
BRANCH   7  26
ATOM     26  N   LIG    1        5.606   1.500   0.512  0.00  0.00    -0.329 N 
ATOM     27  H   LIG    1        6.326   1.527   1.204  0.00  0.00    +0.145 HD
ATOM     28  H   LIG    1        5.082   2.298   0.687  0.00  0.00    +0.145 HD
ENDBRANCH   7  26
TORSDOF 4
