REMARK  Name = ZINC08589497
REMARK                            x       y       z     vdW  Elec       q    Type
REMARK                         _______ _______ _______ _____ _____    ______ ____
ROOT
ATOM      1  C   LIG    1        0.146  -0.376   4.945  0.00  0.00    +0.137 A 
ATOM      2  C   LIG    1        0.823  -0.833   6.079  0.00  0.00    +0.077 A 
ATOM      3  C   LIG    1        0.328  -0.617   7.369  0.00  0.00    +0.087 A 
ATOM      4  N   LIG    1       -0.880   0.083   7.436  0.00  0.00    -0.192 N 
ATOM      5  C   LIG    1       -1.507   0.510   6.300  0.00  0.00    +0.204 A 
ATOM      6  C   LIG    1       -2.658   1.157   6.722  0.00  0.00    +0.249 A 
ATOM      7  N   LIG    1       -2.704   1.111   8.048  0.00  0.00    -0.108 NA
ATOM      8  N   LIG    1       -1.677   0.487   8.513  0.00  0.00    -0.057 NA
ATOM      9  C   LIG    1        1.104  -1.126   8.412  0.00  0.00    +0.036 A 
ATOM     10  C   LIG    1        2.256  -1.781   8.146  0.00  0.00    +0.048 A 
ATOM     11  S   LIG    1        2.330  -1.726   6.363  0.00  0.00    -0.092 S 
ATOM     12  N   LIG    1       -0.992   0.284   5.080  0.00  0.00    -0.209 NA
ENDROOT
BRANCH   6  13
ATOM     13  S   LIG    1       -3.856   1.914   5.676  0.00  0.00    +0.047 S 
ATOM     14  O   LIG    1       -3.192   2.232   4.461  0.00  0.00    -0.163 OA
ATOM     15  O   LIG    1       -4.520   2.895   6.461  0.00  0.00    -0.163 OA
BRANCH  13  16
ATOM     16  C   LIG    1       -5.057   0.685   5.285  0.00  0.00    +0.096 A 
ATOM     17  C   LIG    1       -4.887  -0.119   4.174  0.00  0.00    +0.028 A 
ATOM     18  C   LIG    1       -5.828  -1.084   3.868  0.00  0.00    +0.017 A 
ATOM     19  C   LIG    1       -6.941  -1.245   4.673  0.00  0.00    +0.018 A 
ATOM     20 BR   LIG    1       -8.229  -2.564   4.255  0.00  0.00    -0.050 Br
ATOM     21  C   LIG    1       -7.111  -0.440   5.785  0.00  0.00    +0.017 A 
ATOM     22  C   LIG    1       -6.166   0.521   6.094  0.00  0.00    +0.028 A 
ENDBRANCH  13  16
ENDBRANCH   6  13
BRANCH   1  23
ATOM     23  N   LIG    1        0.667  -0.609   3.684  0.00  0.00    -0.328 N 
ATOM     24  H   LIG    1        1.502  -1.093   3.586  0.00  0.00    +0.147 HD
BRANCH  23  25
ATOM     25  C   LIG    1       -0.042  -0.124   2.497  0.00  0.00    +0.103 C 
BRANCH  25  26
ATOM     26  C   LIG    1        0.742  -0.511   1.242  0.00  0.00    +0.021 C 
BRANCH  26  28
ATOM     27  C   LIG    1       -0.019   1.526   0.010  0.00  0.00    +0.007 C 
ATOM     28  C   LIG    1        0.002  -0.004   0.002  0.00  0.00    -0.016 C 
ATOM     29  C   LIG    1        0.718  -0.497  -1.257  0.00  0.00    +0.007 C 
ENDBRANCH  26  28
ENDBRANCH  25  26
ENDBRANCH  23  25
ENDBRANCH   1  23
TORSDOF 6
