REMARK  Name = ZINC11679157
REMARK                            x       y       z     vdW  Elec       q    Type
REMARK                         _______ _______ _______ _____ _____    ______ ____
ROOT
ATOM      1  N   UNK A  1       -5.428   3.165   1.966  0.00  0.00    +0.395 N 
ATOM      2  H   UNK A  1       -5.832   2.387   2.501  0.00  0.00    -0.084 HD
ATOM      3  H   UNK A  1       -4.893   3.773   2.597  0.00  0.00    -0.084 HD
ENDROOT
BRANCH   1   5
ATOM      4  C   UNK A  1       -5.090   1.306   0.400  0.00  0.00    -0.004 C 
ATOM      5  C   UNK A  1       -4.528   2.627   0.928  0.00  0.00    +0.014 C 
BRANCH   5   6
ATOM      6  C   UNK A  1       -3.167   2.390   1.530  0.00  0.00    +0.202 C 
ATOM      7  N   PRO A  2       -2.171   1.894   0.768  0.00  0.00    -0.289 N 
ATOM      8  CD  PRO A  2       -2.275   1.541  -0.659  0.00  0.00    +0.108 C 
ATOM      9  CG  PRO A  2       -0.825   1.630  -1.196  0.00  0.00    +0.021 C 
ATOM     10  CB  PRO A  2       -0.013   1.086   0.008  0.00  0.00    +0.035 C 
ATOM     11  CA  PRO A  2       -0.798   1.615   1.227  0.00  0.00    +0.184 C 
ATOM     12  O   UNK A  1       -2.967   2.644   2.699  0.00  0.00    -0.277 OA
BRANCH  11  13
ATOM     13  C   PRO A  2       -0.819   0.572   2.315  0.00  0.00    +0.325 C 
ATOM     14  O   PRO A  2       -1.871   0.113   2.691  0.00  0.00    -0.249 OA
BRANCH  13  15
ATOM     15  OXT PRO A  2        0.332   0.152   2.865  0.00  0.00    -0.479 OA
ATOM     16  HXT PRO A  2        1.148   0.508   2.573  0.00  0.00    +0.295 HD
ENDBRANCH  13  15
ENDBRANCH  11  13
ENDBRANCH   5   6
ENDBRANCH   1   5
BRANCH   1  17
ATOM     17  C   UNK A  1       -6.516   3.945   1.346  0.00  0.00    +0.040 C 
BRANCH  17  18
ATOM     18  C   UNK A  1       -6.049   5.358   1.107  0.00  0.00    +0.291 C 
ATOM     19  O   UNK A  1       -4.926   5.683   1.413  0.00  0.00    -0.253 OA
BRANCH  18  20
ATOM     20  O   UNK A  1       -6.880   6.255   0.554  0.00  0.00    -0.482 OA
ATOM     21  H   UNK A  1       -7.751   6.003   0.317  0.00  0.00    +0.295 HD
ENDBRANCH  18  20
ENDBRANCH  17  18
BRANCH  17  22
ATOM     22  C   UNK A  1       -7.723   3.960   2.287  0.00  0.00    -0.000 C 
BRANCH  22  23
ATOM     23  C   UNK A  1       -8.274   2.540   2.431  0.00  0.00    +0.034 C 
BRANCH  23  24
ATOM     24  C   UNK A  1       -9.462   2.554   3.357  0.00  0.00    -0.047 A 
ATOM     25  C   UNK A  1       -9.283   2.368   4.715  0.00  0.00    +0.003 A 
ATOM     26  C   UNK A  1      -10.372   2.386   5.566  0.00  0.00    +0.000 A 
ATOM     27  C   UNK A  1      -11.643   2.580   5.057  0.00  0.00    +0.000 A 
ATOM     28  C   UNK A  1      -11.823   2.761   3.698  0.00  0.00    +0.000 A 
ATOM     29  C   UNK A  1      -10.733   2.748   2.849  0.00  0.00    +0.003 A 
ENDBRANCH  23  24
ENDBRANCH  22  23
ENDBRANCH  17  22
ENDBRANCH   1  17
TORSDOF 10
