REMARK  Name = ZINC08699421
REMARK                            x       y       z     vdW  Elec       q    Type
REMARK                         _______ _______ _______ _____ _____    ______ ____
ROOT
ATOM      1  C   LIG    1        3.487   0.123   3.372  0.00  0.00    +0.000 A 
ATOM      2  C   LIG    1        3.312  -0.668   2.251  0.00  0.00    +0.000 A 
ATOM      3  C   LIG    1        2.600  -0.181   1.174  0.00  0.00    +0.006 A 
ATOM      4  C   LIG    1        2.057   1.097   1.206  0.00  0.00    -0.018 A 
ATOM      5  C   LIG    1        2.235   1.885   2.320  0.00  0.00    -0.042 A 
ATOM      6  C   LIG    1        1.681   3.283   2.422  0.00  0.00    +0.034 C 
ATOM      7  C   LIG    1        0.591   3.506   1.375  0.00  0.00    -0.009 C 
ATOM      8  C   LIG    1        1.139   3.082   0.008  0.00  0.00    -0.041 C 
ATOM      9  C   LIG    1        1.286   1.562  -0.002  0.00  0.00    +0.130 C 
ATOM     10  C   LIG    1        2.950   1.393   3.404  0.00  0.00    +0.004 A 
ENDROOT
BRANCH   8  11
ATOM     11  N   LIG    1        0.186   3.484  -1.041  0.00  0.00    +0.382 N 
ATOM     12  H   LIG    1       -0.732   3.069  -0.840  0.00  0.00    -0.090 HD
ATOM     13  H   LIG    1        0.507   3.155  -1.950  0.00  0.00    -0.090 HD
ATOM     14  H   LIG    1        0.095   4.498  -1.060  0.00  0.00    -0.090 HD
ENDBRANCH   8  11
BRANCH   9  15
ATOM     15  O   LIG    1       -0.011   0.963   0.007  0.00  0.00    -0.389 OA
ATOM     16  H   LIG    1        0.002  -0.004   0.002  0.00  0.00    +0.210 HD
ENDBRANCH   9  15
TORSDOF 2
