REMARK  Name = ZINC08582037
REMARK                            x       y       z     vdW  Elec       q    Type
REMARK                         _______ _______ _______ _____ _____    ______ ____
ROOT
ATOM      1  C   LIG    1        1.217  -0.640  -0.126  0.00  0.00    +0.085 A 
ATOM      2  C   LIG    1       -0.003  -0.012  -0.113  0.00  0.00    +0.139 A 
ATOM      3  N   LIG    1       -0.021   1.302  -0.070  0.00  0.00    -0.213 NA
ATOM      4  C   LIG    1        1.095   2.005  -0.040  0.00  0.00    +0.263 A 
ATOM      5  S   LIG    1        2.315   0.769  -0.073  0.00  0.00    -0.021 S 
ENDROOT
BRANCH   1   7
ATOM      6  C   LIG    1        1.778  -3.184  -0.207  0.00  0.00    -0.074 C 
ATOM      7  C   LIG    1        1.525  -2.038  -0.170  0.00  0.00    -0.056 C 
BRANCH   6   9
ATOM      8  C   LIG    1        1.508  -5.232  -1.527  0.00  0.00    +0.042 C 
ATOM      9  C   LIG    1        2.095  -4.621  -0.253  0.00  0.00    +0.146 C 
BRANCH   9  10
ATOM     10  N   LIG    1        1.518  -5.286   0.918  0.00  0.00    -0.302 N 
ATOM     11  H   LIG    1        0.748  -4.900   1.364  0.00  0.00    +0.150 HD
ATOM     12  C   LIG    1        2.057  -6.433   1.375  0.00  0.00    +0.211 C 
ATOM     13  C   LIG    1        1.463  -7.117   2.579  0.00  0.00    +0.109 C 
ATOM     14  O   LIG    1        3.019  -6.916   0.817  0.00  0.00    -0.276 OA
ENDBRANCH   9  10
ENDBRANCH   6   9
ENDBRANCH   1   7
BRANCH   4  15
ATOM     15  O   LIG    1        1.250   3.350   0.005  0.00  0.00    -0.433 OA
BRANCH  15  16
ATOM     16  C   LIG    1        0.136   4.124  -0.084  0.00  0.00    +0.131 A 
ATOM     17  C   LIG    1        0.256   5.503  -0.171  0.00  0.00    +0.050 A 
ATOM     18  C   LIG    1       -0.876   6.290  -0.267  0.00  0.00    +0.050 A 
ATOM     19  C   LIG    1       -2.132   5.701  -0.265  0.00  0.00    +0.129 A 
ATOM     20  C   LIG    1       -2.252   4.322  -0.172  0.00  0.00    +0.050 A 
ATOM     21  C   LIG    1       -1.120   3.535  -0.082  0.00  0.00    +0.050 A 
BRANCH  19  22
ATOM     22  O   LIG    1       -3.246   6.475  -0.354  0.00  0.00    -0.456 OA
BRANCH  22  23
ATOM     23  C   LIG    1       -3.978   6.671   0.774  0.00  0.00    +0.128 A 
ATOM     24  C   LIG    1       -3.645   6.005   1.944  0.00  0.00    +0.046 A 
ATOM     25  C   LIG    1       -4.388   6.210   3.091  0.00  0.00    +0.004 A 
ATOM     26  C   LIG    1       -5.470   7.071   3.070  0.00  0.00    +0.000 A 
ATOM     27  C   LIG    1       -5.808   7.732   1.903  0.00  0.00    +0.004 A 
ATOM     28  C   LIG    1       -5.065   7.534   0.756  0.00  0.00    +0.046 A 
ENDBRANCH  22  23
ENDBRANCH  19  22
ENDBRANCH  15  16
ENDBRANCH   4  15
TORSDOF 7
