REMARK  Name = ZINC12568108
REMARK                            x       y       z     vdW  Elec       q    Type
REMARK                         _______ _______ _______ _____ _____    ______ ____
ROOT
ATOM      1  C   LIG    1        2.079   5.276   0.125  0.00  0.00    +0.001 A 
ATOM      2  C   LIG    1        1.568   6.557   0.251  0.00  0.00    +0.002 A 
ATOM      3  C   LIG    1        0.206   6.768   0.320  0.00  0.00    +0.024 A 
ATOM      4  C   LIG    1       -0.670   5.688   0.276  0.00  0.00    +0.042 A 
ATOM      5  C   LIG    1       -0.149   4.393   0.153  0.00  0.00    +0.008 A 
ATOM      6  C   LIG    1       -1.312   3.476   0.130  0.00  0.00    +0.046 C 
ATOM      7  C   LIG    1       -2.490   4.350   0.259  0.00  0.00    +0.249 C 
ATOM      8  O   LIG    1       -3.651   3.987   0.288  0.00  0.00    -0.270 OA
ATOM      9  C   LIG    1       -1.294   2.116   0.020  0.00  0.00    +0.021 C 
ATOM     10  N   LIG    1       -2.057   5.620   0.340  0.00  0.00    -0.281 N 
ATOM     11  H   LIG    1       -2.638   6.391   0.431  0.00  0.00    +0.155 HD
ATOM     12  C   LIG    1        1.225   4.192   0.075  0.00  0.00    +0.010 A 
ENDROOT
BRANCH   9  13
ATOM     13  C   LIG    1       -0.050   1.425  -0.327  0.00  0.00    -0.024 A 
ATOM     14  C   LIG    1        0.771   1.923  -1.348  0.00  0.00    +0.011 A 
ATOM     15  C   LIG    1        1.932   1.269  -1.672  0.00  0.00    +0.046 A 
ATOM     16  C   LIG    1        2.295   0.112  -0.990  0.00  0.00    +0.117 A 
ATOM     17  C   LIG    1        1.485  -0.387   0.024  0.00  0.00    +0.046 A 
ATOM     18  C   LIG    1        0.322   0.259   0.357  0.00  0.00    +0.011 A 
BRANCH  16  19
ATOM     19  O   LIG    1        3.445  -0.531  -1.316  0.00  0.00    -0.507 OA
ATOM     20  H   LIG    1        3.338  -1.205  -2.001  0.00  0.00    +0.292 HD
ENDBRANCH  16  19
ENDBRANCH   9  13
TORSDOF 2
