REMARK  Name = ZINC12631335
REMARK                            x       y       z     vdW  Elec       q    Type
REMARK                         _______ _______ _______ _____ _____    ______ ____
ROOT
ATOM      1  N   LIG    1        0.464  -7.292   2.371  0.00  0.00    -0.257 N 
ATOM      2  C   LIG    1        1.649  -7.638   3.012  0.00  0.00    +0.047 A 
ATOM      3  C   LIG    1        2.964  -7.681   2.562  0.00  0.00    +0.024 A 
ATOM      4  C   LIG    1        3.976  -8.068   3.417  0.00  0.00    +0.002 A 
ATOM      5  C   LIG    1        3.698  -8.418   4.728  0.00  0.00    +0.001 A 
ATOM      6  C   LIG    1        2.398  -8.381   5.192  0.00  0.00    +0.012 A 
ATOM      7  C   LIG    1        1.372  -7.992   4.338  0.00  0.00    +0.028 A 
ATOM      8  C   LIG    1       -0.093  -7.848   4.512  0.00  0.00    +0.153 C 
ATOM      9  N   LIG    1       -0.794  -8.074   5.597  0.00  0.00    -0.174 NA
ATOM     10  C   LIG    1       -0.589  -7.390   3.200  0.00  0.00    +0.272 C 
ATOM     11  O   LIG    1       -1.748  -7.146   2.917  0.00  0.00    -0.268 OA
ENDROOT
BRANCH   9  12
ATOM     12  N   LIG    1       -0.144  -8.354   6.806  0.00  0.00    -0.202 N 
ATOM     13  H   LIG    1        0.823  -8.300   6.861  0.00  0.00    +0.178 HD
ATOM     14  C   LIG    1       -0.862  -8.699   7.893  0.00  0.00    +0.267 C 
ATOM     15  O   LIG    1       -2.074  -8.767   7.825  0.00  0.00    -0.268 OA
BRANCH  14  16
ATOM     16  C   LIG    1       -0.178  -8.993   9.165  0.00  0.00    +0.081 A 
ATOM     17  C   LIG    1        1.215  -8.911   9.250  0.00  0.00    +0.032 A 
ATOM     18  C   LIG    1        1.848  -9.187  10.443  0.00  0.00    +0.019 A 
ATOM     19 BR   LIG    1        3.733  -9.076  10.556  0.00  0.00    -0.050 Br
ATOM     20  C   LIG    1        1.110  -9.547  11.560  0.00  0.00    +0.019 A 
ATOM     21  C   LIG    1       -0.266  -9.632  11.489  0.00  0.00    +0.047 A 
ATOM     22  C   LIG    1       -0.920  -9.352  10.299  0.00  0.00    +0.129 A 
BRANCH  22  23
ATOM     23  O   LIG    1       -2.273  -9.430  10.230  0.00  0.00    -0.506 OA
ATOM     24  H   LIG    1       -2.605 -10.304   9.980  0.00  0.00    +0.292 HD
ENDBRANCH  22  23
ENDBRANCH  14  16
ENDBRANCH   9  12
BRANCH   1  25
ATOM     25  C   LIG    1        0.377  -6.867   0.972  0.00  0.00    +0.210 C 
BRANCH  25  28
ATOM     26  N   LIG    1        0.487  -4.753  -0.307  0.00  0.00    -0.284 N 
ATOM     27  H   LIG    1        0.276  -5.260  -1.107  0.00  0.00    +0.155 HD
ATOM     28  C   LIG    1        0.534  -5.371   0.889  0.00  0.00    +0.235 C 
ATOM     29  O   LIG    1        0.702  -4.722   1.901  0.00  0.00    -0.274 OA
BRANCH  26  34
ATOM     30  C   LIG    1        1.523   0.813  -0.670  0.00  0.00    +0.044 C 
ATOM     31  C   LIG    1        1.248  -0.666  -0.573  0.00  0.00    -0.050 A 
ATOM     32  C   LIG    1        1.922  -1.434   0.358  0.00  0.00    +0.005 A 
ATOM     33  C   LIG    1        1.672  -2.789   0.448  0.00  0.00    +0.023 A 
ATOM     34  C   LIG    1        0.742  -3.380  -0.396  0.00  0.00    +0.033 A 
ATOM     35  C   LIG    1        0.066  -2.606  -1.330  0.00  0.00    +0.023 A 
ATOM     36  C   LIG    1        0.317  -1.250  -1.413  0.00  0.00    +0.005 A 
ENDBRANCH  26  34
ENDBRANCH  25  28
ENDBRANCH   1  25
TORSDOF 6
