REMARK  Name = ZINC12113475
REMARK                            x       y       z     vdW  Elec       q    Type
REMARK                         _______ _______ _______ _____ _____    ______ ____
ROOT
ATOM      1  C   LIG    1       -0.018   1.503   0.010  0.00  0.00    +0.051 C 
ATOM      2  C   LIG    1        0.002  -0.004   0.002  0.00  0.00    -0.011 A 
ATOM      3  C   LIG    1       -1.039  -0.863   0.002  0.00  0.00    +0.037 A 
ATOM      4  C   LIG    1       -0.810  -2.248  -0.007  0.00  0.00    +0.057 A 
ATOM      5  C   LIG    1        0.527  -2.640  -0.015  0.00  0.00    +0.047 A 
ATOM      6  C   LIG    1        0.583  -4.085  -0.024  0.00  0.00    +0.039 A 
ATOM      7  C   LIG    1        1.630  -5.038  -0.033  0.00  0.00    +0.144 A 
ATOM      8  N   LIG    1        1.359  -6.311  -0.039  0.00  0.00    -0.176 NA
ATOM      9  N   LIG    1        0.041  -6.775  -0.036  0.00  0.00    -0.223 N 
ATOM     10  C   LIG    1       -0.997  -5.915  -0.026  0.00  0.00    +0.292 A 
ATOM     11  O   LIG    1       -2.144  -6.334  -0.023  0.00  0.00    -0.264 OA
ATOM     12  C   LIG    1       -0.747  -4.526  -0.020  0.00  0.00    +0.119 A 
ATOM     13  N   LIG    1       -1.566  -3.424  -0.011  0.00  0.00    -0.338 N 
ATOM     14  C   LIG    1       -3.030  -3.474  -0.004  0.00  0.00    +0.149 C 
ATOM     15  S   LIG    1        1.409  -1.102  -0.018  0.00  0.00    -0.091 S 
ENDROOT
BRANCH   9  16
ATOM     16  C   LIG    1       -0.217  -8.217  -0.043  0.00  0.00    +0.182 C 
BRANCH  16  17
ATOM     17  C   LIG    1       -0.312  -8.704  -1.466  0.00  0.00    -0.026 A 
ATOM     18  C   LIG    1       -1.534  -8.710  -2.113  0.00  0.00    +0.009 A 
ATOM     19  C   LIG    1       -1.624  -9.156  -3.417  0.00  0.00    +0.046 A 
ATOM     20  C   LIG    1       -0.487  -9.596  -4.079  0.00  0.00    +0.120 A 
ATOM     21  C   LIG    1        0.738  -9.588  -3.428  0.00  0.00    +0.046 A 
ATOM     22  C   LIG    1        0.824  -9.137  -2.125  0.00  0.00    +0.009 A 
BRANCH  20  23
ATOM     23  O   LIG    1       -0.573 -10.036  -5.362  0.00  0.00    -0.495 OA
ATOM     24  C   LIG    1        0.638 -10.474  -5.980  0.00  0.00    +0.277 C 
ENDBRANCH  20  23
ENDBRANCH  16  17
ENDBRANCH   9  16
TORSDOF 3
