REMARK  Name = ZINC12428439
REMARK                            x       y       z     vdW  Elec       q    Type
REMARK                         _______ _______ _______ _____ _____    ______ ____
ROOT
ATOM      1  C   LIG    1        3.690  -0.688  -0.038  0.00  0.00    +0.146 C 
ATOM      2  N   LIG    1        4.811  -0.018  -0.046  0.00  0.00    -0.155 NA
ENDROOT
BRANCH   2   3
ATOM      3  N   LIG    1        5.937  -0.647  -0.061  0.00  0.00    -0.127 NA
ATOM      4  C   LIG    1        7.068   0.028  -0.069  0.00  0.00    +0.182 C 
ATOM      5  N   LIG    1        8.354  -0.467  -0.091  0.00  0.00    -0.263 N 
ATOM      6  H   LIG    1        8.485  -1.428  -0.101  0.00  0.00    +0.157 HD
ATOM      7  C   LIG    1        9.417   0.319  -0.097  0.00  0.00    +0.229 C 
ATOM      8  C   LIG    1        9.135   1.813  -0.078  0.00  0.00    +0.173 C 
ATOM      9  O   LIG    1       10.546  -0.123  -0.116  0.00  0.00    -0.275 OA
ATOM     10  S   LIG    1        7.295   1.800  -0.063  0.00  0.00    -0.079 S 
ENDBRANCH   2   3
BRANCH   1  14
ATOM     11  C   LIG    1       -0.017   1.381   0.010  0.00  0.00    +0.019 A 
ATOM     12  C   LIG    1        1.167   2.097   0.002  0.00  0.00    +0.047 A 
ATOM     13  C   LIG    1        2.381   1.432  -0.013  0.00  0.00    +0.126 A 
ATOM     14  C   LIG    1        2.406   0.029  -0.021  0.00  0.00    +0.037 A 
ATOM     15  C   LIG    1        1.203  -0.683  -0.013  0.00  0.00    +0.028 A 
ATOM     16  C   LIG    1        0.002  -0.004   0.002  0.00  0.00    +0.019 A 
ATOM     17 BR   LIG    1       -1.625  -0.968   0.013  0.00  0.00    -0.050 Br
BRANCH  13  18
ATOM     18  O   LIG    1        3.543   2.135  -0.022  0.00  0.00    -0.506 OA
ATOM     19  H   LIG    1        3.888   2.334   0.859  0.00  0.00    +0.292 HD
ENDBRANCH  13  18
ENDBRANCH   1  14
TORSDOF 3
