REMARK  Name = ZINC12533415
REMARK                            x       y       z     vdW  Elec       q    Type
REMARK                         _______ _______ _______ _____ _____    ______ ____
ROOT
ATOM      1  C   LIG    1        2.513  -3.847   4.335  0.00  0.00    +0.135 C 
ATOM      2  S   LIG    1        1.802  -4.787   3.093  0.00  0.00    -0.019 S 
ENDROOT
BRANCH   1   3
ATOM      3  N   LIG    1        2.540  -2.503   4.231  0.00  0.00    -0.297 N 
ATOM      4  H   LIG    1        3.012  -1.976   4.894  0.00  0.00    +0.154 HD
BRANCH   3   8
ATOM      5  C   LIG    1        0.597  -0.616   1.062  0.00  0.00    +0.120 A 
ATOM      6  C   LIG    1       -0.012  -1.678   1.714  0.00  0.00    +0.047 A 
ATOM      7  C   LIG    1        0.631  -2.304   2.764  0.00  0.00    +0.027 A 
ATOM      8  C   LIG    1        1.887  -1.870   3.166  0.00  0.00    +0.033 A 
ATOM      9  C   LIG    1        2.496  -0.806   2.512  0.00  0.00    +0.027 A 
ATOM     10  C   LIG    1        1.854  -0.185   1.459  0.00  0.00    +0.047 A 
BRANCH   5  12
ATOM     11  C   LIG    1       -1.329  -0.496  -0.328  0.00  0.00    +0.277 C 
ATOM     12  O   LIG    1       -0.037  -0.001   0.028  0.00  0.00    -0.495 OA
ENDBRANCH   5  12
ENDBRANCH   3   8
ENDBRANCH   1   3
BRANCH   1  13
ATOM     13  N   LIG    1        3.044  -4.450   5.417  0.00  0.00    -0.326 N 
ATOM     14  H   LIG    1        3.446  -3.918   6.121  0.00  0.00    +0.148 HD
BRANCH  13  15
ATOM     15  C   LIG    1        3.013  -5.911   5.530  0.00  0.00    +0.105 C 
BRANCH  15  16
ATOM     16  C   LIG    1        3.676  -6.335   6.842  0.00  0.00    +0.040 C 
BRANCH  16  17
ATOM     17  C   LIG    1        3.645  -7.860   6.960  0.00  0.00    +0.124 C 
BRANCH  17  18
ATOM     18  N   LIG    1        4.280  -8.266   8.216  0.00  0.00    -0.338 N 
ATOM     19  C   LIG    1        5.607  -8.545   8.402  0.00  0.00    +0.104 A 
ATOM     20  C   LIG    1        5.757  -8.873   9.700  0.00  0.00    +0.101 A 
ATOM     21  N   LIG    1        4.555  -8.797  10.289  0.00  0.00    -0.352 N 
ATOM     22  H   LIG    1        4.375  -8.983  11.224  0.00  0.00    +0.166 HD
ATOM     23  C   LIG    1        3.666  -8.429   9.408  0.00  0.00    +0.173 A 
ENDBRANCH  17  18
ENDBRANCH  16  17
ENDBRANCH  15  16
ENDBRANCH  13  15
ENDBRANCH   1  13
TORSDOF 8
