REMARK  Name = ZINC11847321
REMARK                            x       y       z     vdW  Elec       q    Type
REMARK                         _______ _______ _______ _____ _____    ______ ____
ROOT
ATOM      1  N   LIG    1       -6.233   0.478  -8.764  0.00  0.00    +0.381 N 
ATOM      2  H   LIG    1       -7.126   0.478  -8.257  0.00  0.00    -0.082 HD
ATOM      3  C   LIG    1       -6.378   1.292  -9.990  0.00  0.00    -0.078 C 
ATOM      4  C   LIG    1       -7.543   0.742 -10.816  0.00  0.00    -0.014 C 
ATOM      5  C   LIG    1       -7.253  -0.713 -11.193  0.00  0.00    +0.005 C 
ATOM      6  C   LIG    1       -7.032  -1.529  -9.916  0.00  0.00    -0.014 C 
ATOM      7  C   LIG    1       -5.882  -0.914  -9.117  0.00  0.00    -0.078 C 
ENDROOT
BRANCH   1   8
ATOM      8  C   LIG    1       -5.189   1.057  -7.894  0.00  0.00    -0.044 C 
BRANCH   8   9
ATOM      9  C   LIG    1       -5.772   2.273  -7.172  0.00  0.00    +0.135 C 
BRANCH   9  10
ATOM     10  O   LIG    1       -6.896   1.868  -6.388  0.00  0.00    -0.390 OA
ATOM     11  H   LIG    1       -6.686   1.208  -5.712  0.00  0.00    +0.210 HD
ENDBRANCH   9  10
BRANCH   9  12
ATOM     12  C   LIG    1       -4.707   2.884  -6.260  0.00  0.00    +0.258 C 
BRANCH  12  13
ATOM     13  O   LIG    1       -5.213   4.086  -5.675  0.00  0.00    -0.486 OA
BRANCH  13  19
ATOM     14  C   LIG    1       -4.813   5.936  -4.225  0.00  0.00    +0.162 A 
ATOM     15  C   LIG    1       -3.966   6.617  -3.366  0.00  0.00    +0.053 A 
ATOM     16  C   LIG    1       -2.699   6.126  -3.111  0.00  0.00    -0.040 A 
ATOM     17  C   LIG    1       -2.272   4.959  -3.717  0.00  0.00    +0.008 A 
ATOM     18  C   LIG    1       -3.114   4.271  -4.571  0.00  0.00    +0.050 A 
ATOM     19  C   LIG    1       -4.386   4.758  -4.830  0.00  0.00    +0.162 A 
BRANCH  14  21
ATOM     20  C   LIG    1       -6.432   7.631  -3.820  0.00  0.00    +0.277 C 
ATOM     21  O   LIG    1       -6.060   6.417  -4.476  0.00  0.00    -0.491 OA
ENDBRANCH  14  21
BRANCH  16  22
ATOM     22  C   LIG    1       -1.780   6.868  -2.176  0.00  0.00    +0.061 C 
BRANCH  22  23
ATOM     23  C   LIG    1       -1.983   6.367  -0.769  0.00  0.00    -0.030 C 
ATOM     24  C   LIG    1       -0.964   5.916  -0.081  0.00  0.00    +0.004 C 
ENDBRANCH  22  23
ENDBRANCH  16  22
ENDBRANCH  13  19
ENDBRANCH  12  13
ENDBRANCH   9  12
ENDBRANCH   8   9
ENDBRANCH   1   8
BRANCH   5  25
ATOM     25  C   LIG    1       -8.442  -1.287 -11.967  0.00  0.00    +0.132 C 
BRANCH  25  26
ATOM     26  N   LIG    1       -8.116  -2.638 -12.431  0.00  0.00    -0.275 N 
ATOM     27  C   LIG    1       -7.542  -2.788 -13.639  0.00  0.00    +0.262 A 
ATOM     28  C   LIG    1       -7.196  -4.128 -14.137  0.00  0.00    +0.048 A 
ATOM     29  C   LIG    1       -6.598  -4.328 -15.372  0.00  0.00    +0.014 A 
ATOM     30  C   LIG    1       -6.294  -5.614 -15.801  0.00  0.00    +0.001 A 
ATOM     31  C   LIG    1       -6.570  -6.708 -15.032  0.00  0.00    +0.008 A 
ATOM     32  C   LIG    1       -7.175  -6.549 -13.773  0.00  0.00    -0.016 A 
ATOM     33  C   LIG    1       -7.478  -7.644 -12.944  0.00  0.00    +0.008 A 
ATOM     34  C   LIG    1       -8.065  -7.438 -11.729  0.00  0.00    +0.001 A 
ATOM     35  C   LIG    1       -8.379  -6.162 -11.278  0.00  0.00    +0.014 A 
ATOM     36  C   LIG    1       -8.097  -5.055 -12.066  0.00  0.00    +0.048 A 
ATOM     37  C   LIG    1       -7.488  -5.248 -13.327  0.00  0.00    +0.007 A 
ATOM     38  O   LIG    1       -7.303  -1.810 -14.321  0.00  0.00    -0.267 OA
ATOM     39  C   LIG    1       -8.408  -3.684 -11.635  0.00  0.00    +0.262 A 
ATOM     40  O   LIG    1       -8.932  -3.494 -10.554  0.00  0.00    -0.267 OA
ENDBRANCH  25  26
ENDBRANCH   5  25
TORSDOF 11
