REMARK  Name = ZINC11536216
REMARK                            x       y       z     vdW  Elec       q    Type
REMARK                         _______ _______ _______ _____ _____    ______ ____
ROOT
ATOM      1  S   LIG    1        1.623  -0.032   6.358  0.00  0.00    +0.044 S 
ATOM      2  O   LIG    1        1.193   0.935   7.306  0.00  0.00    -0.163 OA
ATOM      3  O   LIG    1        2.996  -0.307   6.118  0.00  0.00    -0.163 OA
ENDROOT
BRANCH   1   7
ATOM      4  C   LIG    1       -0.172   1.172   2.378  0.00  0.00    +0.120 A 
ATOM      5  C   LIG    1        0.970   0.383   2.416  0.00  0.00    +0.047 A 
ATOM      6  C   LIG    1        1.518   0.023   3.631  0.00  0.00    +0.031 A 
ATOM      7  C   LIG    1        0.924   0.436   4.810  0.00  0.00    +0.096 A 
ATOM      8  C   LIG    1       -0.216   1.217   4.775  0.00  0.00    +0.031 A 
ATOM      9  C   LIG    1       -0.765   1.586   3.562  0.00  0.00    +0.047 A 
BRANCH   4  11
ATOM     10  C   LIG    1       -0.045   1.071   0.006  0.00  0.00    +0.277 C 
ATOM     11  O   LIG    1       -0.710   1.533   1.184  0.00  0.00    -0.495 OA
ENDBRANCH   4  11
ENDBRANCH   1   7
BRANCH   1  12
ATOM     12  C   LIG    1        0.878  -1.560   6.825  0.00  0.00    +0.204 A 
ATOM     13  N   LIG    1        1.425  -2.700   6.455  0.00  0.00    -0.127 NA
ATOM     14  N   LIG    1        0.917  -3.837   6.766  0.00  0.00    -0.110 NA
ATOM     15  C   LIG    1       -0.192  -3.939   7.480  0.00  0.00    +0.232 A 
ATOM     16  C   LIG    1       -0.842  -2.787   7.916  0.00  0.00    +0.072 A 
ATOM     17  C   LIG    1       -0.285  -1.562   7.582  0.00  0.00    +0.055 A 
BRANCH  15  18
ATOM     18  O   LIG    1       -0.695  -5.162   7.786  0.00  0.00    -0.491 OA
ATOM     19  H   LIG    1       -1.481  -5.232   8.292  0.00  0.00    +0.294 HD
ENDBRANCH  15  18
ENDBRANCH   1  12
TORSDOF 4
