REMARK  Name = ZINC12959788
REMARK                            x       y       z     vdW  Elec       q    Type
REMARK                         _______ _______ _______ _____ _____    ______ ____
ROOT
ATOM      1  C   LIG    1        4.953  -2.717  -0.060  0.00  0.00    +0.133 C 
ATOM      2  N   LIG    1        4.975  -4.019  -0.068  0.00  0.00    -0.180 NA
ENDROOT
BRANCH   2   3
ATOM      3  N   LIG    1        3.773  -4.739  -0.060  0.00  0.00    -0.259 N 
ATOM      4  H   LIG    1        2.926  -4.269  -0.049  0.00  0.00    +0.191 HD
ATOM      5  C   LIG    1        3.796  -6.107  -0.067  0.00  0.00    +0.142 C 
BRANCH   5   6
ATOM      6  N   LIG    1        2.623  -6.811  -0.059  0.00  0.00    -0.338 N 
ATOM      7  H   LIG    1        2.639  -7.780  -0.065  0.00  0.00    +0.144 HD
ATOM      8  H   LIG    1        1.775  -6.340  -0.048  0.00  0.00    +0.144 HD
ENDBRANCH   5   6
BRANCH   5   9
ATOM      9  S   LIG    1        5.247  -6.913  -0.086  0.00  0.00    -0.109 S 
ATOM     10  H   LIG    1        6.266  -6.012  -0.091  0.00  0.00    +0.110 HD
ENDBRANCH   5   9
ENDBRANCH   2   3
BRANCH   1  12
ATOM     11  C   LIG    1        3.692  -0.680  -0.037  0.00  0.00    +0.009 C 
ATOM     12  C   LIG    1        3.714  -2.028  -0.045  0.00  0.00    +0.022 C 
BRANCH  11  16
ATOM     13  C   LIG    1       -0.017   1.380   0.010  0.00  0.00    +0.000 A 
ATOM     14  C   LIG    1        1.168   2.095   0.002  0.00  0.00    +0.001 A 
ATOM     15  C   LIG    1        2.377   1.433  -0.013  0.00  0.00    +0.008 A 
ATOM     16  C   LIG    1        2.405   0.035  -0.021  0.00  0.00    -0.025 A 
ATOM     17  C   LIG    1        1.203  -0.681  -0.013  0.00  0.00    +0.008 A 
ATOM     18  C   LIG    1        0.002  -0.004   0.002  0.00  0.00    +0.001 A 
ENDBRANCH  11  16
ENDBRANCH   1  12
TORSDOF 5
