REMARK  Name = ZINC12403084
REMARK                            x       y       z     vdW  Elec       q    Type
REMARK                         _______ _______ _______ _____ _____    ______ ____
ROOT
ATOM      1  C   LIG    1        0.061  -4.248  -0.021  0.00  0.00    +0.138 C 
ATOM      2  N   LIG    1        0.075  -4.903   1.099  0.00  0.00    -0.188 NA
ENDROOT
BRANCH   1   7
ATOM      3  C   LIG    1       -0.018   1.503   0.010  0.00  0.00    +0.044 C 
ATOM      4  C   LIG    1        0.002  -0.004   0.002  0.00  0.00    -0.050 A 
ATOM      5  C   LIG    1        0.006  -0.686  -1.202  0.00  0.00    +0.004 A 
ATOM      6  C   LIG    1        0.025  -2.065  -1.217  0.00  0.00    +0.010 A 
ATOM      7  C   LIG    1        0.041  -2.773  -0.013  0.00  0.00    -0.005 A 
ATOM      8  C   LIG    1        0.037  -2.078   1.198  0.00  0.00    +0.010 A 
ATOM      9  C   LIG    1        0.023  -0.699   1.198  0.00  0.00    +0.004 A 
ENDBRANCH   1   7
BRANCH   2  10
ATOM     10  N   LIG    1        0.094  -6.304   1.091  0.00  0.00    -0.219 N 
ATOM     11  H   LIG    1        0.096  -6.784   0.248  0.00  0.00    +0.176 HD
BRANCH  10  12
ATOM     12  C   LIG    1        0.109  -6.993   2.270  0.00  0.00    +0.146 C 
ATOM     13  N   LIG    1        0.134  -8.307   2.451  0.00  0.00    -0.267 N 
ATOM     14  H   LIG    1        0.141  -8.871   1.662  0.00  0.00    +0.157 HD
ATOM     15  C   LIG    1        0.147  -8.892   3.617  0.00  0.00    +0.229 C 
ATOM     16  C   LIG    1        0.134  -7.953   4.817  0.00  0.00    +0.173 C 
ATOM     17  O   LIG    1        0.170 -10.101   3.738  0.00  0.00    -0.275 OA
ATOM     18  S   LIG    1        0.110  -6.337   3.933  0.00  0.00    -0.084 S 
ENDBRANCH  10  12
ENDBRANCH   2  10
TORSDOF 3
