REMARK  Name = ZINC10027145
REMARK                            x       y       z     vdW  Elec       q    Type
REMARK                         _______ _______ _______ _____ _____    ______ ____
ROOT
ATOM      1  C   LIG    1        7.883  -3.099   2.739  0.00  0.00    +0.165 C 
ATOM      2  C   LIG    1        7.913  -4.579   2.345  0.00  0.00    +0.030 C 
ATOM      3  C   LIG    1        9.238  -5.197   2.799  0.00  0.00    +0.003 C 
ATOM      4  C   LIG    1        9.352  -5.101   4.322  0.00  0.00    +0.017 C 
ATOM      5  C   LIG    1        9.338  -3.627   4.738  0.00  0.00    +0.110 C 
ATOM      6  N   LIG    1        8.138  -2.986   4.181  0.00  0.00    -0.165 NA
ENDROOT
BRANCH   1   9
ATOM      7  N   LIG    1        6.438  -1.349   1.756  0.00  0.00    -0.314 N 
ATOM      8  H   LIG    1        7.243  -0.880   1.486  0.00  0.00    +0.149 HD
ATOM      9  C   LIG    1        6.529  -2.519   2.418  0.00  0.00    +0.232 C 
ATOM     10  O   LIG    1        5.523  -3.105   2.757  0.00  0.00    -0.274 OA
BRANCH   7  11
ATOM     11  C   LIG    1        5.122  -0.784   1.445  0.00  0.00    +0.109 C 
BRANCH  11  12
ATOM     12  C   LIG    1        5.299   0.538   0.695  0.00  0.00    +0.054 C 
BRANCH  12  16
ATOM     13  C   LIG    1        1.464   2.185  -0.214  0.00  0.00    +0.000 A 
ATOM     14  C   LIG    1        2.090   2.508   0.975  0.00  0.00    +0.000 A 
ATOM     15  C   LIG    1        3.331   1.974   1.269  0.00  0.00    +0.004 A 
ATOM     16  C   LIG    1        3.946   1.118   0.375  0.00  0.00    -0.046 A 
ATOM     17  C   LIG    1        3.319   0.795  -0.814  0.00  0.00    +0.004 A 
ATOM     18  C   LIG    1        2.078   1.329  -1.109  0.00  0.00    +0.000 A 
ENDBRANCH  12  16
ENDBRANCH  11  12
ENDBRANCH   7  11
ENDBRANCH   1   9
BRANCH   6  19
ATOM     19  S   LIG    1        7.092  -2.157   5.161  0.00  0.00    +0.062 S 
ATOM     20  O   LIG    1        6.317  -1.321   4.312  0.00  0.00    -0.153 OA
ATOM     21  O   LIG    1        7.865  -1.642   6.237  0.00  0.00    -0.153 OA
BRANCH  19  22
ATOM     22  C   LIG    1        5.983  -3.336   5.856  0.00  0.00    +0.106 A 
ATOM     23  C   LIG    1        4.723  -3.504   5.314  0.00  0.00    +0.028 A 
ATOM     24  C   LIG    1        3.853  -4.429   5.859  0.00  0.00    +0.002 A 
ATOM     25  C   LIG    1        4.243  -5.187   6.947  0.00  0.00    +0.000 A 
ATOM     26  C   LIG    1        5.504  -5.020   7.489  0.00  0.00    +0.002 A 
ATOM     27  C   LIG    1        6.375  -4.098   6.941  0.00  0.00    +0.028 A 
ENDBRANCH  19  22
ENDBRANCH   6  19
TORSDOF 6
