REMARK  Name = ZINC09972269
REMARK                            x       y       z     vdW  Elec       q    Type
REMARK                         _______ _______ _______ _____ _____    ______ ____
ROOT
ATOM      1  C   LIG    1        2.482  -0.637   1.162  0.00  0.00    +0.064 C 
ATOM      2  C   LIG    1        1.207  -0.807   1.946  0.00  0.00    +0.034 A 
ATOM      3  C   LIG    1        1.227  -1.462   3.151  0.00  0.00    +0.085 A 
ATOM      4  C   LIG    1       -0.029  -1.623   3.900  0.00  0.00    +0.075 A 
ATOM      5  N   LIG    1        0.284  -2.311   5.046  0.00  0.00    -0.288 N 
ATOM      6  N   LIG    1        1.653  -2.595   5.071  0.00  0.00    -0.194 N 
ATOM      7  H   LIG    1       -0.350  -2.563   5.736  0.00  0.00    +0.188 HD
ATOM      8  C   LIG    1       -1.183  -1.100   3.359  0.00  0.00    +0.098 A 
ATOM      9  C   LIG    1       -1.113  -0.440   2.126  0.00  0.00    +0.254 A 
ATOM     10  O   LIG    1       -2.131   0.026   1.640  0.00  0.00    -0.268 OA
ATOM     11  C   LIG    1        2.260  -2.113   3.968  0.00  0.00    +0.283 A 
ATOM     12  O   LIG    1        3.442  -2.201   3.700  0.00  0.00    -0.265 OA
ATOM     13  N   LIG    1        0.049  -0.309   1.466  0.00  0.00    -0.307 N 
ENDROOT
BRANCH   6  14
ATOM     14  C   LIG    1        2.296  -3.278   6.089  0.00  0.00    +0.196 A 
ATOM     15  N   LIG    1        3.566  -3.593   6.194  0.00  0.00    -0.221 NA
ATOM     16  C   LIG    1        4.062  -4.265   7.256  0.00  0.00    +0.081 A 
ATOM     17  C   LIG    1        5.399  -4.660   7.493  0.00  0.00    +0.029 A 
ATOM     18  C   LIG    1        5.735  -5.348   8.629  0.00  0.00    +0.002 A 
ATOM     19  C   LIG    1        4.784  -5.682   9.583  0.00  0.00    +0.001 A 
ATOM     20  C   LIG    1        3.466  -5.311   9.384  0.00  0.00    +0.017 A 
ATOM     21  C   LIG    1        3.121  -4.622   8.249  0.00  0.00    +0.041 A 
ATOM     22  S   LIG    1        1.608  -3.962   7.590  0.00  0.00    -0.048 S 
ENDBRANCH   6  14
BRANCH  13  23
ATOM     23  C   LIG    1        0.059   0.391   0.179  0.00  0.00    +0.160 C 
BRANCH  23  24
ATOM     24  C   LIG    1        0.224   1.871   0.414  0.00  0.00    -0.028 A 
ATOM     25  C   LIG    1       -0.892   2.672   0.574  0.00  0.00    +0.006 A 
ATOM     26  C   LIG    1       -0.748   4.026   0.794  0.00  0.00    +0.015 A 
ATOM     27  C   LIG    1        0.529   4.589   0.843  0.00  0.00    +0.059 A 
ATOM     28  C   LIG    1        1.651   3.776   0.675  0.00  0.00    +0.015 A 
ATOM     29  C   LIG    1        1.492   2.422   0.462  0.00  0.00    +0.006 A 
BRANCH  27  30
ATOM     30  C   LIG    1        0.692   6.040   1.073  0.00  0.00    +0.337 C 
ATOM     31  O   LIG    1        1.804   6.527   1.116  0.00  0.00    -0.245 OA
BRANCH  30  32
ATOM     32  O   LIG    1       -0.393   6.822   1.235  0.00  0.00    -0.477 OA
ATOM     33  H   LIG    1       -1.251   6.446   1.202  0.00  0.00    +0.295 HD
ENDBRANCH  30  32
ENDBRANCH  27  30
ENDBRANCH  23  24
ENDBRANCH  13  23
TORSDOF 5
