REMARK  Name = ZINC08984029
REMARK                            x       y       z     vdW  Elec       q    Type
REMARK                         _______ _______ _______ _____ _____    ______ ____
ROOT
ATOM      1  C   LIG    1       -3.371  -2.467  -1.908  0.00  0.00    +0.028 C 
ATOM      2  C   LIG    1       -3.647  -2.563  -0.406  0.00  0.00    +0.081 C 
ATOM      3  C   LIG    1       -3.503  -1.178   0.238  0.00  0.00    +0.050 C 
ATOM      4  C   LIG    1       -3.851  -1.284   1.723  0.00  0.00    +0.115 C 
ATOM      5  C   LIG    1       -3.072  -2.400   2.368  0.00  0.00    -0.005 A 
ATOM      6  C   LIG    1       -2.906  -2.393   3.743  0.00  0.00    +0.007 A 
ATOM      7  C   LIG    1       -2.199  -3.404   4.365  0.00  0.00    +0.000 A 
ATOM      8  C   LIG    1       -1.652  -4.431   3.617  0.00  0.00    +0.002 A 
ATOM      9  C   LIG    1       -1.812  -4.445   2.247  0.00  0.00    +0.024 A 
ATOM     10  C   LIG    1       -2.522  -3.427   1.618  0.00  0.00    +0.042 A 
ATOM     11  N   LIG    1       -2.665  -3.455   0.225  0.00  0.00    -0.264 N 
ATOM     12  C   LIG    1       -1.915  -4.287  -0.524  0.00  0.00    +0.251 C 
ATOM     13  O   LIG    1       -2.214  -4.498  -1.684  0.00  0.00    -0.270 OA
ENDROOT
BRANCH  12  14
ATOM     14  C   LIG    1       -0.728  -4.944   0.063  0.00  0.00    +0.037 A 
ATOM     15  C   LIG    1        0.080  -4.252   0.967  0.00  0.00    +0.013 A 
ATOM     16  C   LIG    1        1.183  -4.872   1.516  0.00  0.00    +0.001 A 
ATOM     17  C   LIG    1        1.495  -6.173   1.164  0.00  0.00    +0.000 A 
ATOM     18  C   LIG    1        0.702  -6.863   0.265  0.00  0.00    +0.001 A 
ATOM     19  C   LIG    1       -0.407  -6.256  -0.287  0.00  0.00    +0.013 A 
ENDBRANCH  12  14
BRANCH   4  20
ATOM     20  N   LIG    1       -3.526  -0.020   2.388  0.00  0.00    -0.260 N 
ATOM     21  C   LIG    1       -2.247   0.401   2.447  0.00  0.00    +0.251 C 
ATOM     22  O   LIG    1       -1.372  -0.234   1.892  0.00  0.00    -0.270 OA
BRANCH  21  23
ATOM     23  C   LIG    1       -1.909   1.636   3.186  0.00  0.00    +0.037 A 
ATOM     24  C   LIG    1       -2.819   2.693   3.238  0.00  0.00    +0.013 A 
ATOM     25  C   LIG    1       -2.499   3.840   3.934  0.00  0.00    +0.001 A 
ATOM     26  C   LIG    1       -1.276   3.949   4.571  0.00  0.00    +0.000 A 
ATOM     27  C   LIG    1       -0.367   2.907   4.518  0.00  0.00    +0.001 A 
ATOM     28  C   LIG    1       -0.676   1.752   3.830  0.00  0.00    +0.013 A 
ENDBRANCH  21  23
BRANCH  20  29
ATOM     29  C   LIG    1       -4.543   0.750   2.961  0.00  0.00    +0.037 A 
ATOM     30  C   LIG    1       -4.521   1.030   4.322  0.00  0.00    +0.023 A 
ATOM     31  C   LIG    1       -5.524   1.795   4.884  0.00  0.00    +0.002 A 
ATOM     32  C   LIG    1       -6.555   2.272   4.096  0.00  0.00    +0.000 A 
ATOM     33  C   LIG    1       -6.583   1.991   2.742  0.00  0.00    +0.002 A 
ATOM     34  C   LIG    1       -5.580   1.231   2.173  0.00  0.00    +0.023 A 
ENDBRANCH  20  29
ENDBRANCH   4  20
TORSDOF 4
