REMARK  Name = ZINC12368744
REMARK                            x       y       z     vdW  Elec       q    Type
REMARK                         _______ _______ _______ _____ _____    ______ ____
ROOT
ATOM      1  N   LIG    1        7.417   3.505  -1.280  0.00  0.00    -0.226 NA
ATOM      2  C   LIG    1        7.944   4.008  -0.189  0.00  0.00    +0.161 C 
ATOM      3  N   LIG    1        7.360   4.149   1.052  0.00  0.00    -0.264 N 
ATOM      4  H   LIG    1        6.445   3.850   1.175  0.00  0.00    +0.157 HD
ATOM      5  C   LIG    1        8.004   4.672   2.082  0.00  0.00    +0.232 C 
ATOM      6  C   LIG    1        9.430   5.123   1.811  0.00  0.00    +0.149 C 
ATOM      7  O   LIG    1        7.487   4.789   3.173  0.00  0.00    -0.274 OA
ATOM      8  S   LIG    1        9.585   4.679   0.036  0.00  0.00    -0.077 S 
ENDROOT
BRANCH   1  11
ATOM      9  C   LIG    1        4.394   1.760  -0.202  0.00  0.00    +0.006 A 
ATOM     10  C   LIG    1        5.693   2.226  -0.213  0.00  0.00    +0.028 A 
ATOM     11  C   LIG    1        6.131   3.033  -1.265  0.00  0.00    +0.067 A 
ATOM     12  C   LIG    1        5.253   3.358  -2.301  0.00  0.00    +0.028 A 
ATOM     13  C   LIG    1        3.959   2.880  -2.279  0.00  0.00    +0.006 A 
ATOM     14  C   LIG    1        3.531   2.081  -1.234  0.00  0.00    -0.044 A 
BRANCH  14  15
ATOM     15  C   LIG    1        2.116   1.563  -1.216  0.00  0.00    +0.019 C 
ATOM     16  C   LIG    1        1.404   2.067   0.041  0.00  0.00    +0.008 C 
ATOM     17  C   LIG    1       -0.033   1.541   0.059  0.00  0.00    +0.001 C 
ATOM     18  C   LIG    1       -0.016   0.011   0.060  0.00  0.00    +0.000 C 
ATOM     19  C   LIG    1        0.696  -0.493  -1.197  0.00  0.00    +0.001 C 
ATOM     20  C   LIG    1        2.133   0.033  -1.215  0.00  0.00    +0.008 C 
ENDBRANCH  14  15
ENDBRANCH   1  11
BRANCH   6  21
ATOM     21  C   LIG    1       10.431   4.344   2.667  0.00  0.00    +0.120 C 
BRANCH  21  22
ATOM     22  C   LIG    1       11.832   4.778   2.321  0.00  0.00    +0.219 C 
ATOM     23  N   LIG    1       12.885   4.223   2.953  0.00  0.00    -0.285 N 
ATOM     24  H   LIG    1       12.739   3.593   3.677  0.00  0.00    +0.155 HD
ATOM     25  O   LIG    1       12.012   5.627   1.474  0.00  0.00    -0.275 OA
BRANCH  23  26
ATOM     26  C   LIG    1       14.190   4.554   2.566  0.00  0.00    +0.034 A 
ATOM     27  C   LIG    1       15.194   3.597   2.615  0.00  0.00    +0.027 A 
ATOM     28  C   LIG    1       16.478   3.923   2.228  0.00  0.00    +0.048 A 
ATOM     29  C   LIG    1       16.768   5.211   1.800  0.00  0.00    +0.130 A 
ATOM     30  C   LIG    1       15.767   6.169   1.755  0.00  0.00    +0.048 A 
ATOM     31  C   LIG    1       14.480   5.843   2.137  0.00  0.00    +0.027 A 
BRANCH  29  32
ATOM     32  O   LIG    1       18.035   5.533   1.424  0.00  0.00    -0.406 OA
BRANCH  32  33
ATOM     33  C   LIG    1       19.016   4.497   1.495  0.00  0.00    +0.575 C 
ATOM     34  F   LIG    1       19.119   4.042   2.814  0.00  0.00    -0.133 F 
ATOM     35  F   LIG    1       20.253   4.997   1.076  0.00  0.00    -0.133 F 
ATOM     36  F   LIG    1       18.636   3.436   0.665  0.00  0.00    -0.133 F 
ENDBRANCH  32  33
ENDBRANCH  29  32
ENDBRANCH  23  26
ENDBRANCH  21  22
ENDBRANCH   6  21
TORSDOF 7
