REMARK  Name = ZINC12504622
REMARK                            x       y       z     vdW  Elec       q    Type
REMARK                         _______ _______ _______ _____ _____    ______ ____
ROOT
ATOM      1  C   LIG    1       -1.187   1.624   0.017  0.00  0.00    +0.273 C 
ATOM      2  N   LIG    1       -0.011   0.966   0.007  0.00  0.00    -0.193 N 
ATOM      3  H   LIG    1        0.002  -0.004   0.002  0.00  0.00    +0.183 HD
ATOM      4  O   LIG    1       -1.204   2.841   0.023  0.00  0.00    -0.268 OA
ENDROOT
BRANCH   1   7
ATOM      5  C   LIG    1       -4.756   0.419   0.028  0.00  0.00    +0.008 A 
ATOM      6  C   LIG    1       -3.748   1.351   0.033  0.00  0.00    +0.021 A 
ATOM      7  C   LIG    1       -2.447   0.874   0.018  0.00  0.00    +0.076 A 
ATOM      8  S   LIG    1       -2.704  -0.892   0.011  0.00  0.00    -0.092 S 
ATOM      9  C   LIG    1       -4.438  -0.902   0.019  0.00  0.00    +0.046 A 
ENDBRANCH   1   7
BRANCH   2  10
ATOM     10  O   LIG    1        1.205   1.690  -0.000  0.00  0.00    -0.295 OA
ATOM     11  H   LIG    1        1.995   1.133  -0.011  0.00  0.00    +0.241 HD
ENDBRANCH   2  10
TORSDOF 2
