REMARK  Name = ZINC12395125
REMARK                            x       y       z     vdW  Elec       q    Type
REMARK                         _______ _______ _______ _____ _____    ______ ____
ROOT
ATOM      1  C   LIG    1       -3.929  -0.777  -0.429  0.00  0.00    +0.230 A 
ATOM      2  N   LIG    1       -2.822  -0.304   0.080  0.00  0.00    -0.202 NA
ATOM      3  C   LIG    1       -2.664   0.980  -0.341  0.00  0.00    +0.186 A 
ATOM      4  C   LIG    1       -3.747   1.271  -1.158  0.00  0.00    +0.217 A 
ATOM      5  O   LIG    1       -4.513   0.166  -1.194  0.00  0.00    -0.421 OA
ENDROOT
BRANCH   1  12
ATOM      6  C   LIG    1       -6.719  -1.139   0.246  0.00  0.00    +0.044 C 
ATOM      7  C   LIG    1       -5.800  -2.327   0.120  0.00  0.00    -0.038 A 
ATOM      8  C   LIG    1       -6.285  -3.602   0.327  0.00  0.00    +0.004 A 
ATOM      9  C   LIG    1       -5.443  -4.693   0.212  0.00  0.00    +0.000 A 
ATOM     10  C   LIG    1       -4.109  -4.514  -0.111  0.00  0.00    +0.001 A 
ATOM     11  C   LIG    1       -3.612  -3.246  -0.325  0.00  0.00    +0.013 A 
ATOM     12  C   LIG    1       -4.455  -2.140  -0.205  0.00  0.00    +0.040 A 
ENDBRANCH   1  12
BRANCH   3  13
ATOM     13  C   LIG    1       -1.558   1.881  -0.002  0.00  0.00    +0.265 C 
ATOM     14  N   LIG    1       -0.569   1.457   0.809  0.00  0.00    -0.324 N 
ATOM     15  H   LIG    1        0.165   2.052   1.030  0.00  0.00    +0.145 HD
ATOM     16  H   LIG    1       -0.588   0.557   1.168  0.00  0.00    +0.145 HD
ATOM     17  O   LIG    1       -1.534   3.011  -0.454  0.00  0.00    -0.269 OA
ENDBRANCH   3  13
BRANCH   4  18
ATOM     18  N   LIG    1       -3.991   2.460  -1.806  0.00  0.00    -0.327 N 
ATOM     19  H   LIG    1       -4.783   2.559  -2.356  0.00  0.00    +0.145 HD
ATOM     20  H   LIG    1       -3.370   3.200  -1.712  0.00  0.00    +0.145 HD
ENDBRANCH   4  18
TORSDOF 3
