REMARK  Name = ZINC12428943
REMARK                            x       y       z     vdW  Elec       q    Type
REMARK                         _______ _______ _______ _____ _____    ______ ____
ROOT
ATOM      1  C   LIG    1       -1.263  -0.762   0.011  0.00  0.00    +0.138 C 
ATOM      2  N   LIG    1       -1.242  -2.059   0.003  0.00  0.00    -0.188 NA
ENDROOT
BRANCH   1   9
ATOM      3  C   LIG    1       -0.017   1.393   0.010  0.00  0.00    +0.011 A 
ATOM      4  C   LIG    1        1.170   2.095   0.002  0.00  0.00    +0.020 A 
ATOM      5  C   LIG    1        2.378   1.419  -0.013  0.00  0.00    +0.041 A 
ATOM      6 CL   LIG    1        3.868   2.311  -0.024  0.00  0.00    -0.084 Cl
ATOM      7  C   LIG    1        2.404   0.035  -0.022  0.00  0.00    +0.020 A 
ATOM      8  C   LIG    1        1.225  -0.680  -0.014  0.00  0.00    +0.011 A 
ATOM      9  C   LIG    1        0.002  -0.004   0.002  0.00  0.00    -0.005 A 
ENDBRANCH   1   9
BRANCH   2  10
ATOM     10  N   LIG    1       -2.444  -2.779   0.011  0.00  0.00    -0.219 N 
ATOM     11  H   LIG    1       -3.292  -2.308   0.022  0.00  0.00    +0.176 HD
BRANCH  10  12
ATOM     12  C   LIG    1       -2.422  -4.144   0.004  0.00  0.00    +0.146 C 
ATOM     13  N   LIG    1       -3.452  -4.981   0.004  0.00  0.00    -0.267 N 
ATOM     14  H   LIG    1       -4.344  -4.599   0.011  0.00  0.00    +0.157 HD
ATOM     15  C   LIG    1       -3.347  -6.281  -0.004  0.00  0.00    +0.229 C 
ATOM     16  C   LIG    1       -1.922  -6.821  -0.014  0.00  0.00    +0.173 C 
ATOM     17  O   LIG    1       -4.319  -7.012  -0.003  0.00  0.00    -0.275 OA
ATOM     18  S   LIG    1       -0.999  -5.226  -0.017  0.00  0.00    -0.084 S 
ENDBRANCH  10  12
ENDBRANCH   2  10
TORSDOF 3
