REMARK  Name = ZINC12494489
REMARK                            x       y       z     vdW  Elec       q    Type
REMARK                         _______ _______ _______ _____ _____    ______ ____
ROOT
ATOM      1  C   LIG    1        0.274  -0.588   1.071  0.00  0.00    -0.002 C 
ATOM      2  C   LIG    1        0.341  -2.126   1.019  0.00  0.00    +0.005 C 
ATOM      3  C   LIG    1        1.836  -2.506   1.106  0.00  0.00    +0.009 C 
ATOM      4  C   LIG    1        2.564  -1.241   0.610  0.00  0.00    +0.021 C 
ATOM      5  C   LIG    1        3.988  -1.213   1.071  0.00  0.00    -0.066 C 
ATOM      6  C   LIG    1        4.975  -1.403   0.196  0.00  0.00    -0.000 C 
ATOM      7  C   LIG    1        4.291  -0.954   2.543  0.00  0.00    +0.031 C 
ATOM      8  C   LIG    1        3.502   0.291   2.972  0.00  0.00    +0.005 C 
ATOM      9  C   LIG    1        2.019   0.040   2.716  0.00  0.00    +0.008 C 
ATOM     10  C   LIG    1        1.734  -0.090   1.219  0.00  0.00    -0.022 C 
ATOM     11  C   LIG    1        1.960   1.225   0.470  0.00  0.00    +0.012 C 
ENDROOT
BRANCH   6  12
ATOM     12  C   LIG    1        6.359  -1.506   0.664  0.00  0.00    +0.004 C 
ATOM     13  C   LIG    1        7.366  -1.611  -0.227  0.00  0.00    -0.042 C 
ATOM     14  C   LIG    1        8.811  -1.726   0.216  0.00  0.00    +0.066 C 
ATOM     15  C   LIG    1        9.651  -0.756  -0.619  0.00  0.00    +0.119 C 
ATOM     16  C   LIG    1        9.488  -1.076  -2.106  0.00  0.00    +0.036 C 
ATOM     17  C   LIG    1        8.047  -0.791  -2.543  0.00  0.00    +0.037 C 
ATOM     18  C   LIG    1        7.114  -1.627  -1.683  0.00  0.00    -0.051 C 
ATOM     19  C   LIG    1        6.117  -2.336  -2.212  0.00  0.00    +0.012 C 
BRANCH  15  20
ATOM     20  O   LIG    1       11.027  -0.884  -0.256  0.00  0.00    -0.391 OA
ATOM     21  H   LIG    1       11.208  -0.691   0.674  0.00  0.00    +0.210 HD
ENDBRANCH  15  20
ENDBRANCH   6  12
BRANCH   1  23
ATOM     22  C   LIG    1       -1.821  -0.411  -0.278  0.00  0.00    +0.008 C 
ATOM     23  C   LIG    1       -0.337  -0.045  -0.222  0.00  0.00    -0.010 C 
BRANCH  23  24
ATOM     24  C   LIG    1        0.385  -0.658  -1.424  0.00  0.00    +0.003 C 
BRANCH  24  25
ATOM     25  C   LIG    1       -0.166  -0.048  -2.715  0.00  0.00    +0.001 C 
BRANCH  25  26
ATOM     26  C   LIG    1        0.555  -0.661  -3.917  0.00  0.00    +0.003 C 
BRANCH  26  27
ATOM     27  C   LIG    1        0.005  -0.051  -5.207  0.00  0.00    -0.017 C 
ATOM     28  C   LIG    1       -1.464  -0.447  -5.372  0.00  0.00    +0.007 C 
ATOM     29  C   LIG    1        0.809  -0.571  -6.401  0.00  0.00    +0.007 C 
ENDBRANCH  26  27
ENDBRANCH  25  26
ENDBRANCH  24  25
ENDBRANCH  23  24
ENDBRANCH   1  23
TORSDOF 7
