REMARK  Name = ZINC12525125
REMARK                            x       y       z     vdW  Elec       q    Type
REMARK                         _______ _______ _______ _____ _____    ______ ____
ROOT
ATOM      1  C   LIG    1        1.171   1.783   0.001  0.00  0.00    +0.002 A 
ATOM      2  C   LIG    1        1.155   3.167   0.008  0.00  0.00    +0.005 A 
ATOM      3  C   LIG    1       -0.048   3.850   0.023  0.00  0.00    -0.027 A 
ATOM      4  C   LIG    1       -1.240   3.155   0.031  0.00  0.00    +0.024 A 
ATOM      5  C   LIG    1       -1.230   1.759   0.017  0.00  0.00    +0.052 A 
ATOM      6  C   LIG    1       -0.013   1.076   0.008  0.00  0.00    +0.019 A 
ENDROOT
BRANCH   5   7
ATOM      7  C   LIG    1       -2.464   1.031   0.019  0.00  0.00    +0.099 C 
ATOM      8  N   LIG    1       -3.442   0.454   0.021  0.00  0.00    -0.191 NA
ENDBRANCH   5   7
BRANCH   3   9
ATOM      9  C   LIG    1       -0.057   5.357   0.032  0.00  0.00    +0.157 C 
BRANCH   9  10
ATOM     10  N   LIG    1       -0.073   5.853  -1.347  0.00  0.00    -0.332 N 
ATOM     11  C   LIG    1        1.020   6.139  -2.120  0.00  0.00    +0.107 A 
ATOM     12  C   LIG    1        0.555   6.561  -3.311  0.00  0.00    +0.130 A 
ATOM     13  N   LIG    1       -0.785   6.541  -3.264  0.00  0.00    -0.244 NA
ATOM     14  C   LIG    1       -1.168   6.119  -2.090  0.00  0.00    +0.199 A 
ENDBRANCH   9  10
ENDBRANCH   3   9
TORSDOF 3
