REMARK  Name = ZINC12080555
REMARK                            x       y       z     vdW  Elec       q    Type
REMARK                         _______ _______ _______ _____ _____    ______ ____
ROOT
ATOM      1  C   LIG    1        1.236   2.269  -0.206  0.00  0.00    +0.130 A 
ATOM      2  C   LIG    1        0.009   1.634  -0.155  0.00  0.00    +0.046 A 
ATOM      3  C   LIG    1       -0.069   0.252  -0.055  0.00  0.00    +0.004 A 
ATOM      4  C   LIG    1        1.073  -0.517  -0.004  0.00  0.00    +0.014 A 
ATOM      5  C   LIG    1        2.323   0.099  -0.052  0.00  0.00    +0.050 A 
ATOM      6  C   LIG    1        3.571  -0.672  -0.001  0.00  0.00    +0.260 A 
ATOM      7  O   LIG    1        3.541  -1.886   0.087  0.00  0.00    -0.267 OA
ATOM      8  N   LIG    1        4.749  -0.021  -0.053  0.00  0.00    -0.306 N 
ATOM      9  C   LIG    1        4.827   1.340  -0.152  0.00  0.00    +0.090 A 
ATOM     10  C   LIG    1        3.735   2.121  -0.204  0.00  0.00    +0.030 A 
ATOM     11  C   LIG    1        2.408   1.506  -0.154  0.00  0.00    +0.030 A 
ENDROOT
BRANCH   1  12
ATOM     12  O   LIG    1        1.303   3.623  -0.304  0.00  0.00    -0.477 OA
BRANCH  12  13
ATOM     13  C   LIG    1        0.068   4.339  -0.253  0.00  0.00    +0.278 C 
ATOM     14  C   LIG    1       -0.331   4.564   1.206  0.00  0.00    +0.064 C 
BRANCH  13  15
ATOM     15  C   LIG    1        0.230   5.670  -0.941  0.00  0.00    +0.348 C 
ATOM     16  O   LIG    1        1.295   5.974  -1.425  0.00  0.00    -0.247 OA
BRANCH  15  17
ATOM     17  O   LIG    1       -0.808   6.518  -1.016  0.00  0.00    -0.462 OA
BRANCH  17  19
ATOM     18  C   LIG    1       -1.866   8.609  -1.678  0.00  0.00    +0.048 C 
ATOM     19  C   LIG    1       -0.579   7.782  -1.692  0.00  0.00    +0.229 C 
ENDBRANCH  17  19
ENDBRANCH  15  17
ENDBRANCH  13  15
ENDBRANCH  12  13
ENDBRANCH   1  12
BRANCH   8  20
ATOM     20  C   LIG    1        5.990  -0.798  -0.001  0.00  0.00    +0.220 C 
BRANCH  20  21
ATOM     21  C   LIG    1        6.410  -1.167  -1.401  0.00  0.00    +0.237 C 
ATOM     22  N   LIG    1        7.531  -1.888  -1.599  0.00  0.00    -0.284 N 
ATOM     23  H   LIG    1        8.100  -2.117  -0.848  0.00  0.00    +0.155 HD
ATOM     24  O   LIG    1        5.739  -0.815  -2.348  0.00  0.00    -0.274 OA
BRANCH  22  25
ATOM     25  C   LIG    1        7.875  -2.306  -2.890  0.00  0.00    +0.034 A 
ATOM     26  C   LIG    1        8.495  -3.533  -3.082  0.00  0.00    +0.025 A 
ATOM     27  C   LIG    1        8.829  -3.944  -4.358  0.00  0.00    +0.034 A 
ATOM     28  C   LIG    1        8.554  -3.131  -5.442  0.00  0.00    +0.122 A 
ATOM     29  C   LIG    1        7.941  -1.907  -5.254  0.00  0.00    +0.034 A 
ATOM     30  C   LIG    1        7.600  -1.492  -3.981  0.00  0.00    +0.025 A 
BRANCH  28  31
ATOM     31  N   LIG    1        8.917  -3.573  -6.807  0.00  0.00    +0.006 N 
ATOM     32  O   LIG    1        8.676  -2.858  -7.763  0.00  0.00    -0.130 OA
BRANCH  31  33
ATOM     33  O   LIG    1        9.458  -4.652  -6.974  0.00  0.00    -0.396 OA
ATOM     34  H   LIG    1        9.644  -5.202  -6.239  0.00  0.00    +0.329 HD
ENDBRANCH  31  33
ENDBRANCH  28  31
ENDBRANCH  22  25
ENDBRANCH  20  21
ENDBRANCH   8  20
TORSDOF 10
