REMARK  Name = ZINC11617039
REMARK                            x       y       z     vdW  Elec       q    Type
REMARK                         _______ _______ _______ _____ _____    ______ ____
ROOT
ATOM      1  C   LIG    1       -3.656   3.016   0.545  0.00  0.00    +0.145 C 
ATOM      2  C   LIG    1       -3.477   1.639   0.698  0.00  0.00    +0.053 C 
ATOM      3  C   LIG    1       -4.571   0.811   0.545  0.00  0.00    +0.087 C 
ATOM      4  N   LIG    1       -5.751   1.342   0.259  0.00  0.00    -0.286 NA
ATOM      5  H   LIG    1       -6.522   0.764   0.151  0.00  0.00    +0.125 HD
ATOM      6  C   LIG    1       -5.893   2.652   0.120  0.00  0.00    +0.213 C 
ATOM      7  N   LIG    1       -4.869   3.481   0.264  0.00  0.00    -0.268 NA
ATOM      8  H   LIG    1       -4.787   3.998  -0.611  0.00  0.00    +0.127 HD
ENDROOT
BRANCH   1   9
ATOM      9  N   LIG    1       -2.586   3.885   0.691  0.00  0.00    -0.317 N 
ATOM     10  C   LIG    1       -1.830   4.320  -0.486  0.00  0.00    +0.131 C 
BRANCH   9  13
ATOM     11  C   LIG    1       -0.681   5.606   3.310  0.00  0.00    +0.013 A 
ATOM     12  C   LIG    1       -1.074   5.131   2.103  0.00  0.00    +0.024 A 
ATOM     13  C   LIG    1       -2.229   4.347   1.961  0.00  0.00    +0.033 A 
ATOM     14  C   LIG    1       -3.011   4.026   3.029  0.00  0.00    +0.053 A 
ATOM     15  C   LIG    1       -2.658   4.488   4.314  0.00  0.00    +0.095 A 
ATOM     16  N   LIG    1       -3.179   4.363   5.521  0.00  0.00    -0.171 NA
ATOM     17  N   LIG    1       -2.370   5.042   6.439  0.00  0.00    -0.270 N 
ATOM     18  C   LIG    1       -2.623   5.128   7.880  0.00  0.00    +0.172 C 
ATOM     19  C   LIG    1       -1.337   5.611   5.804  0.00  0.00    +0.044 A 
ATOM     20  C   LIG    1       -0.249   6.436   6.442  0.00  0.00    +0.066 C 
ATOM     21  C   LIG    1       -1.443   5.306   4.460  0.00  0.00    +0.023 A 
ENDBRANCH   9  13
ENDBRANCH   1   9
BRANCH   6  22
ATOM     22  N   LIG    1       -7.143   3.168  -0.179  0.00  0.00    -0.316 N 
ATOM     23  H   LIG    1       -7.915   2.582  -0.207  0.00  0.00    +0.149 HD
BRANCH  22  24
ATOM     24  C   LIG    1       -7.291   4.534  -0.440  0.00  0.00    +0.031 A 
ATOM     25  C   LIG    1       -6.270   5.238  -1.065  0.00  0.00    +0.023 A 
ATOM     26  C   LIG    1       -6.420   6.587  -1.321  0.00  0.00    +0.007 A 
ATOM     27  C   LIG    1       -7.585   7.236  -0.956  0.00  0.00    -0.024 A 
ATOM     28  C   LIG    1       -7.745   8.708  -1.237  0.00  0.00    +0.046 C 
ATOM     29  C   LIG    1       -8.603   6.538  -0.334  0.00  0.00    +0.110 A 
ATOM     30  C   LIG    1       -8.462   5.188  -0.080  0.00  0.00    +0.051 A 
BRANCH  29  31
ATOM     31  S   LIG    1      -10.086   7.370   0.129  0.00  0.00    +0.056 S 
ATOM     32  O   LIG    1      -10.914   6.404   0.761  0.00  0.00    -0.153 OA
ATOM     33  O   LIG    1      -10.509   8.109  -1.008  0.00  0.00    -0.153 OA
BRANCH  31  34
ATOM     34  N   LIG    1       -9.682   8.480   1.291  0.00  0.00    -0.204 NA
ATOM     35  H   LIG    1      -10.367   9.046   1.680  0.00  0.00    +0.144 HD
ATOM     36  H   LIG    1       -8.760   8.563   1.582  0.00  0.00    +0.144 HD
ENDBRANCH  31  34
ENDBRANCH  29  31
ENDBRANCH  22  24
ENDBRANCH   6  22
TORSDOF 6
