REMARK  Name = ZINC12355027
REMARK                            x       y       z     vdW  Elec       q    Type
REMARK                         _______ _______ _______ _____ _____    ______ ____
ROOT
ATOM      1  N   LIG    1       -1.134   3.329   0.337  0.00  0.00    -0.167 NA
ATOM      2  C   LIG    1       -0.006   4.005  -0.327  0.00  0.00    +0.129 C 
ATOM      3  C   LIG    1        1.287   3.307   0.098  0.00  0.00    +0.125 C 
ATOM      4  N   LIG    1        1.149   1.861   0.001  0.00  0.00    -0.293 N 
ATOM      5  C   LIG    1       -0.014   1.209   0.009  0.00  0.00    +0.232 C 
ATOM      6  O   LIG    1        0.002  -0.004   0.002  0.00  0.00    -0.274 OA
ATOM      7  C   LIG    1       -1.346   1.908   0.019  0.00  0.00    +0.205 C 
ENDROOT
BRANCH   1   8
ATOM      8  S   LIG    1       -2.122   4.137   1.392  0.00  0.00    +0.055 S 
ATOM      9  O   LIG    1       -1.371   5.234   1.894  0.00  0.00    -0.153 OA
ATOM     10  O   LIG    1       -2.697   3.155   2.242  0.00  0.00    -0.153 OA
BRANCH   8  12
ATOM     11  C   LIG    1       -4.685   4.400   0.643  0.00  0.00    +0.028 C 
ATOM     12  C   LIG    1       -3.443   4.822   0.448  0.00  0.00    +0.153 C 
BRANCH  11  19
ATOM     13  C   LIG    1       -5.535   5.965  -1.098  0.00  0.00    +0.009 A 
ATOM     14  C   LIG    1       -6.573   6.494  -1.838  0.00  0.00    +0.020 A 
ATOM     15  C   LIG    1       -7.869   6.051  -1.633  0.00  0.00    +0.041 A 
ATOM     16 CL   LIG    1       -9.170   6.726  -2.563  0.00  0.00    -0.084 Cl
ATOM     17  C   LIG    1       -8.131   5.073  -0.689  0.00  0.00    +0.020 A 
ATOM     18  C   LIG    1       -7.101   4.533   0.053  0.00  0.00    +0.009 A 
ATOM     19  C   LIG    1       -5.793   4.975  -0.149  0.00  0.00    -0.024 A 
ENDBRANCH  11  19
ENDBRANCH   8  12
ENDBRANCH   1   8
BRANCH   4  20
ATOM     20  C   LIG    1        2.375   1.066  -0.113  0.00  0.00    +0.161 C 
BRANCH  20  21
ATOM     21  C   LIG    1        2.729   0.894  -1.567  0.00  0.00    +0.035 A 
ATOM     22  C   LIG    1        3.586   1.672  -2.249  0.00  0.00    +0.034 A 
ATOM     23  C   LIG    1        3.634   1.156  -3.617  0.00  0.00    +0.018 A 
ATOM     24  C   LIG    1        4.314   1.511  -4.780  0.00  0.00    +0.120 A 
ATOM     25  N   LIG    1        4.133   0.819  -5.886  0.00  0.00    -0.263 NA
ATOM     26  C   LIG    1        3.316  -0.221  -5.942  0.00  0.00    +0.113 A 
ATOM     27  C   LIG    1        2.609  -0.637  -4.848  0.00  0.00    +0.046 A 
ATOM     28  C   LIG    1        2.756   0.052  -3.646  0.00  0.00    +0.050 A 
ATOM     29  N   LIG    1        2.229  -0.081  -2.388  0.00  0.00    -0.357 N 
ATOM     30  H   LIG    1        1.595  -0.764  -2.120  0.00  0.00    +0.166 HD
ENDBRANCH  20  21
ENDBRANCH   4  20
TORSDOF 5
