REMARK  Name = ZINC12650594
REMARK                            x       y       z     vdW  Elec       q    Type
REMARK                         _______ _______ _______ _____ _____    ______ ____
ROOT
ATOM      1  C   LIG    1       -0.983   1.800  -1.026  0.00  0.00    +0.101 C 
ENDROOT
BRANCH   1   2
ATOM      2  C   LIG    1       -1.167   3.275  -0.775  0.00  0.00    +0.308 C 
ATOM      3  O   LIG    1       -0.649   3.793   0.186  0.00  0.00    -0.251 OA
BRANCH   2   4
ATOM      4  O   LIG    1       -1.905   4.012  -1.619  0.00  0.00    -0.480 OA
ATOM      5  H   LIG    1       -2.306   3.610  -2.364  0.00  0.00    +0.295 HD
ENDBRANCH   2   4
ENDBRANCH   1   2
BRANCH   1   6
ATOM      6  C   LIG    1        0.347   1.567  -1.746  0.00  0.00    +0.049 C 
BRANCH   6  12
ATOM      7  C   LIG    1       -0.148   1.468  -4.197  0.00  0.00    +0.004 A 
ATOM      8  C   LIG    1       -0.199   2.051  -5.450  0.00  0.00    +0.012 A 
ATOM      9  C   LIG    1        0.203   3.362  -5.619  0.00  0.00    +0.055 A 
ATOM     10  C   LIG    1        0.653   4.093  -4.535  0.00  0.00    +0.012 A 
ATOM     11  C   LIG    1        0.699   3.512  -3.282  0.00  0.00    +0.004 A 
ATOM     12  C   LIG    1        0.296   2.200  -3.112  0.00  0.00    -0.047 A 
BRANCH   9  13
ATOM     13  C   LIG    1        0.152   3.996  -6.986  0.00  0.00    +0.417 C 
ATOM     14  F   LIG    1       -0.074   5.370  -6.854  0.00  0.00    -0.166 F 
ATOM     15  F   LIG    1       -0.886   3.422  -7.727  0.00  0.00    -0.166 F 
ATOM     16  F   LIG    1        1.368   3.784  -7.644  0.00  0.00    -0.166 F 
ENDBRANCH   9  13
ENDBRANCH   6  12
ENDBRANCH   1   6
BRANCH   1  17
ATOM     17  C   LIG    1       -0.978   1.052   0.309  0.00  0.00    +0.010 C 
BRANCH  17  18
ATOM     18  CA  LIG    1       -0.941  -0.455   0.049  0.00  0.00    +0.037 C 
BRANCH  18  19
ATOM     19  N   LIG    1       -2.173  -0.852  -0.654  0.00  0.00    +0.387 N 
ATOM     20  H1  LIG    1       -2.205  -0.386  -1.569  0.00  0.00    -0.089 HD
ATOM     21  H2  LIG    1       -2.990  -0.574  -0.112  0.00  0.00    -0.089 HD
ATOM     22  H3  LIG    1       -2.186  -1.861  -0.794  0.00  0.00    -0.089 HD
ENDBRANCH  18  19
BRANCH  18  23
ATOM     23  C   LIG    1       -0.824  -1.188   1.361  0.00  0.00    +0.290 C 
ATOM     24  O   LIG    1       -1.805  -1.678   1.868  0.00  0.00    -0.253 OA
BRANCH  23  25
ATOM     25  OXT LIG    1        0.369  -1.296   1.965  0.00  0.00    -0.482 OA
ATOM     26  HXT LIG    1        1.130  -0.917   1.572  0.00  0.00    +0.295 HD
ENDBRANCH  23  25
ENDBRANCH  18  23
ENDBRANCH  17  18
ENDBRANCH   1  17
TORSDOF 10
