REMARK  Name = ZINC10332406
REMARK                            x       y       z     vdW  Elec       q    Type
REMARK                         _______ _______ _______ _____ _____    ______ ____
ROOT
ATOM      1  C   LIG    1       -0.013   1.086   0.008  0.00  0.00    +0.044 C 
ENDROOT
BRANCH   1   5
ATOM      2  C   LIG    1       -2.012   2.463   3.523  0.00  0.00    -0.045 A 
ATOM      3  C   LIG    1       -2.366   1.254   2.955  0.00  0.00    +0.004 A 
ATOM      4  C   LIG    1       -1.719   0.808   1.818  0.00  0.00    +0.004 A 
ATOM      5  C   LIG    1       -0.718   1.572   1.248  0.00  0.00    -0.047 A 
ATOM      6  C   LIG    1       -0.360   2.779   1.819  0.00  0.00    +0.004 A 
ATOM      7  C   LIG    1       -1.010   3.227   2.953  0.00  0.00    +0.004 A 
BRANCH   2   9
ATOM      8  C   LIG    1       -1.702   3.127   5.892  0.00  0.00    +0.012 C 
ATOM      9  C   LIG    1       -2.718   2.950   4.762  0.00  0.00    +0.013 C 
ATOM     10  C   LIG    1       -3.395   4.290   4.470  0.00  0.00    +0.012 C 
ENDBRANCH   2   9
ENDBRANCH   1   5
BRANCH   1  11
ATOM     11  C   LIG    1       -0.753   1.593  -1.232  0.00  0.00    +0.100 C 
BRANCH  11  12
ATOM     12  C   LIG    1       -0.047   1.107  -2.471  0.00  0.00    +0.216 C 
ATOM     13  N   LIG    1       -0.524   1.433  -3.689  0.00  0.00    -0.297 N 
ATOM     14  C   LIG    1       -1.734   2.256  -3.833  0.00  0.00    +0.136 C 
ATOM     15  C   LIG    1       -1.418   3.407  -4.802  0.00  0.00    +0.179 C 
ATOM     16  O   LIG    1       -0.871   2.868  -6.008  0.00  0.00    -0.377 OA
ATOM     17  C   LIG    1        0.369   2.179  -5.830  0.00  0.00    +0.179 C 
ATOM     18  C   LIG    1        0.148   0.970  -4.914  0.00  0.00    +0.136 C 
ATOM     19  O   LIG    1        0.949   0.422  -2.373  0.00  0.00    -0.276 OA
ENDBRANCH  11  12
ENDBRANCH   1  11
TORSDOF 4
