REMARK  Name = ZINC12650844
REMARK                            x       y       z     vdW  Elec       q    Type
REMARK                         _______ _______ _______ _____ _____    ______ ____
ROOT
ATOM      1  C   LIG    1       -0.048   3.830   0.018  0.00  0.00    +0.123 A 
ATOM      2  C   LIG    1        1.162   3.156   0.007  0.00  0.00    +0.046 A 
ATOM      3  C   LIG    1        1.177   1.775   0.000  0.00  0.00    +0.004 A 
ATOM      4  C   LIG    1       -0.013   1.076   0.008  0.00  0.00    +0.004 A 
ATOM      5  C   LIG    1       -1.229   1.747   0.017  0.00  0.00    -0.041 A 
ATOM      6  C   LIG    1       -2.486   0.918   0.044  0.00  0.00    +0.034 C 
ATOM      7  C   LIG    1       -3.691   1.759  -0.373  0.00  0.00    -0.011 C 
ATOM      8  C   LIG    1       -3.701   3.041   0.468  0.00  0.00    -0.070 C 
ATOM      9  C   LIG    1       -2.529   3.916   0.028  0.00  0.00    +0.023 C 
ATOM     10  C   LIG    1       -1.249   3.123   0.024  0.00  0.00    -0.004 A 
ENDROOT
BRANCH   8  11
ATOM     11  N   LIG    1       -4.963   3.765   0.231  0.00  0.00    +0.380 N 
ATOM     12  H   LIG    1       -5.060   3.954  -0.773  0.00  0.00    -0.090 HD
ATOM     13  H   LIG    1       -4.958   4.649   0.737  0.00  0.00    -0.090 HD
ATOM     14  H   LIG    1       -5.753   3.201   0.541  0.00  0.00    -0.090 HD
ENDBRANCH   8  11
BRANCH   1  16
ATOM     15  C   LIG    1        1.201   5.853   0.016  0.00  0.00    +0.277 C 
ATOM     16  O   LIG    1       -0.064   5.189   0.022  0.00  0.00    -0.495 OA
ENDBRANCH   1  16
TORSDOF 2
