REMARK  Name = ZINC12360440
REMARK                            x       y       z     vdW  Elec       q    Type
REMARK                         _______ _______ _______ _____ _____    ______ ____
ROOT
ATOM      1  N   LIG    1        2.985  -3.922   0.178  0.00  0.00    -0.015 NA
ATOM      2  C   LIG    1        4.223  -4.263  -0.052  0.00  0.00    +0.328 C 
ATOM      3  C   LIG    1        4.772  -5.664  -0.241  0.00  0.00    +0.197 C 
ATOM      4  C   LIG    1        6.252  -5.444  -0.472  0.00  0.00    +0.178 C 
ATOM      5  N   LIG    1        6.467  -4.163  -0.419  0.00  0.00    -0.081 NA
ATOM      6  N   LIG    1        5.308  -3.431  -0.181  0.00  0.00    -0.060 N 
ENDROOT
BRANCH   1  13
ATOM      7  C   LIG    1        1.298   1.705  -1.248  0.00  0.00    +0.002 A 
ATOM      8  C   LIG    1        1.347   2.132   0.072  0.00  0.00    +0.001 A 
ATOM      9  C   LIG    1        1.710   1.236   1.061  0.00  0.00    +0.017 A 
ATOM     10  C   LIG    1        2.015  -0.059   0.720  0.00  0.00    +0.043 A 
ATOM     11  C   LIG    1        1.974  -0.524  -0.616  0.00  0.00    +0.083 A 
ATOM     12  N   LIG    1        2.300  -1.819  -0.794  0.00  0.00    -0.199 NA
ATOM     13  C   LIG    1        2.636  -2.608   0.207  0.00  0.00    +0.308 A 
ATOM     14  S   LIG    1        2.516  -1.510   1.613  0.00  0.00    -0.020 S 
ATOM     15  C   LIG    1        1.598   0.426  -1.596  0.00  0.00    +0.029 A 
ENDBRANCH   1  13
BRANCH   6  16
ATOM     16  C   LIG    1        5.255  -2.036  -0.083  0.00  0.00    +0.149 A 
ATOM     17  C   LIG    1        5.435  -1.418   1.148  0.00  0.00    +0.053 A 
ATOM     18  C   LIG    1        5.383  -0.041   1.242  0.00  0.00    +0.033 A 
ATOM     19  C   LIG    1        5.151   0.722   0.112  0.00  0.00    +0.117 A 
ATOM     20  C   LIG    1        4.971   0.110  -1.115  0.00  0.00    +0.033 A 
ATOM     21  C   LIG    1        5.028  -1.266  -1.216  0.00  0.00    +0.053 A 
BRANCH  19  22
ATOM     22  S   LIG    1        5.084   2.478   0.236  0.00  0.00    +0.110 S 
ATOM     23  O   LIG    1        4.465   2.788   1.515  0.00  0.00    -0.142 OA
ATOM     24  O   LIG    1        4.284   2.951  -0.883  0.00  0.00    -0.142 OA
BRANCH  22  25
ATOM     25  O   LIG    1        6.455   2.959   0.165  0.00  0.00    -0.250 OA
ATOM     26  H   LIG    1        6.833   2.735  -0.700  0.00  0.00    +0.245 HD
ENDBRANCH  22  25
ENDBRANCH  19  22
ENDBRANCH   6  16
BRANCH   4  27
ATOM     27  C   LIG    1        7.224  -6.450  -0.704  0.00  0.00    +0.355 C 
ATOM     28  O   LIG    1        8.396  -6.141  -0.877  0.00  0.00    -0.244 OA
BRANCH  27  29
ATOM     29  O   LIG    1        6.892  -7.629  -0.729  0.00  0.00    -0.476 OA
ATOM     30  H   LIG    1        5.995  -7.866  -0.596  0.00  0.00    +0.295 HD
ENDBRANCH  27  29
ENDBRANCH   4  27
TORSDOF 6
