REMARK  Name = ZINC12339635
REMARK                            x       y       z     vdW  Elec       q    Type
REMARK                         _______ _______ _______ _____ _____    ______ ____
ROOT
ATOM      1  C   LIG    1       -1.112   2.292   0.020  0.00  0.00    +0.021 C 
ATOM      2  C   LIG    1       -0.037   1.501  -0.263  0.00  0.00    +0.046 C 
ATOM      3  C   LIG    1        0.021   0.021  -0.251  0.00  0.00    +0.008 A 
ATOM      4  C   LIG    1       -0.916  -0.967   0.032  0.00  0.00    +0.010 A 
ATOM      5  C   LIG    1       -0.553  -2.296  -0.046  0.00  0.00    +0.001 A 
ATOM      6  C   LIG    1        0.739  -2.644  -0.404  0.00  0.00    +0.002 A 
ATOM      7  C   LIG    1        1.676  -1.671  -0.686  0.00  0.00    +0.024 A 
ATOM      8  C   LIG    1        1.329  -0.326  -0.614  0.00  0.00    +0.042 A 
ATOM      9  N   LIG    1        2.063   0.832  -0.843  0.00  0.00    -0.281 N 
ATOM     10  H   LIG    1        2.997   0.844  -1.106  0.00  0.00    +0.155 HD
ATOM     11  C   LIG    1        1.316   1.933  -0.653  0.00  0.00    +0.249 C 
ATOM     12  O   LIG    1        1.691   3.084  -0.781  0.00  0.00    -0.270 OA
ENDROOT
BRANCH   1  16
ATOM     13  C   LIG    1       -0.624   6.484   0.360  0.00  0.00    +0.120 A 
ATOM     14  C   LIG    1       -1.764   5.966  -0.245  0.00  0.00    +0.046 A 
ATOM     15  C   LIG    1       -1.928   4.609  -0.358  0.00  0.00    +0.011 A 
ATOM     16  C   LIG    1       -0.943   3.744   0.138  0.00  0.00    -0.024 A 
ATOM     17  C   LIG    1        0.201   4.271   0.751  0.00  0.00    +0.011 A 
ATOM     18  C   LIG    1        0.357   5.630   0.853  0.00  0.00    +0.046 A 
BRANCH  13  20
ATOM     19  C   LIG    1        0.727   8.292   1.102  0.00  0.00    +0.277 C 
ATOM     20  O   LIG    1       -0.468   7.827   0.469  0.00  0.00    -0.495 OA
ENDBRANCH  13  20
ENDBRANCH   1  16
TORSDOF 2
