REMARK  Name = ZINC09136136
REMARK                            x       y       z     vdW  Elec       q    Type
REMARK                         _______ _______ _______ _____ _____    ______ ____
ROOT
ATOM      1  C   LIG    1        4.994  -2.739  -0.061  0.00  0.00    +0.134 A 
ATOM      2  N   LIG    1        4.981  -4.110  -0.074  0.00  0.00    -0.307 N 
ATOM      3  C   LIG    1        6.143  -4.805  -0.090  0.00  0.00    +0.259 A 
ATOM      4  C   LIG    1        7.395  -4.035  -0.092  0.00  0.00    +0.065 A 
ATOM      5  C   LIG    1        8.641  -4.659  -0.108  0.00  0.00    +0.015 A 
ATOM      6  C   LIG    1        9.784  -3.889  -0.110  0.00  0.00    +0.001 A 
ATOM      7  C   LIG    1        9.702  -2.502  -0.096  0.00  0.00    +0.002 A 
ATOM      8  C   LIG    1        8.492  -1.869  -0.079  0.00  0.00    +0.028 A 
ATOM      9  C   LIG    1        7.313  -2.623  -0.078  0.00  0.00    +0.078 A 
ATOM     10  O   LIG    1        6.150  -6.022  -0.102  0.00  0.00    -0.267 OA
ATOM     11  H   LIG    1        4.136  -4.585  -0.072  0.00  0.00    +0.170 HD
ATOM     12  N   LIG    1        6.102  -2.035  -0.068  0.00  0.00    -0.230 NA
ENDROOT
BRANCH   1  14
ATOM     13  C   LIG    1        3.692  -0.680  -0.037  0.00  0.00    +0.011 C 
ATOM     14  C   LIG    1        3.714  -2.027  -0.045  0.00  0.00    +0.047 C 
BRANCH  13  18
ATOM     15  C   LIG    1       -0.017   1.380   0.010  0.00  0.00    +0.000 A 
ATOM     16  C   LIG    1        1.168   2.095   0.002  0.00  0.00    +0.001 A 
ATOM     17  C   LIG    1        2.377   1.433  -0.013  0.00  0.00    +0.008 A 
ATOM     18  C   LIG    1        2.405   0.035  -0.021  0.00  0.00    -0.025 A 
ATOM     19  C   LIG    1        1.204  -0.681  -0.013  0.00  0.00    +0.008 A 
ATOM     20  C   LIG    1        0.002  -0.004   0.002  0.00  0.00    +0.001 A 
ENDBRANCH  13  18
ENDBRANCH   1  14
TORSDOF 2
