REMARK  Name = ZINC12504456
REMARK                            x       y       z     vdW  Elec       q    Type
REMARK                         _______ _______ _______ _____ _____    ______ ____
ROOT
ATOM      1  C   LIG    1        0.648  -0.007   3.656  0.00  0.00    +0.219 A 
ATOM      2  N   LIG    1        1.958  -0.216   3.702  0.00  0.00    -0.197 NA
ATOM      3  C   LIG    1        2.632  -0.102   4.841  0.00  0.00    +0.152 A 
ATOM      4  C   LIG    1        1.928   0.248   6.007  0.00  0.00    +0.148 A 
ATOM      5  C   LIG    1        0.543   0.459   5.910  0.00  0.00    +0.167 A 
ATOM      6  N   LIG    1        0.120   0.782   7.175  0.00  0.00    -0.312 N 
ATOM      7  C   LIG    1        1.214   0.762   7.989  0.00  0.00    +0.201 A 
ATOM      8  N   LIG    1        2.274   0.449   7.302  0.00  0.00    -0.231 NA
ATOM      9  N   LIG    1       -0.051   0.328   4.728  0.00  0.00    -0.195 NA
ENDROOT
BRANCH   6  10
ATOM     10  C   LIG    1       -1.254   1.092   7.576  0.00  0.00    +0.084 C 
ATOM     11  C   LIG    1       -1.310   2.507   8.155  0.00  0.00    +0.030 C 
ATOM     12  C   LIG    1       -1.714   0.089   8.636  0.00  0.00    +0.030 C 
ENDBRANCH   6  10
BRANCH   1  13
ATOM     13  N   LIG    1       -0.008  -0.140   2.444  0.00  0.00    -0.308 N 
ATOM     14  H   LIG    1       -0.965   0.013   2.391  0.00  0.00    +0.149 HD
BRANCH  13  15
ATOM     15  CA  LIG    1        0.742  -0.511   1.242  0.00  0.00    +0.098 C 
BRANCH  15  17
ATOM     16  C   LIG    1       -0.019   1.526   0.010  0.00  0.00    +0.006 C 
ATOM     17  C   LIG    1        0.002  -0.004   0.002  0.00  0.00    +0.021 C 
ENDBRANCH  15  17
BRANCH  15  18
ATOM     18  C   LIG    1        0.872  -2.034   1.171  0.00  0.00    +0.178 C 
BRANCH  18  19
ATOM     19  O   LIG    1       -0.423  -2.615   1.003  0.00  0.00    -0.393 OA
ATOM     20  H   LIG    1       -0.416  -3.580   0.950  0.00  0.00    +0.209 HD
ENDBRANCH  18  19
ENDBRANCH  15  18
ENDBRANCH  13  15
ENDBRANCH   1  13
BRANCH   3  21
ATOM     21  N   LIG    1        3.997  -0.322   4.879  0.00  0.00    -0.323 N 
ATOM     22  H   LIG    1        4.479  -0.235   5.716  0.00  0.00    +0.148 HD
BRANCH  21  23
ATOM     23  C   LIG    1        4.715  -0.686   3.655  0.00  0.00    +0.142 C 
BRANCH  23  24
ATOM     24  C   LIG    1        6.178  -0.868   3.966  0.00  0.00    +0.011 A 
ATOM     25  C   LIG    1        7.076   0.145   3.687  0.00  0.00    +0.009 A 
ATOM     26  C   LIG    1        8.418  -0.021   3.972  0.00  0.00    +0.001 A 
ATOM     27  C   LIG    1        8.867  -1.201   4.536  0.00  0.00    +0.004 A 
ATOM     28  C   LIG    1        7.973  -2.217   4.818  0.00  0.00    +0.046 A 
ATOM     29  C   LIG    1        6.625  -2.050   4.538  0.00  0.00    +0.122 A 
BRANCH  29  30
ATOM     30  O   LIG    1        5.743  -3.046   4.819  0.00  0.00    -0.506 OA
ATOM     31  H   LIG    1        5.616  -3.674   4.095  0.00  0.00    +0.292 HD
ENDBRANCH  29  30
ENDBRANCH  23  24
ENDBRANCH  21  23
ENDBRANCH   3  21
TORSDOF 10
