REMARK  Name = ZINC12466741
REMARK                            x       y       z     vdW  Elec       q    Type
REMARK                         _______ _______ _______ _____ _____    ______ ____
ROOT
ATOM      1  C   LIG    1       -2.601   0.679   3.929  0.00  0.00    +0.162 C 
ENDROOT
BRANCH   1   7
ATOM      2  C   LIG    1        1.004  -1.491   0.209  0.00  0.00    +0.007 C 
ATOM      3  C   LIG    1        0.259  -2.416   1.173  0.00  0.00    -0.010 C 
ATOM      4  C   LIG    1       -1.214  -2.008   1.237  0.00  0.00    +0.022 C 
ATOM      5  C   LIG    1       -1.317  -0.551   1.699  0.00  0.00    +0.109 C 
ATOM      6  N   LIG    1       -0.595  -0.406   2.971  0.00  0.00    -0.287 N 
ATOM      7  C   LIG    1       -1.204   0.127   4.049  0.00  0.00    +0.235 C 
ATOM      8  O   LIG    1       -0.627   0.162   5.115  0.00  0.00    -0.274 OA
ATOM      9  C   LIG    1        0.802  -0.853   3.045  0.00  0.00    +0.185 C 
ATOM     10  C   LIG    1        0.881  -2.307   2.568  0.00  0.00    +0.037 C 
BRANCH   9  11
ATOM     11  C   LIG    1        1.288  -0.759   4.468  0.00  0.00    +0.325 C 
ATOM     12  O   LIG    1        0.660  -1.297   5.364  0.00  0.00    -0.249 OA
BRANCH  11  13
ATOM     13  O   LIG    1        2.310  -0.144   4.724  0.00  0.00    -0.479 OA
ATOM     14  H   LIG    1        2.793   0.270   4.036  0.00  0.00    +0.295 HD
ENDBRANCH  11  13
ENDBRANCH   9  11
ENDBRANCH   1   7
BRANCH   1  15
ATOM     15  N   LIG    1       -3.191   0.808   5.264  0.00  0.00    -0.178 NA
ATOM     16  H   LIG    1       -3.030   1.607   5.790  0.00  0.00    +0.149 HD
BRANCH  15  17
ATOM     17  S   LIG    1       -4.132  -0.410   5.875  0.00  0.00    +0.061 S 
ATOM     18  O   LIG    1       -4.559   0.013   7.162  0.00  0.00    -0.153 OA
ATOM     19  O   LIG    1       -3.415  -1.619   5.670  0.00  0.00    -0.153 OA
BRANCH  17  20
ATOM     20  C   LIG    1       -5.577  -0.505   4.871  0.00  0.00    +0.126 A 
ATOM     21  C   LIG    1       -5.818  -1.634   4.113  0.00  0.00    +0.030 A 
ATOM     22  C   LIG    1       -6.952  -1.706   3.326  0.00  0.00    +0.002 A 
ATOM     23  C   LIG    1       -7.844  -0.651   3.293  0.00  0.00    +0.005 A 
ATOM     24  C   LIG    1       -7.609   0.485   4.049  0.00  0.00    -0.024 A 
ATOM     25  C   LIG    1       -8.598   1.619   3.986  0.00  0.00    +0.041 C 
ATOM     26  C   LIG    1       -8.468   2.509   5.228  0.00  0.00    +0.007 C 
ATOM     27  C   LIG    1       -9.323   3.765   5.050  0.00  0.00    +0.009 C 
ATOM     28  C   LIG    1       -6.995   2.909   5.388  0.00  0.00    +0.105 C 
ATOM     29  N   LIG    1       -6.221   1.684   5.632  0.00  0.00    -0.342 N 
ATOM     30  H   LIG    1       -5.544   1.659   6.326  0.00  0.00    +0.146 HD
ATOM     31  C   LIG    1       -6.477   0.555   4.846  0.00  0.00    +0.057 A 
ENDBRANCH  17  20
ENDBRANCH  15  17
ENDBRANCH   1  15
BRANCH   1  32
ATOM     32  C   LIG    1       -2.550   2.053   3.259  0.00  0.00    +0.033 C 
BRANCH  32  33
ATOM     33  C   LIG    1       -3.975   2.546   2.999  0.00  0.00    +0.039 C 
BRANCH  33  34
ATOM     34  C   LIG    1       -3.925   3.921   2.328  0.00  0.00    +0.196 C 
BRANCH  34  35
ATOM     35  N   LIG    1       -5.289   4.393   2.079  0.00  0.00    -0.279 N 
ATOM     36  H   LIG    1       -6.047   3.845   2.337  0.00  0.00    +0.258 HD
ATOM     37  C   LIG    1       -5.485   5.550   1.512  0.00  0.00    +0.341 C 
BRANCH  37  38
ATOM     38  N   LIG    1       -6.765   5.993   1.278  0.00  0.00    -0.292 N 
ATOM     39  H   LIG    1       -6.911   6.854   0.856  0.00  0.00    +0.255 HD
ATOM     40  H   LIG    1       -7.523   5.445   1.536  0.00  0.00    +0.255 HD
ENDBRANCH  37  38
BRANCH  37  41
ATOM     41  N   LIG    1       -4.411   6.327   1.147  0.00  0.00    -0.292 N 
ATOM     42  H   LIG    1       -4.557   7.188   0.725  0.00  0.00    +0.255 HD
ATOM     43  H   LIG    1       -3.508   6.014   1.312  0.00  0.00    +0.255 HD
ENDBRANCH  37  41
ENDBRANCH  34  35
ENDBRANCH  33  34
ENDBRANCH  32  33
ENDBRANCH   1  32
TORSDOF 12
