REMARK  Name = ZINC11677088
REMARK                            x       y       z     vdW  Elec       q    Type
REMARK                         _______ _______ _______ _____ _____    ______ ____
ROOT
ATOM      1  C   LIG    1       -0.018   1.503   0.010  0.00  0.00    +0.051 C 
ATOM      2  C   LIG    1        0.002  -0.004   0.002  0.00  0.00    +0.030 A 
ATOM      3  C   LIG    1       -1.153  -0.704   0.004  0.00  0.00    +0.101 A 
ATOM      4  N   LIG    1       -1.116  -2.072  -0.004  0.00  0.00    -0.274 N 
ATOM      5  C   LIG    1        0.060  -2.726  -0.013  0.00  0.00    +0.331 A 
ATOM      6  N   LIG    1        1.226  -2.053  -0.015  0.00  0.00    -0.275 N 
ATOM      7  H   LIG    1        2.064  -2.540  -0.022  0.00  0.00    +0.173 HD
ATOM      8  O   LIG    1        0.069  -3.942  -0.019  0.00  0.00    -0.246 OA
ATOM      9  C   LIG    1        1.232  -0.705  -0.013  0.00  0.00    +0.257 A 
ATOM     10  O   LIG    1        2.287  -0.095  -0.021  0.00  0.00    -0.267 OA
ENDROOT
BRANCH   4  11
ATOM     11  C   LIG    1       -2.369  -2.831  -0.002  0.00  0.00    +0.227 C 
ATOM     12  C   LIG    1       -2.499  -3.656  -1.301  0.00  0.00    +0.094 C 
ATOM     13  C   LIG    1       -3.160  -4.976  -0.844  0.00  0.00    +0.201 C 
ATOM     14  F   LIG    1       -2.320  -6.063  -1.107  0.00  0.00    -0.243 F 
ATOM     15  C   LIG    1       -3.351  -4.791   0.678  0.00  0.00    +0.180 C 
ATOM     16  O   LIG    1       -2.362  -3.810   1.060  0.00  0.00    -0.348 OA
BRANCH  15  17
ATOM     17  C   LIG    1       -3.106  -6.112   1.410  0.00  0.00    +0.190 C 
BRANCH  17  18
ATOM     18  O   LIG    1       -3.400  -5.950   2.799  0.00  0.00    -0.392 OA
ATOM     19  H   LIG    1       -3.266  -6.750   3.325  0.00  0.00    +0.210 HD
ENDBRANCH  17  18
ENDBRANCH  15  17
ENDBRANCH   4  11
TORSDOF 3
