REMARK  Name = ZINC12381018
REMARK                            x       y       z     vdW  Elec       q    Type
REMARK                         _______ _______ _______ _____ _____    ______ ____
ROOT
ATOM      1  CA  LIG    1        3.651  -1.164  -1.852  0.00  0.00    +0.100 C 
ATOM      2  C   LIG    1        3.443  -1.464  -3.162  0.00  0.00    +0.074 C 
ENDROOT
BRANCH   2   3
ATOM      3  C   LIG    1        2.202  -1.157  -3.771  0.00  0.00    +0.130 A 
ATOM      4  C   LIG    1        1.822  -1.490  -5.054  0.00  0.00    +0.049 A 
ATOM      5  C   LIG    1        0.522  -0.988  -5.229  0.00  0.00    +0.042 A 
ATOM      6  C   LIG    1        0.169  -0.383  -4.074  0.00  0.00    +0.195 A 
ATOM      7  O   LIG    1        1.179  -0.491  -3.197  0.00  0.00    -0.463 OA
ENDBRANCH   2   3
BRANCH   1  10
ATOM      8  N   LIG    1        2.321   0.711  -1.042  0.00  0.00    -0.297 N 
ATOM      9  H   LIG    1        2.833   1.296  -1.622  0.00  0.00    +0.150 HD
ATOM     10  C   LIG    1        2.558  -0.616  -1.044  0.00  0.00    +0.259 C 
ATOM     11  O   LIG    1        1.864  -1.359  -0.375  0.00  0.00    -0.269 OA
BRANCH   8  13
ATOM     12  CB  LIG    1        1.894   1.559   1.212  0.00  0.00    +0.040 C 
ATOM     13  CA  LIG    1        1.290   1.269  -0.164  0.00  0.00    +0.179 C 
BRANCH  13  14
ATOM     14  C   LIG    1        0.762   2.549  -0.760  0.00  0.00    +0.325 C 
ATOM     15  O   LIG    1        1.413   3.143  -1.602  0.00  0.00    -0.249 OA
BRANCH  14  16
ATOM     16  OXT LIG    1       -0.316   2.990  -0.400  0.00  0.00    -0.479 OA
ATOM     17  HXT LIG    1       -0.817   2.533   0.247  0.00  0.00    +0.295 HD
ENDBRANCH  14  16
ENDBRANCH  13  14
ENDBRANCH   8  13
ENDBRANCH   1  10
BRANCH   1  18
ATOM     18  N   LIG    1        4.908  -1.379  -1.276  0.00  0.00    -0.275 N 
ATOM     19  H   LIG    1        5.646  -1.687  -1.823  0.00  0.00    +0.155 HD
ATOM     20  C   LIG    1        5.092  -1.156   0.041  0.00  0.00    +0.284 C 
ATOM     21  O   LIG    1        4.147  -0.853   0.745  0.00  0.00    -0.266 OA
BRANCH  20  22
ATOM     22  C   LIG    1        6.432  -1.279   0.625  0.00  0.00    +0.189 A 
ATOM     23  C   LIG    1        6.756  -1.087   1.937  0.00  0.00    +0.054 A 
ATOM     24  C   LIG    1        8.137  -1.308   2.048  0.00  0.00    +0.042 A 
ATOM     25  C   LIG    1        8.591  -1.620   0.814  0.00  0.00    +0.196 A 
ATOM     26  O   LIG    1        7.559  -1.607  -0.040  0.00  0.00    -0.458 OA
ENDBRANCH  20  22
ENDBRANCH   1  18
TORSDOF 7
