REMARK  Name = ZINC12405570
REMARK                            x       y       z     vdW  Elec       q    Type
REMARK                         _______ _______ _______ _____ _____    ______ ____
ROOT
ATOM      1  N   LIG    1       -4.705  -2.756  -4.471  0.00  0.00    -0.285 N 
ATOM      2  C   LIG    1       -3.654  -2.124  -5.065  0.00  0.00    +0.203 A 
ATOM      3  N   LIG    1       -2.847  -1.654  -4.158  0.00  0.00    -0.231 NA
ATOM      4  C   LIG    1       -3.331  -1.949  -2.928  0.00  0.00    +0.147 A 
ATOM      5  C   LIG    1       -2.897  -1.713  -1.612  0.00  0.00    +0.150 A 
ATOM      6  N   LIG    1       -3.641  -2.167  -0.609  0.00  0.00    -0.219 NA
ATOM      7  C   LIG    1       -4.760  -2.831  -0.833  0.00  0.00    +0.225 A 
ATOM      8  N   LIG    1       -5.203  -3.080  -2.048  0.00  0.00    -0.216 NA
ATOM      9  C   LIG    1       -4.526  -2.665  -3.114  0.00  0.00    +0.167 A 
ENDROOT
BRANCH   1  13
ATOM     10  C   LIG    1       -6.692  -3.926  -7.217  0.00  0.00    +0.237 C 
ATOM     11  C   LIG    1       -7.590  -2.778  -6.705  0.00  0.00    +0.185 C 
ATOM     12  C   LIG    1       -7.005  -2.433  -5.316  0.00  0.00    +0.196 C 
ATOM     13  C   LIG    1       -5.822  -3.413  -5.155  0.00  0.00    +0.254 C 
ATOM     14  O   LIG    1       -5.446  -3.765  -6.505  0.00  0.00    -0.339 OA
BRANCH  10  17
ATOM     15  N   LIG    1       -7.494  -3.989  -9.556  0.00  0.00    -0.313 N 
ATOM     16  H   LIG    1       -8.375  -4.207  -9.215  0.00  0.00    +0.149 HD
ATOM     17  C   LIG    1       -6.469  -3.799  -8.701  0.00  0.00    +0.245 C 
ATOM     18  O   LIG    1       -5.367  -3.526  -9.127  0.00  0.00    -0.273 OA
BRANCH  15  20
ATOM     19  C   LIG    1       -8.591  -4.126 -11.738  0.00  0.00    +0.024 C 
ATOM     20  C   LIG    1       -7.276  -3.865 -11.000  0.00  0.00    +0.101 C 
ENDBRANCH  15  20
ENDBRANCH  10  17
BRANCH  11  21
ATOM     21  O   LIG    1       -8.944  -3.218  -6.581  0.00  0.00    -0.386 OA
ATOM     22  H   LIG    1       -9.342  -3.505  -7.415  0.00  0.00    +0.210 HD
ENDBRANCH  11  21
BRANCH  12  23
ATOM     23  O   LIG    1       -7.978  -2.652  -4.292  0.00  0.00    -0.385 OA
ATOM     24  H   LIG    1       -8.744  -2.063  -4.345  0.00  0.00    +0.210 HD
ENDBRANCH  12  23
ENDBRANCH   1  13
BRANCH   5  25
ATOM     25  N   LIG    1       -1.726  -1.018  -1.367  0.00  0.00    -0.323 N 
ATOM     26  H   LIG    1       -0.957  -1.505  -1.780  0.00  0.00    +0.148 HD
BRANCH  25  27
ATOM     27  C   LIG    1       -1.293  -0.775   0.011  0.00  0.00    +0.138 C 
BRANCH  27  28
ATOM     28  C   LIG    1        0.002  -0.004   0.002  0.00  0.00    -0.030 A 
ATOM     29  C   LIG    1       -0.017   1.378   0.010  0.00  0.00    +0.005 A 
ATOM     30  C   LIG    1        1.171   2.086   0.002  0.00  0.00    +0.000 A 
ATOM     31  C   LIG    1        2.377   1.411  -0.015  0.00  0.00    +0.000 A 
ATOM     32  C   LIG    1        2.396   0.029  -0.022  0.00  0.00    +0.000 A 
ATOM     33  C   LIG    1        1.208  -0.679  -0.013  0.00  0.00    +0.005 A 
ENDBRANCH  27  28
ENDBRANCH  25  27
ENDBRANCH   5  25
TORSDOF 8
