REMARK  Name = ZINC12428439
REMARK                            x       y       z     vdW  Elec       q    Type
REMARK                         _______ _______ _______ _____ _____    ______ ____
ROOT
ATOM      1  C   LIG    1        3.692  -0.690  -0.038  0.00  0.00    +0.142 C 
ATOM      2  N   LIG    1        4.806  -0.025  -0.046  0.00  0.00    -0.188 NA
ENDROOT
BRANCH   1   6
ATOM      3  C   LIG    1       -0.017   1.381   0.010  0.00  0.00    +0.019 A 
ATOM      4  C   LIG    1        1.166   2.096   0.002  0.00  0.00    +0.047 A 
ATOM      5  C   LIG    1        2.381   1.430  -0.013  0.00  0.00    +0.126 A 
ATOM      6  C   LIG    1        2.405   0.028  -0.021  0.00  0.00    +0.037 A 
ATOM      7  C   LIG    1        1.204  -0.683  -0.013  0.00  0.00    +0.028 A 
ATOM      8  C   LIG    1        0.002  -0.004   0.002  0.00  0.00    +0.019 A 
ATOM      9 BR   LIG    1       -1.625  -0.968   0.012  0.00  0.00    -0.050 Br
BRANCH   5  10
ATOM     10  O   LIG    1        3.543   2.132  -0.022  0.00  0.00    -0.506 OA
ATOM     11  H   LIG    1        3.889   2.331   0.859  0.00  0.00    +0.292 HD
ENDBRANCH   5  10
ENDBRANCH   1   6
BRANCH   2  12
ATOM     12  N   LIG    1        6.029  -0.708  -0.062  0.00  0.00    -0.219 N 
ATOM     13  H   LIG    1        6.043  -1.678  -0.068  0.00  0.00    +0.176 HD
BRANCH  12  14
ATOM     14  C   LIG    1        7.201  -0.009  -0.071  0.00  0.00    +0.146 C 
ATOM     15  N   LIG    1        8.440  -0.485  -0.091  0.00  0.00    -0.267 N 
ATOM     16  H   LIG    1        8.554  -1.448  -0.102  0.00  0.00    +0.157 HD
ATOM     17  C   LIG    1        9.515   0.254  -0.098  0.00  0.00    +0.229 C 
ATOM     18  C   LIG    1        9.272   1.758  -0.080  0.00  0.00    +0.173 C 
ATOM     19  O   LIG    1       10.633  -0.224  -0.118  0.00  0.00    -0.275 OA
ATOM     20  S   LIG    1        7.430   1.764  -0.064  0.00  0.00    -0.084 S 
ENDBRANCH  12  14
ENDBRANCH   2  12
TORSDOF 4
