REMARK  Name = ZINC09435021
REMARK                            x       y       z     vdW  Elec       q    Type
REMARK                         _______ _______ _______ _____ _____    ______ ____
ROOT
ATOM      1  C   LIG    1        1.197  -4.651   3.638  0.00  0.00    +0.166 C 
ENDROOT
BRANCH   1   2
ATOM      2  C   LIG    1        2.489  -3.935   3.937  0.00  0.00    -0.007 A 
ATOM      3  C   LIG    1        3.254  -3.428   2.902  0.00  0.00    +0.007 A 
ATOM      4  C   LIG    1        4.439  -2.771   3.176  0.00  0.00    +0.000 A 
ATOM      5  C   LIG    1        4.859  -2.620   4.484  0.00  0.00    +0.000 A 
ATOM      6  C   LIG    1        4.094  -3.126   5.519  0.00  0.00    +0.000 A 
ATOM      7  C   LIG    1        2.907  -3.779   5.245  0.00  0.00    +0.007 A 
ENDBRANCH   1   2
BRANCH   1   8
ATOM      8  C   LIG    1        1.468  -6.123   3.462  0.00  0.00    -0.007 A 
ATOM      9  C   LIG    1        1.773  -6.624   2.210  0.00  0.00    +0.007 A 
ATOM     10  C   LIG    1        2.022  -7.974   2.048  0.00  0.00    +0.000 A 
ATOM     11  C   LIG    1        1.966  -8.823   3.138  0.00  0.00    +0.000 A 
ATOM     12  C   LIG    1        1.662  -8.322   4.390  0.00  0.00    +0.000 A 
ATOM     13  C   LIG    1        1.418  -6.971   4.552  0.00  0.00    +0.007 A 
ENDBRANCH   1   8
BRANCH   1  14
ATOM     14  O   LIG    1        0.286  -4.461   4.723  0.00  0.00    -0.363 OA
ATOM     15  C   LIG    1       -0.045  -3.093   4.971  0.00  0.00    +0.195 C 
ENDBRANCH   1  14
BRANCH   1  16
ATOM     16  C   LIG    1        0.587  -4.087   2.354  0.00  0.00    +0.325 C 
BRANCH  16  17
ATOM     17  C   LIG    1       -0.769  -4.705   2.129  0.00  0.00    +0.350 C 
ATOM     18  O   LIG    1       -0.865  -5.900   1.902  0.00  0.00    -0.247 OA
BRANCH  17  19
ATOM     19  O   LIG    1       -1.771  -4.012   2.173  0.00  0.00    -0.478 OA
ATOM     20  H   LIG    1       -1.697  -3.094   2.348  0.00  0.00    +0.295 HD
ENDBRANCH  17  19
ENDBRANCH  16  17
BRANCH  16  21
ATOM     21  O   LIG    1        0.450  -2.670   2.474  0.00  0.00    -0.444 OA
BRANCH  21  27
ATOM     22  C   LIG    1        0.355   1.608   0.377  0.00  0.00    +0.066 C 
ATOM     23  C   LIG    1        0.494   0.110   0.298  0.00  0.00    +0.045 A 
ATOM     24  C   LIG    1        0.707  -0.513  -0.922  0.00  0.00    +0.043 A 
ATOM     25  C   LIG    1        0.829  -1.893  -0.948  0.00  0.00    +0.118 A 
ATOM     26  N   LIG    1        0.740  -2.570   0.185  0.00  0.00    -0.203 NA
ATOM     27  C   LIG    1        0.536  -1.945   1.333  0.00  0.00    +0.319 A 
ATOM     28  N   LIG    1        0.421  -0.628   1.394  0.00  0.00    -0.200 NA
ENDBRANCH  21  27
ENDBRANCH  16  21
ENDBRANCH   1  16
TORSDOF 8
