REMARK  Name = ZINC09272405
REMARK                            x       y       z     vdW  Elec       q    Type
REMARK                         _______ _______ _______ _____ _____    ______ ____
ROOT
ATOM      1  C   LIG    1        3.782   3.549  -0.829  0.00  0.00    +0.086 C 
ATOM      2  C   LIG    1        4.683   3.060  -1.970  0.00  0.00    +0.031 C 
ATOM      3  C   LIG    1        5.181   1.646  -1.663  0.00  0.00    +0.011 C 
ATOM      4  C   LIG    1        3.875   3.048  -3.267  0.00  0.00    +0.107 C 
ATOM      5  C   LIG    1        3.199   4.377  -3.479  0.00  0.00    -0.006 A 
ATOM      6  C   LIG    1        2.788   4.723  -4.756  0.00  0.00    +0.007 A 
ATOM      7  C   LIG    1        2.166   5.935  -4.983  0.00  0.00    +0.000 A 
ATOM      8  C   LIG    1        1.938   6.807  -3.934  0.00  0.00    +0.002 A 
ATOM      9  C   LIG    1        2.345   6.470  -2.659  0.00  0.00    +0.024 A 
ATOM     10  C   LIG    1        2.978   5.253  -2.429  0.00  0.00    +0.042 A 
ATOM     11  N   LIG    1        3.389   4.933  -1.128  0.00  0.00    -0.264 N 
ATOM     12  C   LIG    1        3.423   5.878  -0.168  0.00  0.00    +0.251 C 
ATOM     13  O   LIG    1        4.117   5.719   0.817  0.00  0.00    -0.270 OA
ENDROOT
BRANCH  12  14
ATOM     14  C   LIG    1        2.615   7.107  -0.312  0.00  0.00    +0.037 A 
ATOM     15  C   LIG    1        1.224   7.047  -0.222  0.00  0.00    +0.014 A 
ATOM     16  C   LIG    1        0.476   8.198  -0.351  0.00  0.00    +0.016 A 
ATOM     17  C   LIG    1        1.103   9.411  -0.583  0.00  0.00    +0.018 A 
ATOM     18 BR   LIG    1        0.070  10.984  -0.768  0.00  0.00    -0.050 Br
ATOM     19  C   LIG    1        2.483   9.477  -0.680  0.00  0.00    +0.016 A 
ATOM     20  C   LIG    1        3.241   8.333  -0.546  0.00  0.00    +0.014 A 
ENDBRANCH  12  14
BRANCH   1  22
ATOM     21  C   LIG    1        3.566   3.627   1.659  0.00  0.00    +0.006 C 
ATOM     22  C   LIG    1        4.550   3.503   0.494  0.00  0.00    +0.020 C 
ENDBRANCH   1  22
BRANCH   4  23
ATOM     23  N   LIG    1        4.772   2.777  -4.393  0.00  0.00    -0.337 N 
ATOM     24  H   LIG    1        5.713   3.006  -4.329  0.00  0.00    +0.147 HD
BRANCH  23  25
ATOM     25  C   LIG    1        4.274   2.189  -5.558  0.00  0.00    +0.028 A 
ATOM     26  C   LIG    1        2.929   1.855  -5.648  0.00  0.00    +0.023 A 
ATOM     27  C   LIG    1        2.438   1.278  -6.803  0.00  0.00    +0.002 A 
ATOM     28  C   LIG    1        3.287   1.023  -7.864  0.00  0.00    +0.000 A 
ATOM     29  C   LIG    1        4.628   1.349  -7.776  0.00  0.00    +0.002 A 
ATOM     30  C   LIG    1        5.124   1.931  -6.626  0.00  0.00    +0.023 A 
ENDBRANCH  23  25
ENDBRANCH   4  23
TORSDOF 4
