REMARK  Name = ZINC11974813
REMARK                            x       y       z     vdW  Elec       q    Type
REMARK                         _______ _______ _______ _____ _____    ______ ____
ROOT
ATOM      1  N   ILE A  1       -1.191   1.869   0.018  0.00  0.00    -0.272 N 
ATOM      2  H   ILE A  1       -1.204   2.839   0.023  0.00  0.00    +0.153 HD
ATOM      3  C   UNK A  0       -0.014   1.211   0.009  0.00  0.00    +0.401 C 
ATOM      4  O   UNK A  0        0.002  -0.004   0.002  0.00  0.00    -0.226 OA
ENDROOT
BRANCH   1   5
ATOM      5  CA  ILE A  1       -2.449   1.119   0.020  0.00  0.00    +0.142 C 
BRANCH   5   6
ATOM      6  CB  ILE A  1       -3.554   1.978   0.639  0.00  0.00    +0.013 C 
ATOM      7  CG2 ILE A  1       -3.810   3.197  -0.249  0.00  0.00    +0.010 C 
BRANCH   6   9
ATOM      8  CD1 ILE A  1       -5.904   1.970   1.488  0.00  0.00    +0.004 C 
ATOM      9  CG1 ILE A  1       -4.837   1.153   0.756  0.00  0.00    +0.002 C 
ENDBRANCH   6   9
ENDBRANCH   5   6
BRANCH   5  10
ATOM     10  C   ILE A  1       -2.824   0.763  -1.396  0.00  0.00    +0.245 C 
ATOM     11  O   ILE A  1       -2.113   1.101  -2.312  0.00  0.00    -0.299 OA
ENDBRANCH   5  10
ENDBRANCH   1   5
BRANCH   3  12
ATOM     12  O   UNK A  0        1.142   1.900   0.001  0.00  0.00    -0.445 OA
BRANCH  12  13
ATOM     13  C   UNK A  0        2.371   1.126  -0.015  0.00  0.00    +0.107 C 
ATOM     14  C   UNK A  0        2.429   0.237   1.229  0.00  0.00    +0.055 C 
ATOM     15  C   UNK A  0        3.571   2.074  -0.021  0.00  0.00    +0.055 C 
ATOM     16  C   UNK A  0        2.405   0.250  -1.269  0.00  0.00    +0.055 C 
ENDBRANCH  12  13
ENDBRANCH   3  12
TORSDOF 6
