REMARK  Name = ZINC12404136
REMARK                            x       y       z     vdW  Elec       q    Type
REMARK                         _______ _______ _______ _____ _____    ______ ____
ROOT
ATOM      1  C   LIG    1       -3.390  -0.862   0.622  0.00  0.00    +0.003 A 
ATOM      2  C   LIG    1       -2.213  -0.173   0.828  0.00  0.00    +0.013 A 
ATOM      3  C   LIG    1       -1.007  -0.868   0.936  0.00  0.00    +0.039 A 
ATOM      4  C   LIG    1       -0.999  -2.260   0.846  0.00  0.00    +0.036 A 
ATOM      5  C   LIG    1       -2.188  -2.943   0.645  0.00  0.00    +0.035 A 
ATOM      6  C   LIG    1       -3.383  -2.241   0.533  0.00  0.00    +0.023 A 
ENDROOT
BRANCH   3   7
ATOM      7  C   LIG    1        0.257  -0.131   1.152  0.00  0.00    +0.247 C 
ATOM      8  N   LIG    1        0.318   0.846   2.078  0.00  0.00    -0.293 N 
ATOM      9  C   LIG    1       -0.887   1.278   2.804  0.00  0.00    +0.136 C 
ATOM     10  C   LIG    1       -0.569   1.270   4.308  0.00  0.00    +0.179 C 
ATOM     11  O   LIG    1        0.618   2.031   4.540  0.00  0.00    -0.377 OA
ATOM     12  C   LIG    1        1.786   1.501   3.909  0.00  0.00    +0.179 C 
ATOM     13  C   LIG    1        1.590   1.517   2.389  0.00  0.00    +0.136 C 
ATOM     14  O   LIG    1        1.241  -0.407   0.494  0.00  0.00    -0.270 OA
ENDBRANCH   3   7
BRANCH   5  15
ATOM     15  N   LIG    1       -2.186  -4.340   0.554  0.00  0.00    -0.269 N 
ATOM     16  H   LIG    1       -2.956  -4.847   0.856  0.00  0.00    +0.156 HD
ATOM     17  C   LIG    1       -1.114  -4.980   0.046  0.00  0.00    +0.308 C 
ATOM     18  N   LIG    1       -1.066  -6.327   0.056  0.00  0.00    -0.269 N 
ATOM     19  H   LIG    1       -1.835  -6.837   0.356  0.00  0.00    +0.156 HD
ATOM     20  O   LIG    1       -0.190  -4.343  -0.421  0.00  0.00    -0.252 OA
BRANCH  18  21
ATOM     21  C   LIG    1        0.092  -6.990  -0.366  0.00  0.00    +0.035 A 
ATOM     22  C   LIG    1        0.866  -6.455  -1.387  0.00  0.00    +0.025 A 
ATOM     23  C   LIG    1        2.012  -7.107  -1.798  0.00  0.00    +0.022 A 
ATOM     24  C   LIG    1        2.382  -8.300  -1.200  0.00  0.00    +0.041 A 
ATOM     25 CL   LIG    1        3.819  -9.121  -1.724  0.00  0.00    -0.084 Cl
ATOM     26  C   LIG    1        1.610  -8.838  -0.186  0.00  0.00    +0.022 A 
ATOM     27  C   LIG    1        0.466  -8.186   0.232  0.00  0.00    +0.025 A 
ENDBRANCH  18  21
ENDBRANCH   5  15
TORSDOF 3
