REMARK  Name = ZINC12356006
REMARK                            x       y       z     vdW  Elec       q    Type
REMARK                         _______ _______ _______ _____ _____    ______ ____
ROOT
ATOM      1  N   LIG    1       -2.115   1.076   1.274  0.00  0.00    +0.381 N 
ATOM      2  H   LIG    1       -2.701   1.705   1.836  0.00  0.00    -0.086 HD
ATOM      3  H   LIG    1       -2.470   1.048   0.310  0.00  0.00    -0.086 HD
ENDROOT
BRANCH   1   5
ATOM      4  C   LIG    1       -0.013   1.086   0.008  0.00  0.00    -0.013 C 
ATOM      5  C   LIG    1       -0.729   1.579   1.267  0.00  0.00    -0.071 C 
BRANCH   5   6
ATOM      6  C   LIG    1       -0.750   3.109   1.275  0.00  0.00    +0.019 C 
BRANCH   6   7
ATOM      7  C   LIG    1       -1.345   3.596   2.571  0.00  0.00    -0.049 A 
ATOM      8  C   LIG    1       -2.707   3.813   2.667  0.00  0.00    +0.007 A 
ATOM      9  C   LIG    1       -3.255   4.254   3.856  0.00  0.00    +0.046 A 
ATOM     10  C   LIG    1       -2.437   4.490   4.951  0.00  0.00    +0.120 A 
ATOM     11  C   LIG    1       -1.069   4.278   4.850  0.00  0.00    +0.046 A 
ATOM     12  C   LIG    1       -0.526   3.831   3.661  0.00  0.00    +0.007 A 
BRANCH  10  13
ATOM     13  O   LIG    1       -2.973   4.929   6.119  0.00  0.00    -0.495 OA
ATOM     14  C   LIG    1       -4.388   5.126   6.150  0.00  0.00    +0.277 C 
ENDBRANCH  10  13
ENDBRANCH   6   7
ENDBRANCH   5   6
ENDBRANCH   1   5
BRANCH   1  15
ATOM     15  C   LIG    1       -2.165  -0.281   1.850  0.00  0.00    -0.082 C 
BRANCH  15  16
ATOM     16  C   LIG    1       -3.613  -0.775   1.844  0.00  0.00    -0.014 C 
BRANCH  16  17
ATOM     17  C   LIG    1       -3.674  -2.183   2.441  0.00  0.00    +0.033 C 
BRANCH  17  18
ATOM     18  C   LIG    1       -5.100  -2.670   2.435  0.00  0.00    -0.047 A 
ATOM     19  C   LIG    1       -5.917  -2.429   3.524  0.00  0.00    +0.003 A 
ATOM     20  C   LIG    1       -7.226  -2.872   3.516  0.00  0.00    +0.000 A 
ATOM     21  C   LIG    1       -7.716  -3.564   2.424  0.00  0.00    +0.000 A 
ATOM     22  C   LIG    1       -6.897  -3.809   1.338  0.00  0.00    +0.000 A 
ATOM     23  C   LIG    1       -5.589  -3.362   1.343  0.00  0.00    +0.003 A 
ENDBRANCH  17  18
ENDBRANCH  16  17
ENDBRANCH  15  16
ENDBRANCH   1  15
TORSDOF 8
