REMARK  Name = ZINC08754389
REMARK                            x       y       z     vdW  Elec       q    Type
REMARK                         _______ _______ _______ _____ _____    ______ ____
ROOT
ATOM      1  N   LIG    1       -0.016   1.344   0.009  0.00  0.00    -0.297 N 
ATOM      2  H   LIG    1        0.929   1.907   0.008  0.00  0.00    +0.151 HD
ATOM      3  C   LIG    1        0.002  -0.004   0.002  0.00  0.00    +0.300 C 
ATOM      4  N   LIG    1        1.178  -0.662  -0.013  0.00  0.00    -0.299 N 
ATOM      5  H   LIG    1        2.123  -0.099  -0.019  0.00  0.00    +0.150 HD
ATOM      6  O   LIG    1       -1.042  -0.626   0.009  0.00  0.00    -0.253 OA
ENDROOT
BRANCH   1  10
ATOM      7  C   LIG    1       -2.947   4.339  -0.788  0.00  0.00    +0.000 C 
ATOM      8  C   LIG    1       -2.434   4.192   0.646  0.00  0.00    +0.002 C 
ATOM      9  C   LIG    1       -1.099   3.445   0.636  0.00  0.00    +0.022 C 
ATOM     10  C   LIG    1       -1.295   2.059   0.019  0.00  0.00    +0.074 C 
ATOM     11  C   LIG    1       -1.808   2.206  -1.414  0.00  0.00    +0.022 C 
ATOM     12  C   LIG    1       -3.143   2.953  -1.404  0.00  0.00    +0.002 C 
ENDBRANCH   1  10
BRANCH   4  13
ATOM     13  C   LIG    1        1.198  -2.127  -0.021  0.00  0.00    +0.106 C 
BRANCH  13  14
ATOM     14  C   LIG    1        2.647  -2.617  -0.037  0.00  0.00    +0.030 C 
BRANCH  14  15
ATOM     15  C   LIG    1        2.668  -4.147  -0.046  0.00  0.00    +0.122 C 
BRANCH  15  16
ATOM     16  C   LIG    1        4.096  -4.630  -0.062  0.00  0.00    +0.305 C 
ATOM     17  O   LIG    1        5.003  -3.832  -0.066  0.00  0.00    -0.251 OA
BRANCH  16  18
ATOM     18  O   LIG    1        4.359  -5.946  -0.071  0.00  0.00    -0.481 OA
ATOM     19  H   LIG    1        3.655  -6.565  -0.068  0.00  0.00    +0.295 HD
ENDBRANCH  16  18
ENDBRANCH  15  16
ENDBRANCH  14  15
ENDBRANCH  13  14
ENDBRANCH   4  13
TORSDOF 6
