REMARK  Name = ZINC12358153
REMARK                            x       y       z     vdW  Elec       q    Type
REMARK                         _______ _______ _______ _____ _____    ______ ____
ROOT
ATOM      1  C   LIG    1        1.340   3.147   0.135  0.00  0.00    +0.133 A 
ATOM      2  C   LIG    1        1.487   1.770   0.017  0.00  0.00    +0.048 A 
ATOM      3  C   LIG    1        0.378   0.956  -0.086  0.00  0.00    +0.028 A 
ATOM      4  C   LIG    1       -0.896   1.510  -0.079  0.00  0.00    +0.048 A 
ATOM      5  C   LIG    1       -1.051   2.899   0.044  0.00  0.00    +0.083 A 
ATOM      6  C   LIG    1        0.080   3.714   0.148  0.00  0.00    +0.063 A 
ENDROOT
BRANCH   4   7
ATOM      7  N   LIG    1       -2.015   0.689  -0.189  0.00  0.00    -0.281 N 
ATOM      8  H   LIG    1       -2.796   0.995  -0.677  0.00  0.00    +0.155 HD
ATOM      9  C   LIG    1       -2.015  -0.532   0.382  0.00  0.00    +0.250 C 
ATOM     10  O   LIG    1       -1.011  -0.946   0.929  0.00  0.00    -0.270 OA
BRANCH   9  11
ATOM     11  C   LIG    1       -3.233  -1.366   0.344  0.00  0.00    +0.055 A 
ATOM     12  C   LIG    1       -4.388  -0.892  -0.283  0.00  0.00    +0.016 A 
ATOM     13  C   LIG    1       -5.522  -1.675  -0.315  0.00  0.00    +0.021 A 
ATOM     14  C   LIG    1       -5.519  -2.930   0.273  0.00  0.00    +0.042 A 
ATOM     15 CL   LIG    1       -6.951  -3.909   0.228  0.00  0.00    -0.083 Cl
ATOM     16  C   LIG    1       -4.378  -3.406   0.897  0.00  0.00    +0.040 A 
ATOM     17  C   LIG    1       -3.234  -2.634   0.931  0.00  0.00    +0.054 A 
ATOM     18 CL   LIG    1       -1.802  -3.235   1.707  0.00  0.00    -0.083 Cl
ENDBRANCH   9  11
ENDBRANCH   4   7
BRANCH   5  19
ATOM     19  C   LIG    1       -2.398   3.496   0.057  0.00  0.00    +0.339 C 
ATOM     20  O   LIG    1       -3.380   2.780   0.070  0.00  0.00    -0.245 OA
BRANCH  19  21
ATOM     21  O   LIG    1       -2.542   4.836   0.056  0.00  0.00    -0.477 OA
ATOM     22  H   LIG    1       -1.785   5.388   0.046  0.00  0.00    +0.295 HD
ENDBRANCH  19  21
ENDBRANCH   5  19
BRANCH   1  23
ATOM     23  O   LIG    1        2.441   3.940   0.236  0.00  0.00    -0.424 OA
BRANCH  23  27
ATOM     24  C   LIG    1        4.915   4.160  -2.938  0.00  0.00    +0.040 A 
ATOM     25  C   LIG    1        5.236   4.787  -1.745  0.00  0.00    +0.118 A 
ATOM     26  N   LIG    1        4.402   4.695  -0.722  0.00  0.00    -0.203 NA
ATOM     27  C   LIG    1        3.272   4.014  -0.831  0.00  0.00    +0.323 A 
ATOM     28  N   LIG    1        2.937   3.400  -1.954  0.00  0.00    -0.203 NA
ATOM     29  C   LIG    1        3.723   3.456  -3.016  0.00  0.00    +0.118 A 
ENDBRANCH  23  27
ENDBRANCH   1  23
TORSDOF 6
