REMARK  Name = ZINC12405396
REMARK                            x       y       z     vdW  Elec       q    Type
REMARK                         _______ _______ _______ _____ _____    ______ ____
ROOT
ATOM      1  C   LIG    1       -1.574   4.809   2.709  0.00  0.00    +0.155 C 
ATOM      2  N   LIG    1       -1.452   3.362   2.517  0.00  0.00    -0.280 N 
ATOM      3  C   LIG    1       -1.976   2.491   3.460  0.00  0.00    +0.168 A 
ATOM      4  C   LIG    1       -1.845   1.120   3.253  0.00  0.00    +0.149 A 
ATOM      5  N   LIG    1       -2.449   0.500   4.332  0.00  0.00    -0.333 N 
ATOM      6  C   LIG    1       -2.918   1.493   5.144  0.00  0.00    +0.134 A 
ATOM      7  H   LIG    1       -2.526  -0.485   4.487  0.00  0.00    +0.168 HD
ATOM      8  C   LIG    1       -1.187   0.661   2.094  0.00  0.00    +0.282 A 
ATOM      9  N   LIG    1       -0.698   1.558   1.213  0.00  0.00    -0.262 N 
ATOM     10  C   LIG    1       -0.013   1.086   0.008  0.00  0.00    +0.157 C 
ATOM     11  O   LIG    1       -1.060  -0.534   1.891  0.00  0.00    -0.265 OA
ATOM     12  N   LIG    1       -2.627   2.667   4.608  0.00  0.00    -0.210 NA
ATOM     13  C   LIG    1       -0.826   2.879   1.427  0.00  0.00    +0.333 A 
ATOM     14  O   LIG    1       -0.369   3.658   0.612  0.00  0.00    -0.246 OA
ENDROOT
BRANCH   6  15
ATOM     15  C   LIG    1       -3.629   1.290   6.407  0.00  0.00    +0.047 C 
ATOM     16  C   LIG    1       -4.046   2.353   7.125  0.00  0.00    +0.012 C 
BRANCH  16  17
ATOM     17  C   LIG    1       -4.761   2.149   8.394  0.00  0.00    -0.018 A 
ATOM     18  C   LIG    1       -5.014   0.853   8.856  0.00  0.00    +0.057 A 
ATOM     19  C   LIG    1       -5.682   0.666  10.052  0.00  0.00    +0.166 A 
ATOM     20  C   LIG    1       -6.111   1.764  10.791  0.00  0.00    +0.204 A 
ATOM     21  C   LIG    1       -5.865   3.055  10.332  0.00  0.00    +0.166 A 
ATOM     22  C   LIG    1       -5.193   3.251   9.140  0.00  0.00    +0.057 A 
BRANCH  19  23
ATOM     23  O   LIG    1       -5.925  -0.594  10.503  0.00  0.00    -0.491 OA
ATOM     24  C   LIG    1       -5.457  -1.675   9.694  0.00  0.00    +0.277 C 
ENDBRANCH  19  23
BRANCH  20  25
ATOM     25  O   LIG    1       -6.771   1.576  11.965  0.00  0.00    -0.488 OA
ATOM     26  C   LIG    1       -8.195   1.475  11.898  0.00  0.00    +0.277 C 
ENDBRANCH  20  25
BRANCH  21  27
ATOM     27  O   LIG    1       -6.286   4.126  11.058  0.00  0.00    -0.491 OA
ATOM     28  C   LIG    1       -6.000   5.422  10.528  0.00  0.00    +0.277 C 
ENDBRANCH  21  27
ENDBRANCH  16  17
ENDBRANCH   6  15
TORSDOF 5
