REMARK  Name = ZINC08969139
REMARK                            x       y       z     vdW  Elec       q    Type
REMARK                         _______ _______ _______ _____ _____    ______ ____
ROOT
ATOM      1  C   LIG    1       -4.820  -2.876   0.031  0.00  0.00    +0.026 C 
ATOM      2  C   LIG    1       -4.855  -4.163   0.535  0.00  0.00    +0.100 C 
ATOM      3  C   LIG    1       -3.674  -4.772   1.178  0.00  0.00    +0.256 C 
ATOM      4  O   LIG    1       -2.632  -4.154   1.282  0.00  0.00    -0.270 OA
ATOM      5  N   LIG    1       -3.783  -6.033   1.646  0.00  0.00    -0.236 N 
ATOM      6  H   LIG    1       -3.016  -6.448   2.071  0.00  0.00    +0.159 HD
ATOM      7  C   LIG    1       -4.925  -6.725   1.537  0.00  0.00    +0.313 C 
ATOM      8  O   LIG    1       -4.956  -7.857   1.979  0.00  0.00    -0.252 OA
ATOM      9  N   LIG    1       -6.035  -6.237   0.966  0.00  0.00    -0.236 N 
ATOM     10  H   LIG    1       -6.828  -6.794   0.921  0.00  0.00    +0.159 HD
ATOM     11  C   LIG    1       -6.077  -4.988   0.459  0.00  0.00    +0.256 C 
ATOM     12  O   LIG    1       -7.093  -4.554  -0.051  0.00  0.00    -0.270 OA
ENDROOT
BRANCH   1  16
ATOM     13  C   LIG    1       -1.136  -0.833  -0.291  0.00  0.00    +0.029 A 
ATOM     14  C   LIG    1       -1.236  -2.156  -0.720  0.00  0.00    +0.023 A 
ATOM     15  C   LIG    1       -2.424  -2.821  -0.618  0.00  0.00    +0.010 A 
ATOM     16  C   LIG    1       -3.546  -2.170  -0.080  0.00  0.00    -0.024 A 
ATOM     17  C   LIG    1       -3.439  -0.837   0.350  0.00  0.00    +0.010 A 
ATOM     18  C   LIG    1       -2.245  -0.184   0.248  0.00  0.00    +0.023 A 
BRANCH  13  20
ATOM     19  C   LIG    1        0.184   1.226   0.057  0.00  0.00    +0.129 C 
ATOM     20  N   LIG    1        0.074  -0.162  -0.398  0.00  0.00    -0.336 N 
ATOM     21  C   LIG    1        1.241  -0.842  -0.965  0.00  0.00    +0.129 C 
ENDBRANCH  13  20
ENDBRANCH   1  16
TORSDOF 2
