REMARK  Name = ZINC08741242
REMARK                            x       y       z     vdW  Elec       q    Type
REMARK                         _______ _______ _______ _____ _____    ______ ____
ROOT
ATOM      1  C   LIG    1        3.711  -0.707  -0.038  0.00  0.00    +0.145 C 
ATOM      2  C   LIG    1        4.388  -0.431  -1.366  0.00  0.00    +0.200 C 
ATOM      3  N   LIG    1        5.576   0.117  -1.345  0.00  0.00    -0.131 NA
ATOM      4  C   LIG    1        6.203   0.437  -0.209  0.00  0.00    +0.332 C 
ATOM      5  N   LIG    1        5.706   0.242   1.019  0.00  0.00    -0.237 N 
ATOM      6  H   LIG    1        6.231   0.504   1.791  0.00  0.00    +0.159 HD
ATOM      7  O   LIG    1        7.306   0.943  -0.296  0.00  0.00    -0.250 OA
ATOM      8  C   LIG    1        4.489  -0.315   1.205  0.00  0.00    +0.240 C 
ATOM      9  O   LIG    1        4.037  -0.492   2.317  0.00  0.00    -0.274 OA
ENDROOT
BRANCH   1  13
ATOM     10  C   LIG    1       -0.017   1.378   0.010  0.00  0.00    +0.000 A 
ATOM     11  C   LIG    1        1.171   2.086   0.002  0.00  0.00    +0.000 A 
ATOM     12  C   LIG    1        2.377   1.411  -0.013  0.00  0.00    +0.005 A 
ATOM     13  C   LIG    1        2.396   0.029  -0.020  0.00  0.00    -0.024 A 
ATOM     14  C   LIG    1        1.208  -0.679  -0.012  0.00  0.00    +0.005 A 
ATOM     15  C   LIG    1        0.002  -0.004   0.002  0.00  0.00    +0.000 A 
ENDBRANCH   1  13
BRANCH   2  16
ATOM     16  O   LIG    1        3.788  -0.741  -2.527  0.00  0.00    -0.496 OA
ATOM     17  H   LIG    1        2.938  -1.133  -2.524  0.00  0.00    +0.293 HD
ENDBRANCH   2  16
BRANCH   1  18
ATOM     18  C   LIG    1        3.416  -2.206   0.039  0.00  0.00    +0.035 C 
BRANCH  18  19
ATOM     19  C   LIG    1        4.731  -2.987   0.024  0.00  0.00    +0.037 C 
BRANCH  19  20
ATOM     20  C   LIG    1        4.440  -4.464   0.100  0.00  0.00    -0.044 A 
ATOM     21  C   LIG    1        4.342  -5.106   1.325  0.00  0.00    +0.023 A 
ATOM     22  C   LIG    1        4.074  -6.461   1.355  0.00  0.00    +0.111 A 
ATOM     23  N   LIG    1        3.912  -7.142   0.237  0.00  0.00    -0.263 NA
ATOM     24  C   LIG    1        3.998  -6.564  -0.945  0.00  0.00    +0.111 A 
ATOM     25  C   LIG    1        4.258  -5.211  -1.054  0.00  0.00    +0.023 A 
ENDBRANCH  19  20
ENDBRANCH  18  19
ENDBRANCH   1  18
TORSDOF 5
