REMARK  Name = ZINC08926089
REMARK                            x       y       z     vdW  Elec       q    Type
REMARK                         _______ _______ _______ _____ _____    ______ ____
ROOT
ATOM      1  N   LIG    1       -0.072  -2.781  -0.012  0.00  0.00    -0.206 N 
ATOM      2  C   LIG    1        0.547  -3.179   1.105  0.00  0.00    +0.233 C 
ATOM      3  C   LIG    1        1.785  -3.966   0.742  0.00  0.00    +0.125 C 
ATOM      4  C   LIG    1        3.038  -3.155   1.136  0.00  0.00    +0.163 C 
ATOM      5  O   LIG    1        3.298  -2.292   0.006  0.00  0.00    -0.348 OA
ATOM      6  C   LIG    1        3.036  -3.097  -1.153  0.00  0.00    +0.206 C 
ATOM      7  C   LIG    1        2.800  -2.244  -2.367  0.00  0.00    +0.204 C 
ATOM      8  C   LIG    1        3.808  -2.637  -3.371  0.00  0.00    +0.031 A 
ATOM      9  C   LIG    1        4.035  -2.167  -4.667  0.00  0.00    +0.012 A 
ATOM     10  C   LIG    1        5.057  -2.701  -5.428  0.00  0.00    +0.001 A 
ATOM     11  C   LIG    1        5.863  -3.703  -4.916  0.00  0.00    +0.001 A 
ATOM     12  C   LIG    1        5.657  -4.181  -3.636  0.00  0.00    +0.012 A 
ATOM     13  C   LIG    1        4.629  -3.656  -2.849  0.00  0.00    +0.031 A 
ATOM     14  O   LIG    1        1.945  -1.395  -2.498  0.00  0.00    -0.288 OA
ATOM     15  C   LIG    1        4.205  -3.985  -1.475  0.00  0.00    +0.204 C 
ATOM     16  O   LIG    1        4.704  -4.814  -0.745  0.00  0.00    -0.288 OA
ATOM     17  C   LIG    1        1.778  -3.946  -0.814  0.00  0.00    +0.138 C 
ATOM     18  O   LIG    1        0.172  -2.946   2.234  0.00  0.00    -0.274 OA
ATOM     19  C   LIG    1        0.528  -3.162  -1.145  0.00  0.00    +0.234 C 
ATOM     20  O   LIG    1        0.133  -2.915  -2.265  0.00  0.00    -0.274 OA
ENDROOT
BRANCH   1  26
ATOM     21  C   LIG    1       -1.201  -0.638   0.010  0.00  0.00    +0.142 A 
ATOM     22  C   LIG    1       -2.374   0.100   0.019  0.00  0.00    +0.047 A 
ATOM     23  C   LIG    1       -3.596  -0.546   0.027  0.00  0.00    +0.004 A 
ATOM     24  C   LIG    1       -3.652  -1.928   0.026  0.00  0.00    +0.002 A 
ATOM     25  C   LIG    1       -2.487  -2.670   0.017  0.00  0.00    +0.027 A 
ATOM     26  C   LIG    1       -1.257  -2.029   0.003  0.00  0.00    +0.085 A 
BRANCH  21  28
ATOM     27  C   LIG    1       -0.017   1.425   0.010  0.00  0.00    +0.277 C 
ATOM     28  O   LIG    1        0.002  -0.004   0.002  0.00  0.00    -0.493 OA
ENDBRANCH  21  28
ENDBRANCH   1  26
BRANCH   4  29
ATOM     29  C   LIG    1        2.765  -2.336   2.371  0.00  0.00    -0.018 A 
ATOM     30  C   LIG    1        2.074  -1.143   2.270  0.00  0.00    +0.006 A 
ATOM     31  C   LIG    1        1.823  -0.392   3.403  0.00  0.00    +0.000 A 
ATOM     32  C   LIG    1        2.263  -0.834   4.637  0.00  0.00    +0.000 A 
ATOM     33  C   LIG    1        2.953  -2.028   4.738  0.00  0.00    +0.000 A 
ATOM     34  C   LIG    1        3.200  -2.781   3.605  0.00  0.00    +0.006 A 
ENDBRANCH   4  29
TORSDOF 3
