REMARK  Name = ZINC08860477
REMARK                            x       y       z     vdW  Elec       q    Type
REMARK                         _______ _______ _______ _____ _____    ______ ____
ROOT
ATOM      1  C   LIG    1        6.855 -18.485   2.057  0.00  0.00    +0.239 C 
ENDROOT
BRANCH   1   2
ATOM      2  C   LIG    1        8.223 -17.841   2.290  0.00  0.00    +0.203 C 
BRANCH   2   3
ATOM      3  O   LIG    1        8.084 -16.419   2.304  0.00  0.00    -0.391 OA
ATOM      4  H   LIG    1        8.914 -15.944   2.448  0.00  0.00    +0.210 HD
ENDBRANCH   2   3
ENDBRANCH   1   2
BRANCH   1   5
ATOM      5  O   LIG    1        6.000 -18.200   3.165  0.00  0.00    -0.456 OA
BRANCH   5   6
ATOM      6  C   LIG    1        6.010 -19.075   4.183  0.00  0.00    +0.308 C 
ATOM      7  O   LIG    1        6.722 -20.049   4.136  0.00  0.00    -0.251 OA
BRANCH   6   8
ATOM      8  C   LIG    1        5.133 -18.840   5.387  0.00  0.00    +0.120 C 
BRANCH   8   9
ATOM      9  C   LIG    1        5.334 -19.975   6.393  0.00  0.00    +0.011 C 
BRANCH   9  10
ATOM     10  C   LIG    1        4.444 -19.737   7.614  0.00  0.00    +0.001 C 
BRANCH  10  11
ATOM     11  C   LIG    1        4.645 -20.872   8.621  0.00  0.00    +0.000 C 
BRANCH  11  12
ATOM     12  C   LIG    1        3.755 -20.634   9.842  0.00  0.00    +0.000 C 
BRANCH  12  13
ATOM     13  C   LIG    1        3.956 -21.769  10.848  0.00  0.00    +0.004 C 
BRANCH  13  14
ATOM     14  C   LIG    1        3.066 -21.531  12.070  0.00  0.00    +0.027 C 
BRANCH  14  15
ATOM     15  C   LIG    1        3.263 -22.649  13.061  0.00  0.00    -0.031 C 
ATOM     16  C   LIG    1        3.552 -22.374  14.309  0.00  0.00    -0.031 C 
BRANCH  16  17
ATOM     17  C   LIG    1        3.519 -20.948  14.794  0.00  0.00    +0.027 C 
BRANCH  17  18
ATOM     18  C   LIG    1        2.617 -20.848  16.025  0.00  0.00    +0.004 C 
BRANCH  18  19
ATOM     19  C   LIG    1        2.584 -19.400  16.517  0.00  0.00    +0.000 C 
BRANCH  19  20
ATOM     20  C   LIG    1        1.681 -19.300  17.748  0.00  0.00    +0.000 C 
BRANCH  20  21
ATOM     21  C   LIG    1        1.648 -17.851  18.241  0.00  0.00    -0.000 C 
BRANCH  21  22
ATOM     22  C   LIG    1        0.746 -17.752  19.472  0.00  0.00    -0.000 C 
BRANCH  22  23
ATOM     23  C   LIG    1        0.713 -16.303  19.964  0.00  0.00    -0.003 C 
ATOM     24  C   LIG    1       -0.190 -16.203  21.195  0.00  0.00    +0.004 C 
ENDBRANCH  22  23
ENDBRANCH  21  22
ENDBRANCH  20  21
ENDBRANCH  19  20
ENDBRANCH  18  19
ENDBRANCH  17  18
ENDBRANCH  16  17
ENDBRANCH  14  15
ENDBRANCH  13  14
ENDBRANCH  12  13
ENDBRANCH  11  12
ENDBRANCH  10  11
ENDBRANCH   9  10
ENDBRANCH   8   9
ENDBRANCH   6   8
ENDBRANCH   5   6
ENDBRANCH   1   5
BRANCH   1  25
ATOM     25  C   LIG    1        6.237 -17.920   0.776  0.00  0.00    +0.279 C 
BRANCH  25  26
ATOM     26  O   LIG    1        6.189 -16.494   0.860  0.00  0.00    -0.461 OA
BRANCH  26  27
ATOM     27  C   LIG    1        5.670 -15.839  -0.191  0.00  0.00    +0.307 C 
ATOM     28  O   LIG    1        5.271 -16.456  -1.149  0.00  0.00    -0.251 OA
BRANCH  27  29
ATOM     29  C   LIG    1        5.587 -14.335  -0.174  0.00  0.00    +0.120 C 
BRANCH  29  30
ATOM     30  C   LIG    1        4.961 -13.844  -1.481  0.00  0.00    +0.011 C 
BRANCH  30  31
ATOM     31  C   LIG    1        4.877 -12.317  -1.464  0.00  0.00    +0.001 C 
BRANCH  31  32
ATOM     32  C   LIG    1        4.251 -11.826  -2.772  0.00  0.00    +0.000 C 
BRANCH  32  33
ATOM     33  C   LIG    1        4.166 -10.299  -2.755  0.00  0.00    +0.000 C 
BRANCH  33  34
ATOM     34  C   LIG    1        3.540  -9.808  -4.062  0.00  0.00    +0.004 C 
BRANCH  34  35
ATOM     35  C   LIG    1        3.455  -8.281  -4.045  0.00  0.00    +0.027 C 
BRANCH  35  37
ATOM     36  C   LIG    1        1.798  -7.002  -5.303  0.00  0.00    -0.031 C 
ATOM     37  C   LIG    1        2.839  -7.798  -5.333  0.00  0.00    -0.031 C 
BRANCH  36  38
ATOM     38  C   LIG    1        1.322  -6.434  -3.991  0.00  0.00    +0.027 C 
BRANCH  38  39
ATOM     39  C   LIG    1        1.200  -4.913  -4.108  0.00  0.00    +0.004 C 
BRANCH  39  40
ATOM     40  C   LIG    1        0.716  -4.337  -2.776  0.00  0.00    +0.000 C 
BRANCH  40  41
ATOM     41  C   LIG    1        0.594  -2.816  -2.893  0.00  0.00    +0.000 C 
BRANCH  41  42
ATOM     42  C   LIG    1        0.110  -2.239  -1.562  0.00  0.00    -0.000 C 
BRANCH  42  43
ATOM     43  C   LIG    1       -0.013  -0.719  -1.679  0.00  0.00    -0.000 C 
BRANCH  43  45
ATOM     44  C   LIG    1       -0.619   1.379  -0.464  0.00  0.00    +0.004 C 
ATOM     45  C   LIG    1       -0.496  -0.142  -0.347  0.00  0.00    -0.003 C 
ENDBRANCH  43  45
ENDBRANCH  42  43
ENDBRANCH  41  42
ENDBRANCH  40  41
ENDBRANCH  39  40
ENDBRANCH  38  39
ENDBRANCH  36  38
ENDBRANCH  35  37
ENDBRANCH  34  35
ENDBRANCH  33  34
ENDBRANCH  32  33
ENDBRANCH  31  32
ENDBRANCH  30  31
ENDBRANCH  29  30
ENDBRANCH  27  29
ENDBRANCH  26  27
ENDBRANCH  25  26
ENDBRANCH   1  25
TORSDOF 37
