REMARK  Name = ZINC12339022
REMARK                            x       y       z     vdW  Elec       q    Type
REMARK                         _______ _______ _______ _____ _____    ______ ____
ROOT
ATOM      1  C   LIG    1        0.255   1.703   0.678  0.00  0.00    +0.019 A 
ATOM      2  C   LIG    1        0.174   0.328   0.792  0.00  0.00    +0.047 A 
ATOM      3  C   LIG    1        1.291  -0.456   0.561  0.00  0.00    +0.124 A 
ATOM      4  C   LIG    1        2.508   0.152   0.210  0.00  0.00    +0.019 A 
ATOM      5  C   LIG    1        2.577   1.546   0.099  0.00  0.00    +0.026 A 
ATOM      6  C   LIG    1        1.453   2.309   0.333  0.00  0.00    +0.019 A 
ATOM      7 BR   LIG    1        1.546   4.192   0.181  0.00  0.00    -0.050 Br
ENDROOT
BRANCH   4   8
ATOM      8  C   LIG    1        3.700  -0.668  -0.038  0.00  0.00    +0.031 C 
ATOM      9  C   LIG    1        4.752  -0.148  -0.720  0.00  0.00    +0.077 C 
ATOM     10  C   LIG    1        6.092  -0.719  -0.961  0.00  0.00    +0.256 C 
ATOM     11  N   LIG    1        6.932   0.018  -1.669  0.00  0.00    -0.270 N 
ATOM     12  H   LIG    1        7.823  -0.320  -1.849  0.00  0.00    +0.156 HD
ATOM     13  C   LIG    1        6.577   1.229  -2.145  0.00  0.00    +0.118 C 
ATOM     14  S   LIG    1        7.512   2.322  -3.074  0.00  0.00    -0.027 S 
ATOM     15  O   LIG    1        6.409  -1.812  -0.530  0.00  0.00    -0.269 OA
ATOM     16  S   LIG    1        4.893   1.412  -1.581  0.00  0.00    -0.061 S 
ENDBRANCH   4   8
BRANCH   3  17
ATOM     17  O   LIG    1        1.211  -1.807   0.672  0.00  0.00    -0.506 OA
ATOM     18  H   LIG    1        0.971  -2.255  -0.151  0.00  0.00    +0.292 HD
ENDBRANCH   3  17
TORSDOF 2
