REMARK  Name = ZINC12321010
REMARK                            x       y       z     vdW  Elec       q    Type
REMARK                         _______ _______ _______ _____ _____    ______ ____
ROOT
ATOM      1  C   LIG    1       -0.763  -3.039   3.616  0.00  0.00    +0.034 C 
ATOM      2  C   LIG    1       -1.160  -3.848   2.380  0.00  0.00    +0.083 C 
ATOM      3  C   LIG    1       -1.093  -2.969   1.154  0.00  0.00    +0.115 C 
ATOM      4  C   LIG    1       -1.346  -1.650   1.240  0.00  0.00    +0.046 C 
ATOM      5  C   LIG    1       -1.665  -1.045   2.471  0.00  0.00    +0.164 C 
ATOM      6  O   LIG    1       -1.903   0.146   2.506  0.00  0.00    -0.292 OA
ATOM      7  C   LIG    1       -1.293  -0.775   0.011  0.00  0.00    +0.101 C 
ATOM      8  C   LIG    1       -1.377  -1.621  -1.229  0.00  0.00    +0.098 C 
ATOM      9  C   LIG    1       -1.115  -2.949  -1.172  0.00  0.00    +0.198 C 
ATOM     10  O   LIG    1       -0.770  -3.545  -0.020  0.00  0.00    -0.445 OA
ATOM     11  C   LIG    1       -1.717  -1.847   3.743  0.00  0.00    +0.088 C 
ENDROOT
BRANCH   1  15
ATOM     12  C   LIG    1       -1.065  -5.495   7.098  0.00  0.00    +0.000 A 
ATOM     13  C   LIG    1        0.145  -4.918   6.763  0.00  0.00    +0.000 A 
ATOM     14  C   LIG    1        0.243  -4.123   5.636  0.00  0.00    +0.004 A 
ATOM     15  C   LIG    1       -0.870  -3.906   4.845  0.00  0.00    -0.043 A 
ATOM     16  C   LIG    1       -2.081  -4.479   5.183  0.00  0.00    +0.004 A 
ATOM     17  C   LIG    1       -2.178  -5.278   6.307  0.00  0.00    +0.000 A 
ENDBRANCH   1  15
BRANCH   7  18
ATOM     18  C   LIG    1        0.002  -0.004   0.002  0.00  0.00    -0.035 A 
ATOM     19  C   LIG    1       -0.017   1.378   0.010  0.00  0.00    +0.004 A 
ATOM     20  C   LIG    1        1.171   2.086   0.002  0.00  0.00    +0.000 A 
ATOM     21  C   LIG    1        2.377   1.411  -0.015  0.00  0.00    +0.000 A 
ATOM     22  C   LIG    1        2.396   0.029  -0.021  0.00  0.00    +0.000 A 
ATOM     23  C   LIG    1        1.208  -0.679  -0.013  0.00  0.00    +0.004 A 
ENDBRANCH   7  18
BRANCH   9  24
ATOM     24  N   LIG    1       -1.202  -3.701  -2.317  0.00  0.00    -0.328 N 
ATOM     25  H   LIG    1       -1.483  -3.225  -3.268  0.00  0.00    +0.145 HD
ATOM     26  H   LIG    1       -0.991  -4.781  -2.284  0.00  0.00    +0.145 HD
ENDBRANCH   9  24
BRANCH   8  27
ATOM     27  C   LIG    1       -1.738  -1.020  -2.478  0.00  0.00    +0.101 C 
ATOM     28  N   LIG    1       -2.024  -0.543  -3.468  0.00  0.00    -0.191 NA
ENDBRANCH   8  27
TORSDOF 4
