REMARK  Name = ZINC12360849
REMARK                            x       y       z     vdW  Elec       q    Type
REMARK                         _______ _______ _______ _____ _____    ______ ____
ROOT
ATOM      1  C   LIG    1       -1.222  -3.498  -0.003  0.00  0.00    +0.154 C 
ATOM      2  C   LIG    1       -0.396  -2.234  -0.073  0.00  0.00    +0.046 A 
ATOM      3  C   LIG    1        0.955  -2.226  -0.091  0.00  0.00    -0.015 A 
ATOM      4  C   LIG    1        1.820  -3.460  -0.050  0.00  0.00    +0.069 C 
ATOM      5  C   LIG    1        0.976  -4.643   0.445  0.00  0.00    +0.167 C 
ATOM      6  C   LIG    1        1.724  -5.918   0.229  0.00  0.00    +0.237 C 
ATOM      7  O   LIG    1        2.765  -6.075   0.830  0.00  0.00    -0.274 OA
ATOM      8  N   LIG    1        1.319  -6.894  -0.582  0.00  0.00    -0.288 N 
ATOM      9  C   LIG    1        0.092  -6.844  -1.359  0.00  0.00    +0.204 C 
ATOM     10  C   LIG    1       -0.695  -5.603  -1.084  0.00  0.00    +0.234 C 
ATOM     11  O   LIG    1       -1.753  -5.466  -1.661  0.00  0.00    -0.274 OA
ATOM     12  C   LIG    1        1.369  -0.840  -0.157  0.00  0.00    +0.003 A 
ATOM     13  C   LIG    1        2.625  -0.227  -0.199  0.00  0.00    +0.010 A 
ATOM     14  C   LIG    1        2.645   1.145  -0.262  0.00  0.00    +0.001 A 
ATOM     15  C   LIG    1        1.482   1.897  -0.281  0.00  0.00    +0.002 A 
ATOM     16  C   LIG    1        0.226   1.317  -0.240  0.00  0.00    +0.026 A 
ATOM     17  C   LIG    1        0.175  -0.074  -0.177  0.00  0.00    +0.047 A 
ATOM     18  N   LIG    1       -0.870  -0.950  -0.124  0.00  0.00    -0.356 N 
ATOM     19  H   LIG    1       -1.808  -0.701  -0.123  0.00  0.00    +0.166 HD
ATOM     20  N   LIG    1       -0.312  -4.637  -0.248  0.00  0.00    -0.276 N 
ENDROOT
BRANCH   1  24
ATOM     21  C   LIG    1       -4.273  -3.407  -2.994  0.00  0.00    +0.120 A 
ATOM     22  C   LIG    1       -4.601  -3.688  -1.675  0.00  0.00    +0.046 A 
ATOM     23  C   LIG    1       -3.613  -3.717  -0.710  0.00  0.00    +0.009 A 
ATOM     24  C   LIG    1       -2.298  -3.466  -1.057  0.00  0.00    -0.021 A 
ATOM     25  C   LIG    1       -1.970  -3.180  -2.370  0.00  0.00    +0.009 A 
ATOM     26  C   LIG    1       -2.953  -3.155  -3.340  0.00  0.00    +0.046 A 
BRANCH  21  28
ATOM     27  C   LIG    1       -4.833  -3.081  -5.281  0.00  0.00    +0.277 C 
ATOM     28  O   LIG    1       -5.243  -3.377  -3.945  0.00  0.00    -0.495 OA
ENDBRANCH  21  28
ENDBRANCH   1  24
BRANCH   8  29
ATOM     29  C   LIG    1        2.160  -8.088  -0.698  0.00  0.00    +0.077 C 
ATOM     30  C   LIG    1        2.557  -8.314  -2.171  0.00  0.00    +0.022 C 
ATOM     31  C   LIG    1        2.535  -9.854  -2.339  0.00  0.00    +0.002 C 
ATOM     32  C   LIG    1        1.315 -10.273  -1.482  0.00  0.00    +0.002 C 
ATOM     33  C   LIG    1        1.370  -9.334  -0.259  0.00  0.00    +0.022 C 
ENDBRANCH   8  29
TORSDOF 3
