REMARK  Name = ZINC09225358
REMARK                            x       y       z     vdW  Elec       q    Type
REMARK                         _______ _______ _______ _____ _____    ______ ____
ROOT
ATOM      1  C   LIG    1       -2.478  -0.398  -0.206  0.00  0.00    +0.211 C 
ATOM      2  O   LIG    1       -3.303  -1.255  -0.466  0.00  0.00    -0.285 OA
ENDROOT
BRANCH   1   5
ATOM      3  C   LIG    1       -1.407  -3.308   0.048  0.00  0.00    +0.066 C 
ATOM      4  C   LIG    1       -0.677  -2.043   0.419  0.00  0.00    +0.044 A 
ATOM      5  C   LIG    1       -1.158  -0.782   0.302  0.00  0.00    +0.110 A 
ATOM      6  N   LIG    1       -0.160   0.085   0.757  0.00  0.00    -0.303 N 
ATOM      7  C   LIG    1        0.892  -0.667   1.135  0.00  0.00    +0.325 A 
ATOM      8  O   LIG    1        1.942  -0.245   1.583  0.00  0.00    -0.247 OA
ATOM      9  H   LIG    1       -0.216   1.052   0.794  0.00  0.00    +0.171 HD
ATOM     10  N   LIG    1        0.587  -1.963   0.939  0.00  0.00    -0.310 N 
ATOM     11  H   LIG    1        1.167  -2.716   1.132  0.00  0.00    +0.170 HD
ENDBRANCH   1   5
BRANCH   1  12
ATOM     12  C   LIG    1       -2.807   1.027  -0.402  0.00  0.00    +0.024 A 
ATOM     13  C   LIG    1       -1.785   1.962  -0.591  0.00  0.00    +0.013 A 
ATOM     14  C   LIG    1       -2.093   3.285  -0.773  0.00  0.00    +0.015 A 
ATOM     15  C   LIG    1       -3.424   3.698  -0.770  0.00  0.00    +0.008 A 
ATOM     16  C   LIG    1       -4.444   2.769  -0.582  0.00  0.00    +0.015 A 
ATOM     17  C   LIG    1       -4.142   1.443  -0.406  0.00  0.00    +0.013 A 
BRANCH  15  18
ATOM     18  S   LIG    1       -3.817   5.400  -1.004  0.00  0.00    -0.129 S 
ATOM     19  C   LIG    1       -5.628   5.447  -0.923  0.00  0.00    +0.090 C 
ENDBRANCH  15  18
ENDBRANCH   1  12
TORSDOF 3
