REMARK  Name = ZINC11900191
REMARK                            x       y       z     vdW  Elec       q    Type
REMARK                         _______ _______ _______ _____ _____    ______ ____
ROOT
ATOM      1  N   LIG    1       -1.199  -0.722   0.009  0.00  0.00    -0.331 N 
ATOM      2  C   LIG    1       -1.329  -1.519   1.237  0.00  0.00    +0.086 C 
ATOM      3  C   LIG    1       -2.687  -2.225   1.243  0.00  0.00    -0.060 C 
ATOM      4  N   LIG    1       -2.777  -3.095   0.051  0.00  0.00    +0.383 N 
ATOM      5  H   LIG    1       -2.004  -3.771   0.073  0.00  0.00    -0.082 HD
ATOM      6  C   LIG    1       -2.668  -2.281  -1.177  0.00  0.00    -0.060 C 
ATOM      7  C   LIG    1       -1.310  -1.575  -1.183  0.00  0.00    +0.086 C 
ENDROOT
BRANCH   1  13
ATOM      8  C   LIG    1       -0.017   1.389   0.010  0.00  0.00    +0.141 A 
ATOM      9  C   LIG    1        1.175   2.094   0.002  0.00  0.00    +0.047 A 
ATOM     10  C   LIG    1        2.380   1.416  -0.013  0.00  0.00    +0.004 A 
ATOM     11  C   LIG    1        2.400   0.034  -0.021  0.00  0.00    +0.002 A 
ATOM     12  C   LIG    1        1.215  -0.677  -0.013  0.00  0.00    +0.027 A 
ATOM     13  C   LIG    1        0.002  -0.004   0.002  0.00  0.00    +0.072 A 
BRANCH   8  15
ATOM     14  C   LIG    1       -1.145   3.482   0.026  0.00  0.00    +0.277 C 
ATOM     15  O   LIG    1       -1.203   2.055   0.019  0.00  0.00    -0.493 OA
ENDBRANCH   8  15
ENDBRANCH   1  13
BRANCH   4  16
ATOM     16  C   LIG    1       -4.059  -3.831   0.059  0.00  0.00    -0.060 C 
BRANCH  16  17
ATOM     17  C   LIG    1       -4.278  -4.446   1.442  0.00  0.00    +0.086 C 
BRANCH  17  18
ATOM     18  N   LIG    1       -5.535  -5.197   1.450  0.00  0.00    -0.311 N 
ATOM     19  H   LIG    1       -6.079  -5.240   0.648  0.00  0.00    +0.149 HD
ATOM     20  C   LIG    1       -5.936  -5.829   2.571  0.00  0.00    +0.279 C 
ATOM     21  O   LIG    1       -5.254  -5.774   3.577  0.00  0.00    -0.267 OA
BRANCH  20  22
ATOM     22  C   LIG    1       -7.195  -6.581   2.579  0.00  0.00    +0.189 A 
ATOM     23  C   LIG    1       -7.716  -7.263   3.641  0.00  0.00    +0.054 A 
ATOM     24  C   LIG    1       -8.924  -7.829   3.204  0.00  0.00    +0.042 A 
ATOM     25  C   LIG    1       -9.085  -7.472   1.911  0.00  0.00    +0.196 A 
ATOM     26  O   LIG    1       -8.044  -6.716   1.539  0.00  0.00    -0.458 OA
ENDBRANCH  20  22
ENDBRANCH  17  18
ENDBRANCH  16  17
ENDBRANCH   4  16
TORSDOF 6
