REMARK  Name = ZINC09422426
REMARK                            x       y       z     vdW  Elec       q    Type
REMARK                         _______ _______ _______ _____ _____    ______ ____
ROOT
ATOM      1  N   LIG    1        2.372   3.879  -0.000  0.00  0.00    -0.298 N 
ATOM      2  H   LIG    1        2.257   4.712  -0.541  0.00  0.00    +0.154 HD
ENDROOT
BRANCH   1   3
ATOM      3  C   LIG    1        3.514   3.295  -0.521  0.00  0.00    +0.156 A 
ATOM      4  C   LIG    1        4.755   3.951  -0.443  0.00  0.00    +0.148 A 
ATOM      5  C   LIG    1        5.881   3.312  -0.988  0.00  0.00    +0.165 A 
ATOM      6  N   LIG    1        5.737   2.119  -1.556  0.00  0.00    -0.195 NA
ATOM      7  C   LIG    1        4.550   1.537  -1.609  0.00  0.00    +0.216 A 
ATOM      8  N   LIG    1        6.938   4.162  -0.776  0.00  0.00    -0.329 N 
ATOM      9  C   LIG    1        6.455   5.262  -0.130  0.00  0.00    +0.198 A 
ATOM     10  H   LIG    1        7.887   4.003  -1.046  0.00  0.00    +0.168 HD
ATOM     11  N   LIG    1        5.174   5.136   0.064  0.00  0.00    -0.231 NA
ATOM     12  N   LIG    1        3.462   2.102  -1.101  0.00  0.00    -0.197 NA
BRANCH   7  13
ATOM     13  N   LIG    1        4.441   0.293  -2.208  0.00  0.00    -0.327 N 
ATOM     14  H   LIG    1        3.579  -0.148  -2.256  0.00  0.00    +0.145 HD
ATOM     15  H   LIG    1        5.227  -0.136  -2.580  0.00  0.00    +0.145 HD
ENDBRANCH   7  13
ENDBRANCH   1   3
BRANCH   1  20
ATOM     16  C   LIG    1       -1.233   3.120  -0.115  0.00  0.00    +0.061 A 
ATOM     17  C   LIG    1       -1.210   1.734   0.051  0.00  0.00    +0.015 A 
ATOM     18  C   LIG    1       -0.006   1.078   0.208  0.00  0.00    +0.003 A 
ATOM     19  C   LIG    1        1.181   1.787   0.189  0.00  0.00    +0.023 A 
ATOM     20  C   LIG    1        1.169   3.167   0.018  0.00  0.00    +0.033 A 
ATOM     21  C   LIG    1       -0.036   3.836  -0.134  0.00  0.00    +0.038 A 
BRANCH  16  22
ATOM     22  C   LIG    1       -2.521   3.826  -0.277  0.00  0.00    +0.339 C 
ATOM     23  O   LIG    1       -2.539   5.031  -0.426  0.00  0.00    -0.245 OA
BRANCH  22  24
ATOM     24  O   LIG    1       -3.676   3.132  -0.258  0.00  0.00    -0.461 OA
BRANCH  24  26
ATOM     25  C   LIG    1       -6.101   2.940  -0.375  0.00  0.00    +0.048 C 
ATOM     26  C   LIG    1       -4.903   3.891  -0.423  0.00  0.00    +0.229 C 
ENDBRANCH  24  26
ENDBRANCH  22  24
ENDBRANCH  16  22
ENDBRANCH   1  20
TORSDOF 6
