REMARK  Name = ZINC12405397
REMARK                            x       y       z     vdW  Elec       q    Type
REMARK                         _______ _______ _______ _____ _____    ______ ____
ROOT
ATOM      1  C   LIG    1       -2.811  -0.231   0.013  0.00  0.00    +0.151 C 
ATOM      2  N   LIG    1       -2.524   1.206   0.021  0.00  0.00    -0.323 N 
ATOM      3  C   LIG    1       -1.290   1.791   0.018  0.00  0.00    +0.113 A 
ATOM      4  N   LIG    1       -1.431   3.107   0.032  0.00  0.00    -0.326 N 
ATOM      5  H   LIG    1       -0.659   3.784   0.039  0.00  0.00    +0.169 HD
ATOM      6  C   LIG    1       -2.726   3.421   0.034  0.00  0.00    +0.146 A 
ATOM      7  N   LIG    1       -3.416   4.623   0.044  0.00  0.00    -0.281 N 
ATOM      8  C   LIG    1       -2.679   5.889   0.048  0.00  0.00    +0.155 C 
ATOM      9  C   LIG    1       -4.762   4.629   0.050  0.00  0.00    +0.333 A 
ATOM     10  O   LIG    1       -5.350   5.693   0.058  0.00  0.00    -0.246 OA
ATOM     11  N   LIG    1       -5.473   3.488   0.046  0.00  0.00    -0.262 N 
ATOM     12  C   LIG    1       -6.937   3.551   0.053  0.00  0.00    +0.157 C 
ATOM     13  C   LIG    1       -4.860   2.287   0.038  0.00  0.00    +0.282 A 
ATOM     14  O   LIG    1       -5.516   1.260   0.035  0.00  0.00    -0.265 OA
ATOM     15  C   LIG    1       -3.451   2.232   0.031  0.00  0.00    +0.150 A 
ENDROOT
BRANCH   3  16
ATOM     16  C   LIG    1       -0.013   1.076   0.008  0.00  0.00    +0.045 C 
ATOM     17  C   LIG    1        1.146   1.766   0.001  0.00  0.00    +0.011 C 
BRANCH  17  18
ATOM     18  C   LIG    1        2.430   1.048  -0.015  0.00  0.00    -0.018 A 
ATOM     19  C   LIG    1        2.451  -0.351  -0.017  0.00  0.00    +0.057 A 
ATOM     20  C   LIG    1        3.659  -1.022  -0.036  0.00  0.00    +0.166 A 
ATOM     21  C   LIG    1        4.854  -0.308  -0.044  0.00  0.00    +0.204 A 
ATOM     22  C   LIG    1        4.837   1.084  -0.038  0.00  0.00    +0.166 A 
ATOM     23  C   LIG    1        3.632   1.762  -0.023  0.00  0.00    +0.057 A 
BRANCH  20  24
ATOM     24  O   LIG    1        3.680  -2.382  -0.042  0.00  0.00    -0.491 OA
ATOM     25  C   LIG    1        2.417  -3.051  -0.033  0.00  0.00    +0.277 C 
ENDBRANCH  20  24
BRANCH  21  26
ATOM     26  O   LIG    1        6.041  -0.972  -0.059  0.00  0.00    -0.488 OA
ATOM     27  C   LIG    1        6.618  -1.295   1.208  0.00  0.00    +0.277 C 
ENDBRANCH  21  26
BRANCH  22  28
ATOM     28  O   LIG    1        6.007   1.777  -0.045  0.00  0.00    -0.491 OA
ATOM     29  C   LIG    1        5.916   3.203  -0.037  0.00  0.00    +0.277 C 
ENDBRANCH  22  28
ENDBRANCH  17  18
ENDBRANCH   3  16
TORSDOF 5
