REMARK  Name = ZINC12370056
REMARK                            x       y       z     vdW  Elec       q    Type
REMARK                         _______ _______ _______ _____ _____    ______ ____
ROOT
ATOM      1  N   LIG    1       -7.267   4.566   0.067  0.00  0.00    -0.238 N 
ATOM      2  C   LIG    1       -6.015   4.059   0.030  0.00  0.00    +0.349 A 
ATOM      3  N   LIG    1       -6.125   2.716   0.021  0.00  0.00    -0.225 N 
ATOM      4  N   LIG    1       -7.367   2.386   0.056  0.00  0.00    -0.144 NA
ATOM      5  H   LIG    1       -5.381   2.094  -0.007  0.00  0.00    +0.194 HD
ATOM      6  O   LIG    1       -4.981   4.696   0.004  0.00  0.00    -0.245 OA
ATOM      7  C   LIG    1       -8.118   3.485   0.089  0.00  0.00    +0.203 A 
ENDROOT
BRANCH   1  11
ATOM      8  C   LIG    1       -8.336   8.597   0.114  0.00  0.00    +0.121 A 
ATOM      9  C   LIG    1       -9.316   7.621   0.007  0.00  0.00    +0.047 A 
ATOM     10  C   LIG    1       -8.963   6.287  -0.009  0.00  0.00    +0.030 A 
ATOM     11  C   LIG    1       -7.626   5.921   0.082  0.00  0.00    +0.054 A 
ATOM     12  C   LIG    1       -6.646   6.898   0.195  0.00  0.00    +0.030 A 
ATOM     13  C   LIG    1       -7.000   8.233   0.206  0.00  0.00    +0.047 A 
BRANCH   8  14
ATOM     14  O   LIG    1       -8.684   9.911   0.129  0.00  0.00    -0.487 OA
BRANCH  14  15
ATOM     15  C   LIG    1       -7.623  10.863   0.241  0.00  0.00    +0.264 C 
BRANCH  15  19
ATOM     16  C   LIG    1       -9.248  14.813   0.242  0.00  0.00    +0.000 A 
ATOM     17  C   LIG    1       -9.077  14.136   1.435  0.00  0.00    +0.000 A 
ATOM     18  C   LIG    1       -8.552  12.857   1.435  0.00  0.00    +0.007 A 
ATOM     19  C   LIG    1       -8.197  12.256   0.241  0.00  0.00    -0.010 A 
ATOM     20  C   LIG    1       -8.362  12.936  -0.951  0.00  0.00    +0.007 A 
ATOM     21  C   LIG    1       -8.893  14.212  -0.951  0.00  0.00    +0.000 A 
ENDBRANCH  15  19
ENDBRANCH  14  15
ENDBRANCH   8  14
ENDBRANCH   1  11
BRANCH   7  22
ATOM     22  S   LIG    1       -9.828   3.542   0.141  0.00  0.00    -0.023 S 
BRANCH  22  23
ATOM     23  C   LIG    1      -10.183   1.867   0.137  0.00  0.00    +0.144 A 
ATOM     24  N   LIG    1       -9.341   0.826   0.103  0.00  0.00    -0.238 NA
ATOM     25  C   LIG    1       -9.803  -0.385   0.112  0.00  0.00    +0.152 A 
ATOM     26  C   LIG    1      -11.188  -0.585   0.146  0.00  0.00    +0.179 A 
ATOM     27  S   LIG    1      -11.771   1.051   0.178  0.00  0.00    -0.037 S 
BRANCH  26  28
ATOM     28  N   LIG    1      -11.952  -1.853   0.159  0.00  0.00    +0.014 N 
ATOM     29  O   LIG    1      -11.315  -3.006   0.130  0.00  0.00    -0.129 OA
BRANCH  28  30
ATOM     30  O   LIG    1      -13.268  -1.829   0.204  0.00  0.00    -0.396 OA
ATOM     31  H   LIG    1      -13.721  -1.009   0.224  0.00  0.00    +0.329 HD
ENDBRANCH  28  30
ENDBRANCH  26  28
ENDBRANCH  22  23
ENDBRANCH   7  22
TORSDOF 8
