REMARK  Name = ZINC09295934
REMARK                            x       y       z     vdW  Elec       q    Type
REMARK                         _______ _______ _______ _____ _____    ______ ____
ROOT
ATOM      1  C   LIG    1        1.343   2.120  -0.255  0.00  0.00    -0.024 A 
ATOM      2  C   LIG    1        0.280   1.373  -0.778  0.00  0.00    +0.011 A 
ATOM      3  C   LIG    1        0.443   0.028  -1.025  0.00  0.00    +0.046 A 
ATOM      4  C   LIG    1        1.660  -0.588  -0.755  0.00  0.00    +0.121 A 
ATOM      5  C   LIG    1        2.718   0.149  -0.235  0.00  0.00    +0.046 A 
ATOM      6  C   LIG    1        2.566   1.494   0.016  0.00  0.00    +0.011 A 
ENDROOT
BRANCH   1  11
ATOM      7  N   LIG    1        3.325   6.085   1.604  0.00  0.00    -0.224 N 
ATOM      8  C   LIG    1        2.272   5.691   0.908  0.00  0.00    +0.261 C 
ATOM      9  C   LIG    1        2.137   4.239   0.678  0.00  0.00    +0.080 C 
ATOM     10  S   LIG    1        3.586   3.629   1.529  0.00  0.00    -0.026 S 
ATOM     11  C   LIG    1        1.175   3.555   0.009  0.00  0.00    +0.028 C 
ATOM     12  O   LIG    1        1.456   6.485   0.479  0.00  0.00    -0.269 OA
ATOM     13  C   LIG    1        4.228   5.202   2.077  0.00  0.00    +0.286 C 
ATOM     14  O   LIG    1        5.233   5.423   2.726  0.00  0.00    -0.262 OA
BRANCH   7  15
ATOM     15  C   LIG    1        3.516   7.514   1.866  0.00  0.00    +0.152 C 
BRANCH  15  22
ATOM     16  C   LIG    1        1.516   8.303   3.146  0.00  0.00    +0.008 A 
ATOM     17  C   LIG    1        0.886   8.637   4.330  0.00  0.00    +0.038 A 
ATOM     18  C   LIG    1        1.579   8.562   5.527  0.00  0.00    +0.123 A 
ATOM     19  F   LIG    1        0.966   8.894   6.684  0.00  0.00    -0.205 F 
ATOM     20  C   LIG    1        2.900   8.147   5.536  0.00  0.00    +0.038 A 
ATOM     21  C   LIG    1        3.525   7.808   4.351  0.00  0.00    +0.008 A 
ATOM     22  C   LIG    1        2.833   7.884   3.157  0.00  0.00    -0.029 A 
ENDBRANCH  15  22
ENDBRANCH   7  15
ENDBRANCH   1  11
BRANCH   4  23
ATOM     23  O   LIG    1        1.816  -1.914  -1.000  0.00  0.00    -0.487 OA
BRANCH  23  24
ATOM     24  C   LIG    1        3.091  -2.484  -0.700  0.00  0.00    +0.264 C 
BRANCH  24  25
ATOM     25  C   LIG    1        3.076  -3.953  -1.034  0.00  0.00    -0.010 A 
ATOM     26  C   LIG    1        2.702  -4.874  -0.072  0.00  0.00    +0.008 A 
ATOM     27  C   LIG    1        2.681  -6.221  -0.373  0.00  0.00    +0.015 A 
ATOM     28  C   LIG    1        3.049  -6.654  -1.648  0.00  0.00    +0.059 A 
ATOM     29  C   LIG    1        3.431  -5.719  -2.613  0.00  0.00    +0.015 A 
ATOM     30  C   LIG    1        3.442  -4.375  -2.300  0.00  0.00    +0.008 A 
BRANCH  28  31
ATOM     31  C   LIG    1        3.034  -8.094  -1.975  0.00  0.00    +0.337 C 
ATOM     32  O   LIG    1        3.354  -8.468  -3.086  0.00  0.00    -0.245 OA
BRANCH  31  33
ATOM     33  O   LIG    1        2.665  -8.993  -1.042  0.00  0.00    -0.477 OA
ATOM     34  H   LIG    1        2.418  -8.705  -0.186  0.00  0.00    +0.295 HD
ENDBRANCH  31  33
ENDBRANCH  28  31
ENDBRANCH  24  25
ENDBRANCH  23  24
ENDBRANCH   4  23
TORSDOF 8
