REMARK  Name = ZINC11934716
REMARK                            x       y       z     vdW  Elec       q    Type
REMARK                         _______ _______ _______ _____ _____    ______ ____
ROOT
ATOM      1  C   LIG    1        1.665   5.370   5.856  0.00  0.00    +0.132 C 
ATOM      2  N   LIG    1        2.760   6.138   5.256  0.00  0.00    -0.299 N 
ATOM      3  C   LIG    1        3.205   5.826   4.023  0.00  0.00    +0.268 C 
ATOM      4  O   LIG    1        4.154   6.422   3.550  0.00  0.00    -0.268 OA
ENDROOT
BRANCH   3   5
ATOM      5  C   LIG    1        2.542   4.761   3.247  0.00  0.00    +0.167 A 
ATOM      6  C   LIG    1        2.811   4.434   1.948  0.00  0.00    +0.143 A 
ATOM      7  N   LIG    1        1.990   3.415   1.623  0.00  0.00    -0.247 N 
ATOM      8  N   LIG    1        1.216   3.141   2.760  0.00  0.00    -0.065 NA
ATOM      9  N   LIG    1        1.571   3.948   3.698  0.00  0.00    -0.125 NA
BRANCH   7  10
ATOM     10  C   LIG    1        1.916   2.731   0.330  0.00  0.00    +0.181 C 
BRANCH  10  11
ATOM     11  C   LIG    1        2.107   1.250   0.534  0.00  0.00    -0.008 A 
ATOM     12  C   LIG    1        1.011   0.409   0.559  0.00  0.00    +0.007 A 
ATOM     13  C   LIG    1        1.186  -0.950   0.745  0.00  0.00    +0.000 A 
ATOM     14  C   LIG    1        2.458  -1.468   0.906  0.00  0.00    +0.001 A 
ATOM     15  C   LIG    1        3.554  -0.627   0.881  0.00  0.00    +0.020 A 
ATOM     16  C   LIG    1        3.380   0.733   0.695  0.00  0.00    +0.046 A 
ATOM     17 CL   LIG    1        4.757   1.789   0.664  0.00  0.00    -0.083 Cl
ENDBRANCH  10  11
ENDBRANCH   7  10
ENDBRANCH   3   5
BRANCH   2  18
ATOM     18  C   LIG    1        3.369   7.245   5.997  0.00  0.00    +0.111 C 
BRANCH  18  19
ATOM     19  C   LIG    1        2.625   8.543   5.677  0.00  0.00    +0.003 C 
ATOM     20  C   LIG    1        2.822   8.896   4.201  0.00  0.00    -0.014 C 
ATOM     21  C   LIG    1        2.127  10.226   3.902  0.00  0.00    -0.078 C 
ATOM     22  N   LIG    1        2.723  11.281   4.750  0.00  0.00    +0.382 N 
ATOM     23  H   LIG    1        3.736  11.306   4.587  0.00  0.00    -0.081 HD
ATOM     24  C   LIG    1        2.474  10.985   6.177  0.00  0.00    -0.078 C 
ATOM     25  C   LIG    1        3.180   9.678   6.544  0.00  0.00    -0.014 C 
BRANCH  22  26
ATOM     26  C   LIG    1        2.147  12.595   4.400  0.00  0.00    -0.043 C 
BRANCH  26  27
ATOM     27  C   LIG    1        2.600  12.969   3.012  0.00  0.00    -0.064 A 
ATOM     28  C   LIG    1        3.777  13.672   2.835  0.00  0.00    +0.002 A 
ATOM     29  C   LIG    1        4.196  14.011   1.562  0.00  0.00    +0.000 A 
ATOM     30  C   LIG    1        3.432  13.655   0.466  0.00  0.00    +0.000 A 
ATOM     31  C   LIG    1        2.252  12.957   0.643  0.00  0.00    +0.000 A 
ATOM     32  C   LIG    1        1.836  12.613   1.916  0.00  0.00    +0.002 A 
ENDBRANCH  26  27
ENDBRANCH  22  26
ENDBRANCH  18  19
ENDBRANCH   2  18
TORSDOF 7
