REMARK  Name = ZINC12620329
REMARK                            x       y       z     vdW  Elec       q    Type
REMARK                         _______ _______ _______ _____ _____    ______ ____
ROOT
ATOM      1  C   LIG    1       -0.017   1.376   0.010  0.00  0.00    +0.001 A 
ATOM      2  C   LIG    1        1.172   2.086   0.002  0.00  0.00    +0.002 A 
ATOM      3  C   LIG    1        2.386   1.427  -0.013  0.00  0.00    +0.024 A 
ATOM      4  C   LIG    1        2.426   0.038  -0.021  0.00  0.00    +0.043 A 
ATOM      5  C   LIG    1        1.220  -0.678  -0.013  0.00  0.00    +0.027 A 
ATOM      6  C   LIG    1        1.583  -2.111  -0.024  0.00  0.00    +0.135 C 
ATOM      7  C   LIG    1        3.068  -2.129  -0.038  0.00  0.00    +0.267 C 
ATOM      8  O   LIG    1        3.773  -3.120  -0.050  0.00  0.00    -0.268 OA
ATOM      9  N   LIG    1        0.771  -3.141  -0.022  0.00  0.00    -0.242 NA
ATOM     10  N   LIG    1        3.493  -0.855  -0.035  0.00  0.00    -0.280 N 
ATOM     11  H   LIG    1        4.426  -0.590  -0.043  0.00  0.00    +0.155 HD
ATOM     12  C   LIG    1        0.002  -0.004   0.002  0.00  0.00    +0.012 A 
ENDROOT
BRANCH   9  13
ATOM     13  C   LIG    1        1.275  -4.404  -0.033  0.00  0.00    +0.065 A 
ATOM     14  C   LIG    1        2.328  -4.735  -0.896  0.00  0.00    +0.030 A 
ATOM     15  C   LIG    1        2.833  -6.017  -0.900  0.00  0.00    +0.034 A 
ATOM     16  C   LIG    1        2.303  -6.977  -0.054  0.00  0.00    +0.122 A 
ATOM     17  C   LIG    1        1.262  -6.659   0.802  0.00  0.00    +0.034 A 
ATOM     18  C   LIG    1        0.749  -5.380   0.823  0.00  0.00    +0.030 A 
BRANCH  16  19
ATOM     19  N   LIG    1        2.852  -8.352  -0.066  0.00  0.00    +0.006 N 
ATOM     20  O   LIG    1        3.760  -8.634  -0.813  0.00  0.00    -0.130 OA
BRANCH  19  21
ATOM     21  O   LIG    1        2.392  -9.193   0.671  0.00  0.00    -0.396 OA
ATOM     22  H   LIG    1        1.688  -8.974   1.249  0.00  0.00    +0.329 HD
ENDBRANCH  19  21
ENDBRANCH  16  19
ENDBRANCH   9  13
TORSDOF 3
