REMARK  Name = ZINC08652535
REMARK                            x       y       z     vdW  Elec       q    Type
REMARK                         _______ _______ _______ _____ _____    ______ ____
ROOT
ATOM      1  C   LIG    1        4.003   3.210   0.005  0.00  0.00    +0.224 C 
ATOM      2  N   LIG    1        3.707   1.932   0.316  0.00  0.00    -0.257 N 
ATOM      3  C   LIG    1        2.416   1.397   0.366  0.00  0.00    +0.040 A 
ATOM      4  C   LIG    1        1.191   2.019   0.120  0.00  0.00    +0.024 A 
ATOM      5  C   LIG    1        0.016   1.305   0.225  0.00  0.00    +0.002 A 
ATOM      6  C   LIG    1        0.043  -0.033   0.574  0.00  0.00    +0.000 A 
ATOM      7  C   LIG    1        1.252  -0.655   0.819  0.00  0.00    +0.005 A 
ATOM      8  C   LIG    1        2.433   0.056   0.716  0.00  0.00    -0.024 A 
ATOM      9  C   LIG    1        3.869  -0.369   0.925  0.00  0.00    +0.071 C 
ATOM     10  C   LIG    1        4.692   0.900   0.652  0.00  0.00    +0.194 C 
ATOM     11  O   LIG    1        3.122   3.970  -0.338  0.00  0.00    -0.275 OA
ENDROOT
BRANCH   1  13
ATOM     12  C   LIG    1        6.189   3.242  -1.163  0.00  0.00    +0.018 C 
ATOM     13  C   LIG    1        5.428   3.694   0.084  0.00  0.00    +0.082 C 
BRANCH  13  14
ATOM     14  C   LIG    1        5.443   5.222   0.165  0.00  0.00    +0.078 C 
BRANCH  14  15
ATOM     15  S   LIG    1        7.146   5.797   0.408  0.00  0.00    -0.178 S 
ATOM     16  H   LIG    1        7.032   7.136   0.463  0.00  0.00    +0.102 HD
ENDBRANCH  14  15
ENDBRANCH  13  14
ENDBRANCH   1  13
BRANCH  10  17
ATOM     17  C   LIG    1        5.465   1.296   1.883  0.00  0.00    +0.326 C 
ATOM     18  O   LIG    1        5.224   2.342   2.438  0.00  0.00    -0.249 OA
BRANCH  17  19
ATOM     19  O   LIG    1        6.422   0.486   2.365  0.00  0.00    -0.479 OA
ATOM     20  H   LIG    1        6.609  -0.325   1.935  0.00  0.00    +0.295 HD
ENDBRANCH  17  19
ENDBRANCH  10  17
TORSDOF 5
