REMARK  Name = ZINC12640103
REMARK                            x       y       z     vdW  Elec       q    Type
REMARK                         _______ _______ _______ _____ _____    ______ ____
ROOT
ATOM      1  C   LIG    1       -0.213  -0.325   2.490  0.00  0.00    +0.085 C 
ATOM      2  C   LIG    1       -1.573   0.346   2.699  0.00  0.00    +0.006 C 
ATOM      3  C   LIG    1       -1.654   0.890   4.127  0.00  0.00    -0.076 C 
ATOM      4  N   LIG    1       -0.584   1.873   4.340  0.00  0.00    +0.386 N 
ATOM      5  H   LIG    1       -0.662   2.607   3.653  0.00  0.00    -0.081 HD
ATOM      6  C   LIG    1        0.724   1.220   4.212  0.00  0.00    -0.076 C 
ATOM      7  C   LIG    1        0.896   0.689   2.788  0.00  0.00    +0.006 C 
ENDROOT
BRANCH   1  17
ATOM      8  C   LIG    1        0.023  -3.275   1.591  0.00  0.00    +0.086 C 
ATOM      9  C   LIG    1        0.005  -2.071   0.684  0.00  0.00    +0.108 A 
ATOM     10  N   LIG    1        0.082  -2.116  -0.614  0.00  0.00    -0.233 NA
ATOM     11  C   LIG    1        0.037  -0.855  -1.117  0.00  0.00    +0.089 A 
ATOM     12  C   LIG    1        0.082  -0.332  -2.413  0.00  0.00    +0.030 A 
ATOM     13  C   LIG    1        0.015   1.019  -2.604  0.00  0.00    +0.002 A 
ATOM     14  C   LIG    1       -0.096   1.882  -1.523  0.00  0.00    +0.002 A 
ATOM     15  C   LIG    1       -0.141   1.389  -0.237  0.00  0.00    +0.028 A 
ATOM     16  C   LIG    1       -0.075   0.018  -0.023  0.00  0.00    +0.069 A 
ATOM     17  N   LIG    1       -0.099  -0.781   1.102  0.00  0.00    -0.325 N 
ENDBRANCH   1  17
BRANCH   4  18
ATOM     18  C   LIG    1       -0.713   2.449   5.685  0.00  0.00    +0.019 C 
BRANCH  18  19
ATOM     19  C   LIG    1        0.307   3.544   5.862  0.00  0.00    +0.201 C 
ATOM     20  N   LIG    1        0.376   4.220   7.026  0.00  0.00    -0.286 N 
ATOM     21  H   LIG    1       -0.175   3.949   7.777  0.00  0.00    +0.155 HD
ATOM     22  O   LIG    1        1.067   3.817   4.957  0.00  0.00    -0.278 OA
BRANCH  20  23
ATOM     23  C   LIG    1        1.242   5.312   7.151  0.00  0.00    +0.047 A 
ATOM     24  C   LIG    1        1.632   6.024   6.025  0.00  0.00    +0.024 A 
ATOM     25  C   LIG    1        2.486   7.102   6.152  0.00  0.00    +0.002 A 
ATOM     26  C   LIG    1        2.954   7.472   7.399  0.00  0.00    +0.001 A 
ATOM     27  C   LIG    1        2.569   6.766   8.523  0.00  0.00    +0.017 A 
ATOM     28  C   LIG    1        1.709   5.690   8.404  0.00  0.00    +0.039 A 
ATOM     29 BR   LIG    1        1.176   4.729   9.943  0.00  0.00    -0.048 Br
ENDBRANCH  20  23
ENDBRANCH  18  19
ENDBRANCH   4  18
TORSDOF 4
