REMARK  Name = ZINC10971696
REMARK                            x       y       z     vdW  Elec       q    Type
REMARK                         _______ _______ _______ _____ _____    ______ ____
ROOT
ATOM      1  C   LIG    1        0.326   6.745  -3.848  0.00  0.00    +0.165 A 
ATOM      2  N   LIG    1       -0.907   6.576  -3.412  0.00  0.00    -0.233 NA
ATOM      3  C   LIG    1       -1.146   6.130  -2.194  0.00  0.00    +0.124 A 
ATOM      4  C   LIG    1       -0.091   5.857  -1.388  0.00  0.00    +0.015 A 
ATOM      5  S   LIG    1        1.270   6.260  -2.474  0.00  0.00    -0.057 S 
ENDROOT
BRANCH   1   7
ATOM      6  C   LIG    1       -0.141   7.527  -6.037  0.00  0.00    +0.250 C 
ATOM      7  N   LIG    1        0.758   7.195  -5.089  0.00  0.00    -0.261 N 
ATOM      8  H   LIG    1        1.707   7.271  -5.274  0.00  0.00    +0.157 HD
ATOM      9  O   LIG    1       -1.331   7.432  -5.805  0.00  0.00    -0.270 OA
BRANCH   6  13
ATOM     10  C   LIG    1        1.188   8.905  -9.831  0.00  0.00    +0.162 A 
ATOM     11  C   LIG    1        2.112   8.563  -8.853  0.00  0.00    +0.050 A 
ATOM     12  C   LIG    1        1.685   8.120  -7.620  0.00  0.00    +0.017 A 
ATOM     13  C   LIG    1        0.318   8.005  -7.355  0.00  0.00    +0.041 A 
ATOM     14  C   LIG    1       -0.613   8.350  -8.338  0.00  0.00    +0.062 A 
ATOM     15  C   LIG    1       -0.178   8.797  -9.570  0.00  0.00    +0.162 A 
BRANCH  10  17
ATOM     16  C   LIG    1        3.026   9.431 -11.241  0.00  0.00    +0.277 C 
ATOM     17  O   LIG    1        1.614   9.345 -11.042  0.00  0.00    -0.491 OA
ENDBRANCH  10  17
BRANCH  15  18
ATOM     18  O   LIG    1       -1.081   9.133 -10.530  0.00  0.00    -0.491 OA
ATOM     19  C   LIG    1       -2.464   8.998 -10.195  0.00  0.00    +0.277 C 
ENDBRANCH  15  18
ENDBRANCH   6  13
ENDBRANCH   1   7
BRANCH   4  20
ATOM     20  C   LIG    1       -0.070   5.347   0.030  0.00  0.00    +0.079 C 
BRANCH  20  21
ATOM     21  C   LIG    1       -0.050   3.840   0.022  0.00  0.00    -0.042 A 
ATOM     22  C   LIG    1        1.157   3.165   0.008  0.00  0.00    +0.004 A 
ATOM     23  C   LIG    1        1.175   1.783   0.000  0.00  0.00    +0.001 A 
ATOM     24  C   LIG    1       -0.013   1.076   0.008  0.00  0.00    +0.012 A 
ATOM     25  C   LIG    1       -1.219   1.750   0.017  0.00  0.00    +0.055 A 
ATOM     26  C   LIG    1       -1.238   3.133   0.030  0.00  0.00    +0.016 A 
BRANCH  25  27
ATOM     27  C   LIG    1       -2.514   0.979   0.019  0.00  0.00    +0.417 C 
ATOM     28  F   LIG    1       -3.257   1.314  -1.118  0.00  0.00    -0.166 F 
ATOM     29  F   LIG    1       -3.246   1.301   1.167  0.00  0.00    -0.166 F 
ATOM     30  F   LIG    1       -2.239  -0.392   0.010  0.00  0.00    -0.166 F 
ENDBRANCH  25  27
ENDBRANCH  20  21
ENDBRANCH   4  20
TORSDOF 7
