REMARK  Name = ZINC11909404
REMARK                            x       y       z     vdW  Elec       q    Type
REMARK                         _______ _______ _______ _____ _____    ______ ____
ROOT
ATOM      1  C   LIG    1        1.994  -6.416  -0.062  0.00  0.00    -0.077 C 
ENDROOT
BRANCH   1   5
ATOM      2  N   LIG    1       -0.075  -2.780  -0.013  0.00  0.00    -0.331 N 
ATOM      3  C   LIG    1        0.573  -3.197   1.240  0.00  0.00    +0.086 C 
ATOM      4  C   LIG    1        0.853  -4.701   1.165  0.00  0.00    -0.060 C 
ATOM      5  N   LIG    1        1.631  -4.993  -0.046  0.00  0.00    +0.382 N 
ATOM      6  H   LIG    1        2.471  -4.434  -0.047  0.00  0.00    -0.082 HD
ATOM      7  C   LIG    1        0.835  -4.679  -1.240  0.00  0.00    -0.060 C 
ATOM      8  C   LIG    1        0.551  -3.178  -1.283  0.00  0.00    +0.086 C 
BRANCH   2  14
ATOM      9  C   LIG    1       -1.201  -0.638   0.010  0.00  0.00    +0.141 A 
ATOM     10  C   LIG    1       -2.374   0.099   0.019  0.00  0.00    +0.047 A 
ATOM     11  C   LIG    1       -3.597  -0.547   0.028  0.00  0.00    +0.004 A 
ATOM     12  C   LIG    1       -3.653  -1.928   0.027  0.00  0.00    +0.002 A 
ATOM     13  C   LIG    1       -2.487  -2.671   0.017  0.00  0.00    +0.027 A 
ATOM     14  C   LIG    1       -1.257  -2.030   0.003  0.00  0.00    +0.072 A 
BRANCH   9  16
ATOM     15  C   LIG    1       -0.017   1.425   0.010  0.00  0.00    +0.277 C 
ATOM     16  O   LIG    1        0.002  -0.004   0.002  0.00  0.00    -0.493 OA
ENDBRANCH   9  16
ENDBRANCH   2  14
ENDBRANCH   1   5
BRANCH   1  17
ATOM     17  C   LIG    1        2.908  -6.696  -1.256  0.00  0.00    +0.000 C 
BRANCH  17  18
ATOM     18  C   LIG    1        3.285  -8.179  -1.273  0.00  0.00    +0.102 C 
BRANCH  18  19
ATOM     19  N   LIG    1        4.161  -8.447  -2.417  0.00  0.00    -0.311 N 
ATOM     20  H   LIG    1        4.408  -7.727  -3.018  0.00  0.00    +0.149 HD
ATOM     21  C   LIG    1        4.622  -9.694  -2.634  0.00  0.00    +0.244 C 
ATOM     22  O   LIG    1        4.312 -10.597  -1.881  0.00  0.00    -0.270 OA
BRANCH  21  23
ATOM     23  C   LIG    1        5.505  -9.965  -3.788  0.00  0.00    +0.037 A 
ATOM     24  C   LIG    1        5.865  -8.915  -4.652  0.00  0.00    +0.013 A 
ATOM     25  C   LIG    1        6.675  -9.139  -5.718  0.00  0.00    +0.009 A 
ATOM     26  C   LIG    1        7.166 -10.433  -5.971  0.00  0.00    -0.018 A 
ATOM     27  C   LIG    1        8.005 -10.688  -7.068  0.00  0.00    +0.008 A 
ATOM     28  C   LIG    1        8.465 -11.951  -7.287  0.00  0.00    +0.001 A 
ATOM     29  C   LIG    1        8.115 -13.000  -6.438  0.00  0.00    +0.001 A 
ATOM     30  C   LIG    1        7.304 -12.791  -5.365  0.00  0.00    +0.008 A 
ATOM     31  C   LIG    1        6.810 -11.499  -5.107  0.00  0.00    -0.017 A 
ATOM     32  C   LIG    1        5.977 -11.249  -4.006  0.00  0.00    +0.021 A 
ENDBRANCH  21  23
ENDBRANCH  18  19
ENDBRANCH  17  18
ENDBRANCH   1  17
TORSDOF 7
