REMARK  Name = ZINC12405544
REMARK                            x       y       z     vdW  Elec       q    Type
REMARK                         _______ _______ _______ _____ _____    ______ ____
ROOT
ATOM      1  N   LIG    1        1.822  -0.436   0.016  0.00  0.00    -0.324 N 
ATOM      2  C   LIG    1        0.684   0.230   0.359  0.00  0.00    +0.200 A 
ATOM      3  N   LIG    1        0.927   1.504   0.462  0.00  0.00    -0.232 NA
ATOM      4  C   LIG    1        2.234   1.740   0.194  0.00  0.00    +0.128 A 
ATOM      5  C   LIG    1        3.038   2.890   0.153  0.00  0.00    +0.144 A 
ATOM      6  N   LIG    1        4.321   2.788  -0.152  0.00  0.00    -0.238 NA
ATOM      7  C   LIG    1        4.892   1.626  -0.427  0.00  0.00    +0.115 A 
ATOM      8  C   LIG    1        4.181   0.459  -0.410  0.00  0.00    +0.048 A 
ATOM      9  C   LIG    1        2.824   0.498  -0.096  0.00  0.00    +0.074 A 
ENDROOT
BRANCH   5  10
ATOM     10  N   LIG    1        2.487   4.133   0.434  0.00  0.00    -0.341 N 
ATOM     11  H   LIG    1        1.420   4.217   0.689  0.00  0.00    +0.144 HD
ATOM     12  H   LIG    1        3.118   5.034   0.403  0.00  0.00    +0.144 HD
ENDBRANCH   5  10
BRANCH   1  13
ATOM     13  C   LIG    1        1.954  -1.880  -0.194  0.00  0.00    +0.117 C 
BRANCH  13  14
ATOM     14  C   LIG    1        1.575  -2.619   1.091  0.00  0.00    +0.134 C 
ATOM     15  C   LIG    1        2.408  -2.078   2.255  0.00  0.00    +0.040 C 
BRANCH  14  16
ATOM     16  O   LIG    1        1.831  -4.016   0.930  0.00  0.00    -0.390 OA
ATOM     17  H   LIG    1        1.619  -4.712   1.755  0.00  0.00    +0.210 HD
ENDBRANCH  14  16
ENDBRANCH  13  14
BRANCH  13  18
ATOM     18  C   LIG    1        1.023  -2.317  -1.327  0.00  0.00    +0.028 C 
BRANCH  18  19
ATOM     19  C   LIG    1        1.268  -3.793  -1.648  0.00  0.00    +0.002 C 
BRANCH  19  20
ATOM     20  C   LIG    1        0.440  -4.194  -2.870  0.00  0.00    +0.000 C 
BRANCH  20  21
ATOM     21  C   LIG    1        0.685  -5.669  -3.191  0.00  0.00    -0.000 C 
BRANCH  21  23
ATOM     22  C   LIG    1        0.102  -7.546  -4.734  0.00  0.00    +0.004 C 
ATOM     23  C   LIG    1       -0.143  -6.070  -4.413  0.00  0.00    -0.003 C 
ENDBRANCH  21  23
ENDBRANCH  20  21
ENDBRANCH  19  20
ENDBRANCH  18  19
ENDBRANCH  13  18
ENDBRANCH   1  13
TORSDOF 9
