REMARK  Name = ZINC11597113
REMARK                            x       y       z     vdW  Elec       q    Type
REMARK                         _______ _______ _______ _____ _____    ______ ____
ROOT
ATOM      1  C   LIG    1        1.143  -2.181  -0.052  0.00  0.00    -0.040 C 
ATOM      2  N   LIG    1        2.399  -2.724   0.483  0.00  0.00    +0.384 N 
ATOM      3  H   LIG    1        2.467  -2.501   1.484  0.00  0.00    -0.085 HD
ATOM      4  H   LIG    1        2.411  -3.743   0.358  0.00  0.00    -0.085 HD
ATOM      5  C   LIG    1        3.547  -2.131  -0.228  0.00  0.00    -0.077 C 
ATOM      6  C   LIG    1        3.680  -0.668   0.197  0.00  0.00    +0.016 C 
ATOM      7  C   LIG    1        2.351   0.030   0.061  0.00  0.00    -0.048 A 
ATOM      8  C   LIG    1        2.330   1.416   0.049  0.00  0.00    +0.004 A 
ATOM      9  C   LIG    1        1.134   2.095  -0.069  0.00  0.00    +0.000 A 
ATOM     10  C   LIG    1       -0.050   1.388  -0.175  0.00  0.00    +0.000 A 
ATOM     11  C   LIG    1       -0.030   0.008  -0.164  0.00  0.00    +0.002 A 
ATOM     12  C   LIG    1        1.171  -0.675  -0.048  0.00  0.00    -0.058 A 
ENDROOT
BRANCH   1  13
ATOM     13  C   LIG    1       -0.021  -2.667   0.813  0.00  0.00    -0.008 C 
BRANCH  13  15
ATOM     14  C   LIG    1       -1.174  -4.689   1.722  0.00  0.00    +0.007 C 
ATOM     15  C   LIG    1       -0.103  -4.193   0.748  0.00  0.00    -0.018 C 
ATOM     16  C   LIG    1       -0.469  -4.624  -0.674  0.00  0.00    +0.007 C 
ENDBRANCH  13  15
ENDBRANCH   1  13
TORSDOF 2
