REMARK  Name = ZINC08830553
REMARK                            x       y       z     vdW  Elec       q    Type
REMARK                         _______ _______ _______ _____ _____    ______ ____
ROOT
ATOM      1  C   LIG    1        0.000  -0.687  -1.196  0.00  0.00    +0.196 A 
ATOM      2  N   LIG    1        0.012  -2.047  -1.324  0.00  0.00    -0.325 N 
ATOM      3  C   LIG    1        0.004  -2.332  -2.680  0.00  0.00    +0.084 A 
ATOM      4  C   LIG    1       -0.013  -1.092  -3.340  0.00  0.00    +0.107 A 
ATOM      5  C   LIG    1       -0.024  -1.056  -4.737  0.00  0.00    +0.060 A 
ATOM      6 BR   LIG    1       -0.047   0.605  -5.642  0.00  0.00    -0.047 Br
ATOM      7  C   LIG    1       -0.019  -2.234  -5.453  0.00  0.00    +0.049 A 
ATOM      8 BR   LIG    1       -0.035  -2.184  -7.343  0.00  0.00    -0.048 Br
ATOM      9  C   LIG    1       -0.003  -3.456  -4.796  0.00  0.00    +0.049 A 
ATOM     10 BR   LIG    1        0.003  -5.061  -5.797  0.00  0.00    -0.048 Br
ATOM     11  C   LIG    1        0.009  -3.508  -3.416  0.00  0.00    +0.058 A 
ATOM     12 BR   LIG    1        0.032  -5.179  -2.530  0.00  0.00    -0.047 Br
ATOM     13  H   LIG    1        0.023  -2.693  -0.601  0.00  0.00    +0.169 HD
ATOM     14  N   LIG    1       -0.019  -0.129  -2.381  0.00  0.00    -0.213 NA
ENDROOT
BRANCH   1  16
ATOM     15  C   LIG    1       -0.018   1.461   0.010  0.00  0.00    +0.132 C 
ATOM     16  N   LIG    1        0.002  -0.004   0.002  0.00  0.00    -0.307 N 
ATOM     17  C   LIG    1        0.024  -0.743   1.267  0.00  0.00    +0.132 C 
ENDBRANCH   1  16
TORSDOF 1
