REMARK  Name = ZINC12406757
REMARK                            x       y       z     vdW  Elec       q    Type
REMARK                         _______ _______ _______ _____ _____    ______ ____
ROOT
ATOM      1  C   LIG    1       -0.247   5.368   0.031  0.00  0.00    +0.064 C 
ATOM      2  C   LIG    1       -0.146   3.864   0.022  0.00  0.00    +0.033 A 
ATOM      3  C   LIG    1        1.085   3.261   0.009  0.00  0.00    +0.085 A 
ATOM      4  C   LIG    1        1.164   1.792   0.001  0.00  0.00    +0.075 A 
ATOM      5  N   LIG    1        2.499   1.471  -0.013  0.00  0.00    -0.288 N 
ATOM      6  N   LIG    1        3.268   2.638  -0.014  0.00  0.00    -0.194 N 
ATOM      7  H   LIG    1        2.855   0.569  -0.021  0.00  0.00    +0.188 HD
ATOM      8  C   LIG    1       -0.013   1.076   0.008  0.00  0.00    +0.098 A 
ATOM      9  C   LIG    1       -1.228   1.772   0.017  0.00  0.00    +0.254 A 
ATOM     10  O   LIG    1       -2.275   1.144   0.019  0.00  0.00    -0.268 OA
ATOM     11  C   LIG    1        2.478   3.730  -0.002  0.00  0.00    +0.283 A 
ATOM     12  O   LIG    1        2.848   4.888   0.000  0.00  0.00    -0.265 OA
ATOM     13  N   LIG    1       -1.267   3.114   0.028  0.00  0.00    -0.311 N 
ENDROOT
BRANCH   6  14
ATOM     14  C   LIG    1        4.652   2.669  -0.026  0.00  0.00    +0.196 A 
ATOM     15  N   LIG    1        5.453   3.709  -0.033  0.00  0.00    -0.221 NA
ATOM     16  C   LIG    1        6.798   3.590  -0.040  0.00  0.00    +0.081 A 
ATOM     17  C   LIG    1        7.766   4.621  -0.043  0.00  0.00    +0.029 A 
ATOM     18  C   LIG    1        9.104   4.325  -0.057  0.00  0.00    +0.002 A 
ATOM     19  C   LIG    1        9.556   3.013  -0.068  0.00  0.00    +0.001 A 
ATOM     20  C   LIG    1        8.638   1.980  -0.065  0.00  0.00    +0.017 A 
ATOM     21  C   LIG    1        7.295   2.267  -0.051  0.00  0.00    +0.041 A 
ATOM     22  S   LIG    1        5.803   1.302  -0.043  0.00  0.00    -0.048 S 
ENDBRANCH   6  14
BRANCH  13  23
ATOM     23  C   LIG    1       -2.569   3.785   0.043  0.00  0.00    +0.131 C 
BRANCH  23  24
ATOM     24  C   LIG    1       -3.035   4.026  -1.395  0.00  0.00    +0.076 C 
BRANCH  24  25
ATOM     25  C   LIG    1       -4.374   4.717  -1.379  0.00  0.00    +0.035 A 
ATOM     26  N   LIG    1       -5.478   4.282  -0.755  0.00  0.00    -0.350 N 
ATOM     27  H   LIG    1       -5.549   3.417  -0.207  0.00  0.00    +0.166 HD
ATOM     28  C   LIG    1       -6.449   5.131  -0.954  0.00  0.00    +0.171 A 
ATOM     29  N   LIG    1       -5.990   6.139  -1.726  0.00  0.00    -0.352 N 
ATOM     30  H   LIG    1       -6.513   6.931  -2.042  0.00  0.00    +0.166 HD
ATOM     31  C   LIG    1       -4.674   5.876  -1.996  0.00  0.00    +0.105 A 
ENDBRANCH  24  25
ENDBRANCH  23  24
ENDBRANCH  13  23
TORSDOF 4
