REMARK  Name = ZINC12367067
REMARK                            x       y       z     vdW  Elec       q    Type
REMARK                         _______ _______ _______ _____ _____    ______ ____
ROOT
ATOM      1  C   LIG    1       -0.050   4.503   0.026  0.00  0.00    +0.030 A 
ATOM      2  C   LIG    1        1.153   3.825   0.011  0.00  0.00    +0.042 A 
ATOM      3  C   LIG    1        1.170   2.441   0.004  0.00  0.00    +0.142 A 
ATOM      4  F   LIG    1        2.348   1.780  -0.011  0.00  0.00    -0.204 F 
ATOM      5  C   LIG    1       -0.021   1.732   0.012  0.00  0.00    +0.078 A 
ATOM      6 CL   LIG    1        0.002  -0.004   0.002  0.00  0.00    -0.081 Cl
ATOM      7  C   LIG    1       -1.228   2.406   0.021  0.00  0.00    +0.049 A 
ATOM      8  C   LIG    1       -1.245   3.795   0.034  0.00  0.00    +0.058 A 
ENDROOT
BRANCH   8   9
ATOM      9  N   LIG    1       -2.465   4.480   0.050  0.00  0.00    -0.246 N 
ATOM     10  C   LIG    1       -3.669   4.055  -0.388  0.00  0.00    +0.262 A 
ATOM     11  C   LIG    1       -4.739   4.921  -0.265  0.00  0.00    +0.079 A 
ATOM     12  C   LIG    1       -4.484   6.136   0.291  0.00  0.00    +0.069 A 
ATOM     13  O   LIG    1       -3.808   2.943  -0.875  0.00  0.00    -0.267 OA
ATOM     14  S   LIG    1       -2.789   6.052   0.635  0.00  0.00    -0.012 S 
ENDBRANCH   8   9
TORSDOF 1
