REMARK  Name = ZINC09485329
REMARK                            x       y       z     vdW  Elec       q    Type
REMARK                         _______ _______ _______ _____ _____    ______ ____
ROOT
ATOM      1  C   LIG    1       -1.195   3.336  -7.130  0.00  0.00    +0.403 C 
ATOM      2  N   LIG    1       -0.718   3.010  -5.913  0.00  0.00    -0.264 N 
ATOM      3  C   LIG    1        0.489   2.182  -5.779  0.00  0.00    +0.130 C 
ATOM      4  C   LIG    1        0.154   0.966  -4.907  0.00  0.00    +0.127 C 
ATOM      5  N   LIG    1       -0.524   1.433  -3.689  0.00  0.00    -0.298 N 
ATOM      6  C   LIG    1       -0.047   1.107  -2.471  0.00  0.00    +0.216 C 
ATOM      7  O   LIG    1        0.949   0.422  -2.373  0.00  0.00    -0.276 OA
ATOM      8  C   LIG    1       -1.734   2.256  -3.823  0.00  0.00    +0.127 C 
ATOM      9  C   LIG    1       -1.396   3.477  -4.695  0.00  0.00    +0.130 C 
ATOM     10  O   LIG    1       -0.626   2.945  -8.130  0.00  0.00    -0.226 OA
ENDROOT
BRANCH   1  11
ATOM     11  O   LIG    1       -2.301   4.096  -7.239  0.00  0.00    -0.445 OA
BRANCH  11  13
ATOM     12  C   LIG    1       -3.074   3.109  -9.327  0.00  0.00    +0.055 C 
ATOM     13  C   LIG    1       -2.757   4.407  -8.582  0.00  0.00    +0.107 C 
ATOM     14  C   LIG    1       -1.661   5.169  -9.329  0.00  0.00    +0.055 C 
ATOM     15  C   LIG    1       -4.017   5.272  -8.505  0.00  0.00    +0.055 C 
ENDBRANCH  11  13
ENDBRANCH   1  11
BRANCH   6  16
ATOM     16  C   LIG    1       -0.753   1.593  -1.232  0.00  0.00    +0.096 C 
BRANCH  16  17
ATOM     17  C   LIG    1       -0.013   1.086   0.008  0.00  0.00    +0.014 C 
BRANCH  17  18
ATOM     18  C   LIG    1       -0.729   1.579   1.267  0.00  0.00    +0.038 C 
BRANCH  18  19
ATOM     19  C   LIG    1        0.000   1.080   2.488  0.00  0.00    -0.022 A 
ATOM     20  C   LIG    1       -0.289  -0.024   3.194  0.00  0.00    +0.087 A 
ATOM     21  N   LIG    1        0.591  -0.156   4.234  0.00  0.00    -0.360 N 
ATOM     22  C   LIG    1        1.485   0.891   4.226  0.00  0.00    +0.047 A 
ATOM     23  C   LIG    1        2.558   1.240   5.040  0.00  0.00    +0.026 A 
ATOM     24  C   LIG    1        3.281   2.381   4.767  0.00  0.00    +0.002 A 
ATOM     25  C   LIG    1        2.951   3.186   3.686  0.00  0.00    +0.001 A 
ATOM     26  C   LIG    1        1.901   2.862   2.874  0.00  0.00    +0.010 A 
ATOM     27  H   LIG    1        0.584  -0.878   4.882  0.00  0.00    +0.165 HD
ATOM     28  C   LIG    1        1.154   1.711   3.132  0.00  0.00    +0.003 A 
ENDBRANCH  18  19
ENDBRANCH  17  18
ENDBRANCH  16  17
ENDBRANCH   6  16
TORSDOF 6
