REMARK  Name = ZINC12421848
REMARK                            x       y       z     vdW  Elec       q    Type
REMARK                         _______ _______ _______ _____ _____    ______ ____
ROOT
ATOM      1  C   LIG    1       -0.017   1.382   0.016  0.00  0.00    +0.001 A 
ATOM      2  C   LIG    1        1.163   2.093   0.013  0.00  0.00    +0.014 A 
ATOM      3  C   LIG    1        2.379   1.410  -0.011  0.00  0.00    +0.046 A 
ATOM      4  C   LIG    1        2.401   0.005  -0.032  0.00  0.00    +0.062 A 
ATOM      5  N   LIG    1        3.602  -0.671  -0.057  0.00  0.00    -0.359 N 
ATOM      6  C   LIG    1        4.786  -0.046  -0.063  0.00  0.00    +0.100 A 
ATOM      7  C   LIG    1        4.892   1.330  -0.043  0.00  0.00    +0.100 A 
ATOM      8  H   LIG    1        3.588  -1.641  -0.071  0.00  0.00    +0.165 HD
ATOM      9  C   LIG    1        1.196  -0.693  -0.028  0.00  0.00    +0.079 A 
ATOM     10  C   LIG    1        3.662   2.137  -0.015  0.00  0.00    +0.201 A 
ATOM     11  O   LIG    1        3.702   3.355   0.003  0.00  0.00    -0.286 OA
ATOM     12  C   LIG    1        0.003  -0.005  -0.005  0.00  0.00    +0.014 A 
ENDROOT
BRANCH   7  13
ATOM     13  C   LIG    1        6.213   1.978  -0.049  0.00  0.00    +0.255 C 
ATOM     14  N   LIG    1        6.304   3.320  -0.144  0.00  0.00    -0.261 N 
ATOM     15  H   LIG    1        5.500   3.862  -0.133  0.00  0.00    +0.157 HD
ATOM     16  O   LIG    1        7.222   1.304   0.032  0.00  0.00    -0.270 OA
BRANCH  14  17
ATOM     17  C   LIG    1        7.549   3.924  -0.258  0.00  0.00    +0.165 A 
ATOM     18  N   LIG    1        8.735   3.354  -0.295  0.00  0.00    -0.233 NA
ATOM     19  C   LIG    1        9.835   4.075  -0.408  0.00  0.00    +0.120 A 
ATOM     20  C   LIG    1        9.685   5.421  -0.483  0.00  0.00    +0.068 A 
ATOM     21  S   LIG    1        7.908   5.564  -0.389  0.00  0.00    -0.061 S 
ENDBRANCH  14  17
ENDBRANCH   7  13
BRANCH   9  22
ATOM     22  C   LIG    1        1.198  -2.200  -0.051  0.00  0.00    +0.419 C 
ATOM     23  F   LIG    1        1.872  -2.682   1.076  0.00  0.00    -0.166 F 
ATOM     24  F   LIG    1        1.844  -2.648  -1.208  0.00  0.00    -0.166 F 
ATOM     25  F   LIG    1       -0.120  -2.668  -0.042  0.00  0.00    -0.166 F 
ENDBRANCH   9  22
TORSDOF 3
