REMARK  Name = ZINC12404515
REMARK                            x       y       z     vdW  Elec       q    Type
REMARK                         _______ _______ _______ _____ _____    ______ ____
ROOT
ATOM      1  C   LIG    1       -0.044   1.363  -0.644  0.00  0.00    +0.044 C 
ATOM      2  C   LIG    1       -0.003  -0.040  -0.096  0.00  0.00    -0.038 C 
ATOM      3  C   LIG    1       -1.076  -0.789   0.222  0.00  0.00    -0.025 C 
ATOM      4  C   LIG    1       -0.639  -2.095   0.723  0.00  0.00    -0.011 A 
ATOM      5  C   LIG    1       -1.339  -3.217   1.178  0.00  0.00    +0.047 A 
ATOM      6  C   LIG    1       -0.646  -4.333   1.599  0.00  0.00    +0.124 A 
ATOM      7  F   LIG    1       -1.325  -5.415   2.039  0.00  0.00    -0.205 F 
ATOM      8  C   LIG    1        0.743  -4.354   1.576  0.00  0.00    +0.039 A 
ATOM      9  C   LIG    1        1.451  -3.258   1.130  0.00  0.00    +0.012 A 
ATOM     10  C   LIG    1        0.772  -2.123   0.701  0.00  0.00    -0.010 A 
ATOM     11  C   LIG    1        1.213  -0.816   0.173  0.00  0.00    -0.014 C 
ATOM     12  C   LIG    1        2.513  -0.405  -0.025  0.00  0.00    +0.016 C 
ENDROOT
BRANCH  12  13
ATOM     13  C   LIG    1        3.608  -1.371   0.069  0.00  0.00    -0.024 A 
ATOM     14  C   LIG    1        3.490  -2.630  -0.538  0.00  0.00    +0.009 A 
ATOM     15  C   LIG    1        4.515  -3.527  -0.448  0.00  0.00    +0.015 A 
ATOM     16  C   LIG    1        5.677  -3.194   0.246  0.00  0.00    +0.008 A 
ATOM     17  C   LIG    1        5.799  -1.944   0.852  0.00  0.00    +0.015 A 
ATOM     18  C   LIG    1        4.782  -1.038   0.763  0.00  0.00    +0.009 A 
BRANCH  16  19
ATOM     19  S   LIG    1        6.996  -4.357   0.360  0.00  0.00    -0.129 S 
ATOM     20  C   LIG    1        8.259  -3.494   1.335  0.00  0.00    +0.090 C 
ENDBRANCH  16  19
ENDBRANCH  12  13
BRANCH   3  21
ATOM     21  C   LIG    1       -2.511  -0.351   0.084  0.00  0.00    +0.156 C 
BRANCH  21  22
ATOM     22  C   LIG    1       -3.057  -0.829  -1.237  0.00  0.00    +0.309 C 
ATOM     23  O   LIG    1       -2.347  -1.467  -1.995  0.00  0.00    -0.251 OA
BRANCH  22  24
ATOM     24  O   LIG    1       -4.209  -0.578  -1.547  0.00  0.00    -0.480 OA
ATOM     25  H   LIG    1       -4.755  -0.088  -0.964  0.00  0.00    +0.295 HD
ENDBRANCH  22  24
ENDBRANCH  21  22
ENDBRANCH   3  21
TORSDOF 5
