REMARK  Name = ZINC10027147
REMARK                            x       y       z     vdW  Elec       q    Type
REMARK                         _______ _______ _______ _____ _____    ______ ____
ROOT
ATOM      1  C   LIG    1        7.275  -3.032   2.562  0.00  0.00    +0.165 C 
ATOM      2  C   LIG    1        8.081  -2.196   1.563  0.00  0.00    +0.030 C 
ATOM      3  C   LIG    1        9.556  -2.598   1.640  0.00  0.00    +0.003 C 
ATOM      4  C   LIG    1       10.090  -2.317   3.047  0.00  0.00    +0.017 C 
ATOM      5  C   LIG    1        9.307  -3.155   4.062  0.00  0.00    +0.110 C 
ATOM      6  N   LIG    1        7.872  -2.885   3.896  0.00  0.00    -0.165 NA
ENDROOT
BRANCH   1   9
ATOM      7  N   LIG    1        4.837  -3.424   2.426  0.00  0.00    -0.314 N 
ATOM      8  H   LIG    1        5.027  -4.366   2.291  0.00  0.00    +0.149 HD
ATOM      9  C   LIG    1        5.848  -2.549   2.590  0.00  0.00    +0.232 C 
ATOM     10  O   LIG    1        5.610  -1.372   2.760  0.00  0.00    -0.274 OA
BRANCH   7  11
ATOM     11  C   LIG    1        3.450  -2.954   2.454  0.00  0.00    +0.109 C 
BRANCH  11  12
ATOM     12  C   LIG    1        2.505  -4.140   2.246  0.00  0.00    +0.054 C 
BRANCH  12  16
ATOM     13  C   LIG    1       -1.541  -2.772   2.326  0.00  0.00    +0.000 A 
ATOM     14  C   LIG    1       -0.849  -2.814   1.130  0.00  0.00    +0.000 A 
ATOM     15  C   LIG    1        0.461  -3.257   1.104  0.00  0.00    +0.004 A 
ATOM     16  C   LIG    1        1.078  -3.657   2.274  0.00  0.00    -0.046 A 
ATOM     17  C   LIG    1        0.387  -3.614   3.470  0.00  0.00    +0.004 A 
ATOM     18  C   LIG    1       -0.923  -3.172   3.496  0.00  0.00    +0.000 A 
ENDBRANCH  12  16
ENDBRANCH  11  12
ENDBRANCH   7  11
ENDBRANCH   1   9
BRANCH   6  19
ATOM     19  S   LIG    1        6.946  -2.419   5.188  0.00  0.00    +0.062 S 
ATOM     20  O   LIG    1        7.490  -3.063   6.331  0.00  0.00    -0.153 OA
ATOM     21  O   LIG    1        5.590  -2.582   4.795  0.00  0.00    -0.153 OA
BRANCH  19  22
ATOM     22  C   LIG    1        7.200  -0.690   5.414  0.00  0.00    +0.106 A 
ATOM     23  C   LIG    1        8.217  -0.243   6.237  0.00  0.00    +0.028 A 
ATOM     24  C   LIG    1        8.416   1.113   6.415  0.00  0.00    +0.002 A 
ATOM     25  C   LIG    1        7.600   2.022   5.769  0.00  0.00    +0.000 A 
ATOM     26  C   LIG    1        6.583   1.575   4.945  0.00  0.00    +0.002 A 
ATOM     27  C   LIG    1        6.386   0.219   4.764  0.00  0.00    +0.028 A 
ENDBRANCH  19  22
ENDBRANCH   6  19
TORSDOF 6
