REMARK  Name = ZINC12405301
REMARK                            x       y       z     vdW  Elec       q    Type
REMARK                         _______ _______ _______ _____ _____    ______ ____
ROOT
ATOM      1  C   LIG    1       -1.576   4.809   2.709  0.00  0.00    +0.155 C 
ATOM      2  N   LIG    1       -1.453   3.361   2.517  0.00  0.00    -0.281 N 
ATOM      3  C   LIG    1       -1.977   2.491   3.460  0.00  0.00    +0.146 A 
ATOM      4  N   LIG    1       -2.629   2.667   4.610  0.00  0.00    -0.325 N 
ATOM      5  H   LIG    1       -2.870   3.577   5.020  0.00  0.00    +0.169 HD
ATOM      6  C   LIG    1       -2.917   1.493   5.142  0.00  0.00    +0.122 A 
ATOM      7  N   LIG    1       -2.449   0.503   4.332  0.00  0.00    -0.334 N 
ATOM      8  H   LIG    1       -2.527  -0.482   4.489  0.00  0.00    +0.168 HD
ATOM      9  C   LIG    1       -1.846   1.121   3.253  0.00  0.00    +0.147 A 
ATOM     10  C   LIG    1       -1.187   0.661   2.095  0.00  0.00    +0.282 A 
ATOM     11  N   LIG    1       -0.698   1.558   1.213  0.00  0.00    -0.262 N 
ATOM     12  C   LIG    1       -0.013   1.086   0.008  0.00  0.00    +0.157 C 
ATOM     13  O   LIG    1       -1.059  -0.533   1.892  0.00  0.00    -0.265 OA
ATOM     14  C   LIG    1       -0.827   2.879   1.427  0.00  0.00    +0.333 A 
ATOM     15  O   LIG    1       -0.369   3.658   0.613  0.00  0.00    -0.246 OA
ENDROOT
BRANCH   6  16
ATOM     16  C   LIG    1       -3.634   1.288   6.416  0.00  0.00    +0.057 A 
ATOM     17  C   LIG    1       -3.884  -0.005   6.881  0.00  0.00    +0.015 A 
ATOM     18  C   LIG    1       -4.554  -0.191   8.071  0.00  0.00    +0.001 A 
ATOM     19  C   LIG    1       -4.981   0.900   8.809  0.00  0.00    +0.004 A 
ATOM     20  C   LIG    1       -4.740   2.185   8.361  0.00  0.00    +0.046 A 
ATOM     21  C   LIG    1       -4.063   2.389   7.168  0.00  0.00    +0.131 A 
BRANCH  21  22
ATOM     22  O   LIG    1       -3.821   3.650   6.729  0.00  0.00    -0.494 OA
ATOM     23  C   LIG    1       -4.288   4.723   7.549  0.00  0.00    +0.277 C 
ENDBRANCH  21  22
ENDBRANCH   6  16
TORSDOF 2
