REMARK  Name = ZINC12368743
REMARK                            x       y       z     vdW  Elec       q    Type
REMARK                         _______ _______ _______ _____ _____    ______ ____
ROOT
ATOM      1  N   LIG    1        4.814  -1.780  -5.924  0.00  0.00    -0.226 NA
ATOM      2  C   LIG    1        4.116  -2.284  -6.915  0.00  0.00    +0.161 C 
ATOM      3  N   LIG    1        2.749  -2.453  -6.993  0.00  0.00    -0.264 N 
ATOM      4  H   LIG    1        2.200  -2.177  -6.243  0.00  0.00    +0.157 HD
ATOM      5  C   LIG    1        2.161  -2.973  -8.057  0.00  0.00    +0.232 C 
ATOM      6  C   LIG    1        3.087  -3.388  -9.189  0.00  0.00    +0.149 C 
ATOM      7  O   LIG    1        0.959  -3.115  -8.123  0.00  0.00    -0.274 OA
ATOM      8  S   LIG    1        4.712  -2.919  -8.474  0.00  0.00    -0.077 S 
ENDROOT
BRANCH   1  11
ATOM      9  C   LIG    1        2.391  -0.117  -3.754  0.00  0.00    +0.006 A 
ATOM     10  C   LIG    1        3.029  -0.554  -4.897  0.00  0.00    +0.028 A 
ATOM     11  C   LIG    1        4.179  -1.338  -4.794  0.00  0.00    +0.067 A 
ATOM     12  C   LIG    1        4.680  -1.670  -3.534  0.00  0.00    +0.028 A 
ATOM     13  C   LIG    1        4.036  -1.222  -2.399  0.00  0.00    +0.006 A 
ATOM     14  C   LIG    1        2.896  -0.446  -2.508  0.00  0.00    -0.044 A 
BRANCH  14  15
ATOM     15  C   LIG    1        2.197   0.040  -1.264  0.00  0.00    +0.019 C 
ATOM     16  C   LIG    1        0.764  -0.494  -1.243  0.00  0.00    +0.008 C 
ATOM     17  C   LIG    1        0.054  -0.001   0.020  0.00  0.00    +0.001 C 
ATOM     18  C   LIG    1        0.029   1.529   0.026  0.00  0.00    +0.000 C 
ATOM     19  C   LIG    1        1.463   2.063   0.005  0.00  0.00    +0.001 C 
ATOM     20  C   LIG    1        2.172   1.570  -1.258  0.00  0.00    +0.008 C 
ENDBRANCH  14  15
ENDBRANCH   1  11
BRANCH   6  21
ATOM     21  C   LIG    1        3.008  -4.895  -9.445  0.00  0.00    +0.120 C 
BRANCH  21  22
ATOM     22  C   LIG    1        3.986  -5.271 -10.529  0.00  0.00    +0.219 C 
ATOM     23  N   LIG    1        4.091  -6.556 -10.924  0.00  0.00    -0.285 N 
ATOM     24  H   LIG    1        3.588  -7.247 -10.466  0.00  0.00    +0.155 HD
ATOM     25  O   LIG    1        4.677  -4.419 -11.045  0.00  0.00    -0.275 OA
BRANCH  23  26
ATOM     26  C   LIG    1        4.928  -6.892 -11.996  0.00  0.00    +0.034 A 
ATOM     27  C   LIG    1        4.570  -7.917 -12.862  0.00  0.00    +0.027 A 
ATOM     28  C   LIG    1        5.393  -8.244 -13.921  0.00  0.00    +0.048 A 
ATOM     29  C   LIG    1        6.582  -7.557 -14.114  0.00  0.00    +0.130 A 
ATOM     30  C   LIG    1        6.944  -6.537 -13.247  0.00  0.00    +0.048 A 
ATOM     31  C   LIG    1        6.119  -6.205 -12.190  0.00  0.00    +0.027 A 
BRANCH  29  32
ATOM     32  O   LIG    1        7.395  -7.884 -15.155  0.00  0.00    -0.406 OA
BRANCH  32  33
ATOM     33  C   LIG    1        6.961  -8.944 -16.008  0.00  0.00    +0.575 C 
ATOM     34  F   LIG    1        6.819 -10.117 -15.259  0.00  0.00    -0.133 F 
ATOM     35  F   LIG    1        7.908  -9.147 -17.018  0.00  0.00    -0.133 F 
ATOM     36  F   LIG    1        5.731  -8.607 -16.584  0.00  0.00    -0.133 F 
ENDBRANCH  32  33
ENDBRANCH  29  32
ENDBRANCH  23  26
ENDBRANCH  21  22
ENDBRANCH   6  21
TORSDOF 7
