REMARK  Name = ZINC08585918
REMARK                            x       y       z     vdW  Elec       q    Type
REMARK                         _______ _______ _______ _____ _____    ______ ____
ROOT
ATOM      1  C   LIG    1       -0.750   3.109   1.275  0.00  0.00    +0.006 C 
ATOM      2  C   LIG    1       -1.466   3.603   2.534  0.00  0.00    +0.016 C 
ATOM      3  C   LIG    1       -0.726   3.096   3.774  0.00  0.00    +0.070 C 
ATOM      4 BR   LIG    1        1.119   3.776   3.760  0.00  0.00    -0.087 Br
ATOM      5  C   LIG    1       -0.705   1.566   3.765  0.00  0.00    +0.070 C 
ATOM      6 BR   LIG    1        0.246   0.915   5.358  0.00  0.00    -0.087 Br
ATOM      7  C   LIG    1        0.011   1.072   2.506  0.00  0.00    +0.020 C 
ATOM      8  C   LIG    1       -0.729   1.579   1.267  0.00  0.00    +0.004 C 
ENDROOT
BRANCH   8   9
ATOM      9  C   LIG    1       -0.013   1.086   0.008  0.00  0.00    +0.070 C 
ATOM     10 BR   LIG    1        1.832   1.766  -0.006  0.00  0.00    -0.087 Br
BRANCH   9  11
ATOM     11  C   LIG    1       -0.753   1.593  -1.232  0.00  0.00    +0.095 C 
ATOM     12 BR   LIG    1        0.168   0.959  -2.849  0.00  0.00    -0.091 Br
ENDBRANCH   9  11
ENDBRANCH   8   9
TORSDOF 2
