REMARK  Name = ZINC12661824
REMARK                            x       y       z     vdW  Elec       q    Type
REMARK                         _______ _______ _______ _____ _____    ______ ____
ROOT
ATOM      1  C   LIG    1       -4.322   0.355   0.055  0.00  0.00    -0.050 C 
ATOM      2  C   LIG    1       -4.025   1.829  -0.038  0.00  0.00    +0.044 C 
ATOM      3  C   LIG    1       -5.607  -0.073   0.233  0.00  0.00    +0.003 C 
ENDROOT
BRANCH   1   5
ATOM      4  C   LIG    1       -1.999  -0.156  -0.217  0.00  0.00    +0.004 C 
ATOM      5  C   LIG    1       -3.277  -0.581  -0.041  0.00  0.00    +0.003 C 
BRANCH   4   8
ATOM      6  C   LIG    1       -2.140  -2.129  -2.060  0.00  0.00    +0.039 C 
ATOM      7  C   LIG    1       -0.973  -2.074  -1.109  0.00  0.00    -0.069 C 
ATOM      8  C   LIG    1       -0.935  -1.092  -0.224  0.00  0.00    -0.043 C 
ATOM      9  C   LIG    1        0.172  -0.914   0.775  0.00  0.00    -0.010 C 
ATOM     10  C   LIG    1        1.097   0.213   0.310  0.00  0.00    +0.016 C 
ATOM     11  C   LIG    1       -0.426  -0.547   2.135  0.00  0.00    +0.016 C 
ATOM     12  C   LIG    1        0.976  -2.208   0.907  0.00  0.00    +0.011 C 
ATOM     13  C   LIG    1        1.355  -2.692  -0.498  0.00  0.00    +0.005 C 
ATOM     14  C   LIG    1        0.079  -3.140  -1.216  0.00  0.00    +0.031 C 
ENDBRANCH   4   8
ENDBRANCH   1   5
BRANCH   3  15
ATOM     15  C   LIG    1       -5.883  -1.444   0.320  0.00  0.00    +0.001 C 
ATOM     16  C   LIG    1       -7.179  -1.875   0.499  0.00  0.00    +0.003 C 
BRANCH  16  17
ATOM     17  C   LIG    1       -7.455  -3.245   0.586  0.00  0.00    -0.044 C 
ATOM     18  C   LIG    1       -6.335  -4.248   0.483  0.00  0.00    +0.044 C 
ATOM     19  C   LIG    1       -8.750  -3.676   0.765  0.00  0.00    +0.094 C 
BRANCH  19  20
ATOM     20  C   LIG    1       -9.011  -5.035   1.004  0.00  0.00    +0.330 C 
ATOM     21  O   LIG    1       -8.001  -5.887   1.180  0.00  0.00    -0.246 OA
BRANCH  20  22
ATOM     22  O   LIG    1      -10.270  -5.473   1.055  0.00  0.00    -0.478 OA
ATOM     23  H   LIG    1      -10.980  -4.874   0.932  0.00  0.00    +0.295 HD
ENDBRANCH  20  22
ENDBRANCH  19  20
ENDBRANCH  16  17
ENDBRANCH   3  15
TORSDOF 6
