REMARK  Name = ZINC09280365
REMARK                            x       y       z     vdW  Elec       q    Type
REMARK                         _______ _______ _______ _____ _____    ______ ____
ROOT
ATOM      1  C   LIG    1       -0.912   3.098   1.171  0.00  0.00    +0.106 C 
ATOM      2  C   LIG    1       -0.739   1.578   1.258  0.00  0.00    +0.047 C 
ATOM      3  C   LIG    1        0.048   1.210   2.513  0.00  0.00    +0.011 C 
ATOM      4  C   LIG    1        1.476   1.749   2.400  0.00  0.00    +0.028 C 
ATOM      5  C   LIG    1        2.115   1.190   1.124  0.00  0.00    +0.160 C 
ATOM      6  O   LIG    1        1.329   1.581  -0.002  0.00  0.00    -0.372 OA
ATOM      7  C   LIG    1       -0.013   1.086   0.008  0.00  0.00    +0.155 C 
ATOM      8  C   LIG    1       -0.720   1.586  -1.227  0.00  0.00    +0.004 A 
ATOM      9  C   LIG    1       -0.526   0.921  -2.425  0.00  0.00    +0.028 A 
ATOM     10  C   LIG    1       -1.156   1.359  -3.575  0.00  0.00    +0.041 A 
ATOM     11 CL   LIG    1       -0.908   0.518  -5.074  0.00  0.00    -0.084 Cl
ATOM     12  C   LIG    1       -1.984   2.467  -3.534  0.00  0.00    +0.022 A 
ATOM     13  C   LIG    1       -2.183   3.134  -2.342  0.00  0.00    +0.025 A 
ATOM     14  C   LIG    1       -1.552   2.693  -1.183  0.00  0.00    +0.033 A 
ATOM     15  N   LIG    1       -1.774   3.383   0.015  0.00  0.00    -0.336 N 
ATOM     16  H   LIG    1       -2.485   4.039   0.081  0.00  0.00    +0.147 HD
ENDROOT
BRANCH   1  20
ATOM     17  C   LIG    1       -2.752   4.552   4.742  0.00  0.00    +0.000 A 
ATOM     18  C   LIG    1       -1.384   4.659   4.576  0.00  0.00    +0.000 A 
ATOM     19  C   LIG    1       -0.788   4.189   3.421  0.00  0.00    +0.005 A 
ATOM     20  C   LIG    1       -1.561   3.610   2.431  0.00  0.00    -0.027 A 
ATOM     21  C   LIG    1       -2.930   3.508   2.594  0.00  0.00    +0.005 A 
ATOM     22  C   LIG    1       -3.525   3.975   3.751  0.00  0.00    +0.000 A 
ENDBRANCH   1  20
TORSDOF 1
