REMARK  Name = ZINC08684365
REMARK                            x       y       z     vdW  Elec       q    Type
REMARK                         _______ _______ _______ _____ _____    ______ ____
ROOT
ATOM      1  C   LIG    1       -6.518  -1.444   0.072  0.00  0.00    +0.056 C 
ATOM      2  C   LIG    1       -7.770  -1.940   0.164  0.00  0.00    +0.017 C 
ATOM      3  C   LIG    1       -7.975  -3.433   0.202  0.00  0.00    +0.061 C 
ATOM      4  N   LIG    1       -8.854  -1.112   0.224  0.00  0.00    -0.300 N 
ATOM      5  H   LIG    1       -9.735  -1.513   0.290  0.00  0.00    +0.154 HD
ATOM      6  C   LIG    1       -8.770   0.225   0.197  0.00  0.00    +0.135 C 
ATOM      7  S   LIG    1      -10.209   1.147   0.279  0.00  0.00    -0.019 S 
ATOM      8  N   LIG    1       -7.588   0.867   0.107  0.00  0.00    -0.315 N 
ATOM      9  H   LIG    1       -7.550   1.836   0.089  0.00  0.00    +0.149 HD
ATOM     10  C   LIG    1       -6.356   0.062   0.043  0.00  0.00    +0.146 C 
ENDROOT
BRANCH  10  11
ATOM     11  C   LIG    1       -5.635   0.427  -1.229  0.00  0.00    +0.015 A 
ATOM     12  C   LIG    1       -4.322   0.712  -1.414  0.00  0.00    +0.013 A 
ATOM     13  C   LIG    1       -3.876   1.023  -2.684  0.00  0.00    +0.008 A 
ATOM     14  C   LIG    1       -4.765   1.035  -3.708  0.00  0.00    +0.045 A 
ATOM     15  S   LIG    1       -6.284   0.590  -2.884  0.00  0.00    -0.099 S 
ENDBRANCH  10  11
BRANCH   1  18
ATOM     16  N   LIG    1       -5.096  -2.941  -1.140  0.00  0.00    -0.279 N 
ATOM     17  H   LIG    1       -5.630  -2.785  -1.934  0.00  0.00    +0.155 HD
ATOM     18  C   LIG    1       -5.393  -2.303   0.009  0.00  0.00    +0.248 C 
ATOM     19  O   LIG    1       -4.696  -2.465   0.994  0.00  0.00    -0.270 OA
BRANCH  16  25
ATOM     20  C   LIG    1       -3.984  -4.842  -2.144  0.00  0.00    +0.142 A 
ATOM     21  C   LIG    1       -2.909  -5.716  -2.189  0.00  0.00    +0.047 A 
ATOM     22  C   LIG    1       -1.874  -5.586  -1.283  0.00  0.00    +0.004 A 
ATOM     23  C   LIG    1       -1.906  -4.585  -0.329  0.00  0.00    +0.002 A 
ATOM     24  C   LIG    1       -2.974  -3.710  -0.277  0.00  0.00    +0.027 A 
ATOM     25  C   LIG    1       -4.015  -3.831  -1.187  0.00  0.00    +0.076 A 
BRANCH  20  26
ATOM     26  O   LIG    1       -5.003  -4.969  -3.035  0.00  0.00    -0.490 OA
BRANCH  26  28
ATOM     27  C   LIG    1       -6.133  -6.012  -4.899  0.00  0.00    +0.048 C 
ATOM     28  C   LIG    1       -4.904  -6.029  -3.988  0.00  0.00    +0.226 C 
ENDBRANCH  26  28
ENDBRANCH  20  26
ENDBRANCH  16  25
ENDBRANCH   1  18
TORSDOF 5
