REMARK  Name = ZINC08996233
REMARK                            x       y       z     vdW  Elec       q    Type
REMARK                         _______ _______ _______ _____ _____    ______ ____
ROOT
ATOM      1  C   LIG    1       -0.019   1.540   0.011  0.00  0.00    +0.011 C 
ATOM      2  C   LIG    1        1.483   1.897  -0.002  0.00  0.00    +0.040 C 
ATOM      3  C   LIG    1        2.176   0.715   0.629  0.00  0.00    +0.007 A 
ATOM      4  C   LIG    1        1.322  -0.388   0.634  0.00  0.00    +0.067 A 
ATOM      5  N   LIG    1        1.965  -1.385   1.191  0.00  0.00    -0.178 NA
ATOM      6  N   LIG    1        3.148  -1.030   1.543  0.00  0.00    -0.270 N 
ATOM      7  H   LIG    1        3.820  -1.624   1.986  0.00  0.00    +0.189 HD
ATOM      8  C   LIG    1        3.348   0.282   1.218  0.00  0.00    +0.146 A 
ATOM      9  C   LIG    1        0.002  -0.004   0.002  0.00  0.00    +0.058 C 
ENDROOT
BRANCH   8  10
ATOM     10  C   LIG    1        4.565   1.074   1.449  0.00  0.00    +0.355 C 
ATOM     11  O   LIG    1        4.606   2.240   1.108  0.00  0.00    -0.243 OA
BRANCH  10  12
ATOM     12  O   LIG    1        5.636   0.507   2.040  0.00  0.00    -0.476 OA
ATOM     13  H   LIG    1        5.605  -0.392   2.304  0.00  0.00    +0.295 HD
ENDBRANCH  10  12
ENDBRANCH   8  10
TORSDOF 2
