REMARK  Name = ZINC12576721
REMARK                            x       y       z     vdW  Elec       q    Type
REMARK                         _______ _______ _______ _____ _____    ______ ____
ROOT
ATOM      1  C   LIG    1       -0.611   2.787   3.482  0.00  0.00    +0.008 A 
ATOM      2  C   LIG    1        0.039   2.293   2.371  0.00  0.00    +0.013 A 
ATOM      3  C   LIG    1       -0.686   1.735   1.331  0.00  0.00    +0.055 A 
ATOM      4  C   LIG    1       -2.067   1.674   1.396  0.00  0.00    +0.013 A 
ATOM      5  C   LIG    1       -2.732   2.159   2.502  0.00  0.00    +0.008 A 
ATOM      6  C   LIG    1       -2.006   2.725   3.557  0.00  0.00    -0.024 A 
ENDROOT
BRANCH   6   7
ATOM      7  C   LIG    1       -2.707   3.249   4.738  0.00  0.00    +0.028 C 
ATOM      8  C   LIG    1       -2.023   3.947   5.678  0.00  0.00    +0.080 C 
ATOM      9  C   LIG    1       -2.470   4.438   6.999  0.00  0.00    +0.258 C 
ATOM     10  N   LIG    1       -1.577   5.096   7.719  0.00  0.00    -0.243 N 
ATOM     11  H   LIG    1       -1.828   5.432   8.593  0.00  0.00    +0.159 HD
ATOM     12  C   LIG    1       -0.327   5.315   7.263  0.00  0.00    +0.283 C 
ATOM     13  O   LIG    1        0.585   5.903   7.812  0.00  0.00    -0.262 OA
ATOM     14  O   LIG    1       -3.600   4.243   7.404  0.00  0.00    -0.269 OA
ATOM     15  S   LIG    1       -0.334   4.533   5.657  0.00  0.00    -0.026 S 
ENDBRANCH   6   7
BRANCH   3  16
ATOM     16  C   LIG    1        0.032   1.197   0.121  0.00  0.00    +0.417 C 
ATOM     17  F   LIG    1       -0.789   1.326  -1.004  0.00  0.00    -0.166 F 
ATOM     18  F   LIG    1        1.214   1.919  -0.080  0.00  0.00    -0.166 F 
ATOM     19  F   LIG    1        0.339  -0.153   0.322  0.00  0.00    -0.166 F 
ENDBRANCH   3  16
TORSDOF 2
