REMARK  Name = ZINC09627420
REMARK                            x       y       z     vdW  Elec       q    Type
REMARK                         _______ _______ _______ _____ _____    ______ ____
ROOT
ATOM      1  N   LIG    1       -0.069   5.243   0.030  0.00  0.00    -0.214 N 
ATOM      2  C   LIG    1       -0.992   6.035  -0.591  0.00  0.00    +0.168 A 
ATOM      3  C   LIG    1       -0.625   7.367  -0.319  0.00  0.00    +0.079 A 
ATOM      4  C   LIG    1       -1.422   8.400  -0.850  0.00  0.00    +0.135 A 
ATOM      5  N   LIG    1       -2.481   8.068  -1.581  0.00  0.00    -0.220 NA
ATOM      6  C   LIG    1       -2.785   6.803  -1.809  0.00  0.00    +0.225 A 
ATOM      7  C   LIG    1        0.538   7.321   0.479  0.00  0.00    +0.148 A 
ATOM      8  N   LIG    1       -2.072   5.805  -1.335  0.00  0.00    -0.216 NA
ATOM      9  N   LIG    1        0.852   6.073   0.682  0.00  0.00    -0.172 NA
ENDROOT
BRANCH   1  16
ATOM     10  C   LIG    1        2.490   1.044  -0.016  0.00  0.00    +0.044 C 
ATOM     11  C   LIG    1        1.176   1.782   0.000  0.00  0.00    -0.048 A 
ATOM     12  C   LIG    1       -0.013   1.076   0.008  0.00  0.00    +0.006 A 
ATOM     13  C   LIG    1       -1.220   1.749   0.017  0.00  0.00    -0.048 A 
ATOM     14  C   LIG    1       -2.514   0.976   0.019  0.00  0.00    +0.044 C 
ATOM     15  C   LIG    1       -1.242   3.130   0.031  0.00  0.00    +0.031 A 
ATOM     16  C   LIG    1       -0.050   3.842   0.023  0.00  0.00    +0.068 A 
ATOM     17  C   LIG    1        1.161   3.163   0.007  0.00  0.00    +0.031 A 
ENDBRANCH   1  16
BRANCH   4  18
ATOM     18  N   LIG    1       -1.111   9.725  -0.616  0.00  0.00    -0.314 N 
ATOM     19  C   LIG    1        0.261  10.027  -1.046  0.00  0.00    +0.106 C 
ATOM     20  C   LIG    1        0.620  11.458  -0.640  0.00  0.00    +0.019 C 
ATOM     21  C   LIG    1       -0.365  12.431  -1.294  0.00  0.00    +0.006 C 
ATOM     22  C   LIG    1       -1.790  12.065  -0.868  0.00  0.00    +0.003 C 
ATOM     23  C   LIG    1       -2.787  12.995  -1.563  0.00  0.00    +0.009 C 
ATOM     24  C   LIG    1       -2.079  10.616  -1.267  0.00  0.00    +0.109 C 
ENDBRANCH   4  18
TORSDOF 2
