REMARK  Name = ZINC11726158
REMARK                            x       y       z     vdW  Elec       q    Type
REMARK                         _______ _______ _______ _____ _____    ______ ____
ROOT
ATOM      1  C   LIG    1        5.318  -1.605   1.466  0.00  0.00    +0.125 A 
ATOM      2  C   LIG    1        6.047  -2.007   0.355  0.00  0.00    +0.046 A 
ATOM      3  C   LIG    1        7.242  -2.675   0.516  0.00  0.00    +0.012 A 
ATOM      4  C   LIG    1        7.719  -2.947   1.798  0.00  0.00    -0.017 A 
ATOM      5  C   LIG    1        6.986  -2.543   2.912  0.00  0.00    +0.017 A 
ATOM      6  C   LIG    1        5.794  -1.869   2.744  0.00  0.00    +0.009 A 
ENDROOT
BRANCH   4   7
ATOM      7  C   LIG    1        9.004  -3.666   1.975  0.00  0.00    -0.016 A 
ATOM      8  C   LIG    1        9.475  -3.942   3.263  0.00  0.00    +0.009 A 
ATOM      9  C   LIG    1       10.655  -4.602   3.441  0.00  0.00    +0.010 A 
ATOM     10  C   LIG    1       11.400  -5.008   2.330  0.00  0.00    -0.000 A 
ATOM     11  C   LIG    1       12.672  -5.715   2.166  0.00  0.00    +0.027 A 
ATOM     12  C   LIG    1       12.892  -5.826   0.846  0.00  0.00    +0.083 A 
ATOM     13  N   LIG    1       11.866  -5.247   0.151  0.00  0.00    -0.361 N 
ATOM     14  H   LIG    1       11.802  -5.202  -0.816  0.00  0.00    +0.165 HD
ATOM     15  C   LIG    1       10.936  -4.736   1.030  0.00  0.00    +0.047 A 
ATOM     16  C   LIG    1        9.730  -4.067   0.861  0.00  0.00    +0.034 A 
ENDBRANCH   4   7
BRANCH   1  17
ATOM     17  O   LIG    1        4.141  -0.946   1.304  0.00  0.00    -0.487 OA
BRANCH  17  18
ATOM     18  C   LIG    1        3.711  -0.707  -0.038  0.00  0.00    +0.264 C 
BRANCH  18  22
ATOM     19  C   LIG    1       -0.017   1.378   0.010  0.00  0.00    +0.000 A 
ATOM     20  C   LIG    1        1.171   2.086   0.002  0.00  0.00    +0.000 A 
ATOM     21  C   LIG    1        2.377   1.411  -0.013  0.00  0.00    +0.007 A 
ATOM     22  C   LIG    1        2.396   0.029  -0.020  0.00  0.00    -0.010 A 
ATOM     23  C   LIG    1        1.208  -0.679  -0.012  0.00  0.00    +0.007 A 
ATOM     24  C   LIG    1        0.002  -0.004   0.002  0.00  0.00    +0.000 A 
ENDBRANCH  18  22
ENDBRANCH  17  18
ENDBRANCH   1  17
BRANCH   6  25
ATOM     25  C   LIG    1        5.003  -1.426   3.948  0.00  0.00    +0.120 C 
BRANCH  25  26
ATOM     26  N   LIG    1        3.916  -2.376   4.195  0.00  0.00    -0.306 NA
ATOM     27  H   LIG    1        3.802  -3.145   3.615  0.00  0.00    +0.123 HD
BRANCH  26  28
ATOM     28  C   LIG    1        3.040  -2.173   5.268  0.00  0.00    +0.085 C 
ATOM     29  C   LIG    1        3.189  -1.072   6.102  0.00  0.00    +0.023 C 
ATOM     30  C   LIG    1        2.296  -0.913   7.153  0.00  0.00    +0.017 C 
ATOM     31  C   LIG    1        1.294  -1.845   7.338  0.00  0.00    +0.082 C 
ATOM     32  N   LIG    1        1.174  -2.883   6.530  0.00  0.00    -0.300 NA
ATOM     33  H   LIG    1        0.461  -3.521   6.685  0.00  0.00    +0.123 HD
ATOM     34  C   LIG    1        1.998  -3.072   5.514  0.00  0.00    +0.136 C 
BRANCH  34  35
ATOM     35  N   LIG    1        1.831  -4.178   4.685  0.00  0.00    -0.314 NA
ATOM     36  H   LIG    1        1.109  -4.805   4.852  0.00  0.00    +0.120 HD
ATOM     37  H   LIG    1        2.436  -4.322   3.940  0.00  0.00    +0.120 HD
ENDBRANCH  34  35
ENDBRANCH  26  28
ENDBRANCH  25  26
ENDBRANCH   6  25
TORSDOF 8
