REMARK  Name = ZINC11536219
REMARK                            x       y       z     vdW  Elec       q    Type
REMARK                         _______ _______ _______ _____ _____    ______ ____
ROOT
ATOM      1  S   LIG    1        1.231  -2.434  -0.024  0.00  0.00    +0.044 S 
ATOM      2  O   LIG    1       -0.002  -2.860   0.539  0.00  0.00    -0.163 OA
ATOM      3  O   LIG    1        2.489  -2.821   0.513  0.00  0.00    -0.163 OA
ENDROOT
BRANCH   1  10
ATOM      4  C   LIG    1       -0.004   0.000  -0.010  0.00  0.00    +0.029 A 
ATOM      5  C   LIG    1       -0.026   1.382  -0.008  0.00  0.00    +0.022 A 
ATOM      6  C   LIG    1        1.161   2.093  -0.019  0.00  0.00    +0.041 A 
ATOM      7 CL   LIG    1        1.134   3.829  -0.018  0.00  0.00    -0.084 Cl
ATOM      8  C   LIG    1        2.370   1.419  -0.032  0.00  0.00    +0.022 A 
ATOM      9  C   LIG    1        2.390   0.037  -0.034  0.00  0.00    +0.029 A 
ATOM     10  C   LIG    1        1.204  -0.672  -0.023  0.00  0.00    +0.095 A 
ENDBRANCH   1  10
BRANCH   1  11
ATOM     11  C   LIG    1        1.222  -2.953  -1.708  0.00  0.00    +0.204 A 
ATOM     12  N   LIG    1        2.360  -3.130  -2.350  0.00  0.00    -0.127 NA
ATOM     13  N   LIG    1        2.403  -3.503  -3.577  0.00  0.00    -0.110 NA
ATOM     14  C   LIG    1        1.306  -3.735  -4.281  0.00  0.00    +0.232 A 
ATOM     15  C   LIG    1        0.057  -3.574  -3.686  0.00  0.00    +0.072 A 
ATOM     16  C   LIG    1        0.017  -3.177  -2.359  0.00  0.00    +0.055 A 
BRANCH  14  17
ATOM     17  O   LIG    1        1.399  -4.127  -5.577  0.00  0.00    -0.491 OA
ATOM     18  H   LIG    1        0.621  -4.291  -6.073  0.00  0.00    +0.294 HD
ENDBRANCH  14  17
ENDBRANCH   1  11
TORSDOF 3
