REMARK  Name = ZINC12370277
REMARK                            x       y       z     vdW  Elec       q    Type
REMARK                         _______ _______ _______ _____ _____    ______ ____
ROOT
ATOM      1  C   LIG    1       -2.366   1.254   2.955  0.00  0.00    +0.006 A 
ATOM      2  C   LIG    1       -1.719   0.808   1.818  0.00  0.00    +0.006 A 
ATOM      3  C   LIG    1       -0.718   1.572   1.248  0.00  0.00    -0.022 A 
ATOM      4  C   LIG    1       -0.360   2.779   1.819  0.00  0.00    +0.006 A 
ATOM      5  C   LIG    1       -1.010   3.227   2.953  0.00  0.00    +0.006 A 
ATOM      6  C   LIG    1       -2.012   2.463   3.523  0.00  0.00    -0.028 A 
ENDROOT
BRANCH   3   7
ATOM      7  C   LIG    1       -0.013   1.086   0.008  0.00  0.00    +0.191 C 
BRANCH   7   8
ATOM      8  O   LIG    1       -0.704   1.559  -1.150  0.00  0.00    -0.390 OA
ATOM      9  H   LIG    1       -0.304   1.284  -1.986  0.00  0.00    +0.210 HD
ENDBRANCH   7   8
ENDBRANCH   3   7
BRANCH   6  10
ATOM     10  C   LIG    1       -2.718   2.950   4.762  0.00  0.00    +0.157 C 
BRANCH  10  11
ATOM     11  N   LIG    1       -2.011   2.464   5.949  0.00  0.00    -0.334 N 
ATOM     12  C   LIG    1       -0.994   3.103   6.607  0.00  0.00    +0.105 A 
ATOM     13  C   LIG    1       -0.637   2.310   7.636  0.00  0.00    +0.101 A 
ATOM     14  N   LIG    1       -1.415   1.218   7.606  0.00  0.00    -0.352 N 
ATOM     15  H   LIG    1       -1.366   0.436   8.270  0.00  0.00    +0.166 HD
ATOM     16  C   LIG    1       -2.244   1.306   6.603  0.00  0.00    +0.174 A 
ENDBRANCH  10  11
ENDBRANCH   6  10
TORSDOF 4
