REMARK  Name = ZINC12587586
REMARK                            x       y       z     vdW  Elec       q    Type
REMARK                         _______ _______ _______ _____ _____    ______ ____
ROOT
ATOM      1  C   LIG    1        0.049  -3.988   2.398  0.00  0.00    +0.384 C 
ATOM      2  N   LIG    1        0.202  -4.627   3.546  0.00  0.00    +0.001 NA
ENDROOT
BRANCH   1   3
ATOM      3  N   LIG    1       -0.049  -4.692   1.234  0.00  0.00    -0.290 N 
ATOM      4  H   LIG    1       -0.163  -4.216   0.379  0.00  0.00    +0.254 HD
ATOM      5  H   LIG    1       -0.005  -5.661   1.248  0.00  0.00    +0.254 HD
ENDBRANCH   1   3
BRANCH   1   6
ATOM      6  N   LIG    1       -0.012  -2.622   2.378  0.00  0.00    -0.213 N 
ATOM      7  H   LIG    1       -0.019  -2.124   3.211  0.00  0.00    +0.268 HD
BRANCH   6  17
ATOM      8  C   LIG    1       -0.241   1.586   0.096  0.00  0.00    +0.066 C 
ATOM      9  C   LIG    1       -0.174   0.081   0.062  0.00  0.00    +0.053 A 
ATOM     10  C   LIG    1       -0.166  -0.612  -1.163  0.00  0.00    +0.022 A 
ATOM     11  C   LIG    1       -0.218   0.055  -2.395  0.00  0.00    +0.012 A 
ATOM     12  C   LIG    1       -0.207  -0.668  -3.550  0.00  0.00    +0.001 A 
ATOM     13  C   LIG    1       -0.145  -2.059  -3.524  0.00  0.00    +0.002 A 
ATOM     14  C   LIG    1       -0.094  -2.739  -2.345  0.00  0.00    +0.028 A 
ATOM     15  C   LIG    1       -0.103  -2.029  -1.135  0.00  0.00    +0.078 A 
ATOM     16  N   LIG    1       -0.054  -2.648   0.051  0.00  0.00    -0.198 NA
ATOM     17  C   LIG    1       -0.065  -1.947   1.166  0.00  0.00    +0.293 A 
ATOM     18  N   LIG    1       -0.118  -0.617   1.178  0.00  0.00    -0.203 NA
ENDBRANCH   6  17
ENDBRANCH   1   6
BRANCH   2  19
ATOM     19  C   LIG    1        0.186  -3.944   4.700  0.00  0.00    +0.342 C 
ATOM     20  O   LIG    1       -0.785  -3.271   4.997  0.00  0.00    -0.248 OA
BRANCH  19  21
ATOM     21  C   LIG    1        1.347  -4.008   5.613  0.00  0.00    +0.077 A 
ATOM     22  C   LIG    1        2.408  -4.872   5.338  0.00  0.00    +0.016 A 
ATOM     23  C   LIG    1        3.488  -4.928   6.193  0.00  0.00    +0.001 A 
ATOM     24  C   LIG    1        3.526  -4.131   7.325  0.00  0.00    +0.002 A 
ATOM     25  C   LIG    1        2.484  -3.272   7.610  0.00  0.00    +0.024 A 
ATOM     26  C   LIG    1        1.391  -3.198   6.756  0.00  0.00    +0.041 A 
BRANCH  26  27
ATOM     27  N   LIG    1        0.343  -2.330   7.038  0.00  0.00    -0.346 N 
ATOM     28  H   LIG    1       -0.456  -2.339   6.487  0.00  0.00    +0.146 HD
ATOM     29  C   LIG    1        0.444  -1.400   8.165  0.00  0.00    +0.125 C 
ENDBRANCH  26  27
ENDBRANCH  19  21
ENDBRANCH   2  19
TORSDOF 6
