REMARK  Name = ZINC12428108
REMARK                            x       y       z     vdW  Elec       q    Type
REMARK                         _______ _______ _______ _____ _____    ______ ____
ROOT
ATOM      1  C   LIG    1        3.100   0.634  -4.128  0.00  0.00    +0.149 C 
ATOM      2  N   LIG    1        1.726   0.926  -3.712  0.00  0.00    -0.346 N 
ATOM      3  C   LIG    1        0.670   1.108  -4.559  0.00  0.00    +0.049 A 
ATOM      4  C   LIG    1        0.573   1.076  -5.949  0.00  0.00    +0.026 A 
ATOM      5  C   LIG    1       -0.678   1.308  -6.495  0.00  0.00    +0.002 A 
ATOM      6  C   LIG    1       -1.791   1.562  -5.711  0.00  0.00    +0.001 A 
ATOM      7  C   LIG    1       -1.725   1.600  -4.340  0.00  0.00    +0.010 A 
ATOM      8  C   LIG    1       -0.473   1.368  -3.761  0.00  0.00    +0.005 A 
ATOM      9  C   LIG    1       -0.019   1.326  -2.388  0.00  0.00    -0.005 A 
ATOM     10  C   LIG    1       -0.804   1.528  -1.118  0.00  0.00    +0.118 C 
ATOM     11  N   LIG    1       -0.012   1.005   0.008  0.00  0.00    -0.312 NA
ATOM     12  H   LIG    1        0.031  -0.091  -0.074  0.00  0.00    +0.122 HD
ATOM     13  C   LIG    1        1.353   1.550  -0.003  0.00  0.00    +0.087 C 
ATOM     14  C   LIG    1        2.144   0.936  -1.165  0.00  0.00    +0.069 C 
ATOM     15  C   LIG    1        1.307   1.058  -2.417  0.00  0.00    +0.025 A 
ENDROOT
TORSDOF 0
