REMARK  Name = ZINC11601320
REMARK                            x       y       z     vdW  Elec       q    Type
REMARK                         _______ _______ _______ _____ _____    ______ ____
ROOT
ATOM      1  C   LIG    1       -0.013   1.086   0.008  0.00  0.00    -0.066 C 
ENDROOT
BRANCH   1   2
ATOM      2  N   LIG    1        1.374   1.585   0.019  0.00  0.00    +0.380 N 
ATOM      3  H   LIG    1        1.842   1.261   0.874  0.00  0.00    -0.090 HD
ATOM      4  H   LIG    1        1.379   2.603   0.003  0.00  0.00    -0.090 HD
ATOM      5  H   LIG    1        1.879   1.230  -0.791  0.00  0.00    -0.090 HD
ENDBRANCH   1   2
BRANCH   1   6
ATOM      6  C   LIG    1       -0.753   1.593  -1.232  0.00  0.00    +0.019 C 
BRANCH   6  13
ATOM      7  C   LIG    1        0.910   1.677  -3.101  0.00  0.00    +0.005 A 
ATOM      8  C   LIG    1        1.493   1.137  -4.232  0.00  0.00    +0.020 A 
ATOM      9  C   LIG    1        1.038  -0.067  -4.737  0.00  0.00    +0.041 A 
ATOM     10 CL   LIG    1        1.766  -0.742  -6.161  0.00  0.00    -0.084 Cl
ATOM     11  C   LIG    1        0.002  -0.734  -4.107  0.00  0.00    +0.020 A 
ATOM     12  C   LIG    1       -0.577  -0.197  -2.973  0.00  0.00    +0.005 A 
ATOM     13  C   LIG    1       -0.121   1.007  -2.468  0.00  0.00    -0.049 A 
ENDBRANCH   6  13
ENDBRANCH   1   6
BRANCH   1  14
ATOM     14  C   LIG    1       -0.729   1.579   1.267  0.00  0.00    +0.019 C 
BRANCH  14  15
ATOM     15  C   LIG    1       -0.074   0.981   2.485  0.00  0.00    -0.049 A 
ATOM     16  C   LIG    1       -0.523  -0.226   2.988  0.00  0.00    +0.005 A 
ATOM     17  C   LIG    1        0.081  -0.778   4.102  0.00  0.00    +0.020 A 
ATOM     18  C   LIG    1        1.128  -0.118   4.720  0.00  0.00    +0.041 A 
ATOM     19 CL   LIG    1        1.883  -0.808   6.122  0.00  0.00    -0.084 Cl
ATOM     20  C   LIG    1        1.574   1.092   4.218  0.00  0.00    +0.020 A 
ATOM     21  C   LIG    1        0.973   1.641   3.101  0.00  0.00    +0.005 A 
ENDBRANCH  14  15
ENDBRANCH   1  14
TORSDOF 5
