REMARK  Name = ZINC08602413
REMARK                            x       y       z     vdW  Elec       q    Type
REMARK                         _______ _______ _______ _____ _____    ______ ____
ROOT
ATOM      1  C   LIG    1        0.845  -0.397  -1.185  0.00  0.00    -0.032 C 
ATOM      2  C   LIG    1        2.109  -0.851  -0.997  0.00  0.00    -0.007 C 
ENDROOT
BRANCH   1   3
ATOM      3  C   LIG    1        0.301  -0.277  -2.546  0.00  0.00    -0.021 A 
ATOM      4  C   LIG    1        0.865   0.631  -3.449  0.00  0.00    +0.012 A 
ATOM      5  C   LIG    1        0.352   0.739  -4.723  0.00  0.00    +0.046 A 
ATOM      6  C   LIG    1       -0.723  -0.051  -5.111  0.00  0.00    +0.117 A 
ATOM      7  C   LIG    1       -1.287  -0.953  -4.218  0.00  0.00    +0.046 A 
ATOM      8  C   LIG    1       -0.778  -1.074  -2.943  0.00  0.00    +0.012 A 
BRANCH   6   9
ATOM      9  O   LIG    1       -1.226   0.060  -6.368  0.00  0.00    -0.507 OA
ATOM     10  H   LIG    1       -0.812  -0.532  -7.011  0.00  0.00    +0.292 HD
ENDBRANCH   6   9
ENDBRANCH   1   3
BRANCH   2  11
ATOM     11  C   LIG    1        2.891  -1.357  -2.146  0.00  0.00    -0.017 A 
ATOM     12  C   LIG    1        2.476  -2.504  -2.824  0.00  0.00    +0.012 A 
ATOM     13  C   LIG    1        3.208  -2.972  -3.895  0.00  0.00    +0.046 A 
ATOM     14  C   LIG    1        4.356  -2.304  -4.299  0.00  0.00    +0.120 A 
ATOM     15  C   LIG    1        4.773  -1.163  -3.626  0.00  0.00    +0.046 A 
ATOM     16  C   LIG    1        4.043  -0.685  -2.558  0.00  0.00    +0.012 A 
BRANCH  14  17
ATOM     17  O   LIG    1        5.075  -2.769  -5.354  0.00  0.00    -0.494 OA
BRANCH  17  18
ATOM     18  C   LIG    1        6.246  -2.034  -5.716  0.00  0.00    +0.210 C 
BRANCH  18  19
ATOM     19  C   LIG    1        6.918  -2.704  -6.916  0.00  0.00    -0.038 C 
BRANCH  19  20
ATOM     20  N   LIG    1        6.030  -2.620  -8.084  0.00  0.00    +0.378 N 
ATOM     21  H   LIG    1        5.132  -3.018  -7.852  0.00  0.00    -0.082 HD
ATOM     22  C   LIG    1        6.621  -3.366  -9.203  0.00  0.00    -0.096 C 
ATOM     23  C   LIG    1        5.859  -1.213  -8.469  0.00  0.00    -0.096 C 
ENDBRANCH  19  20
ENDBRANCH  18  19
ENDBRANCH  17  18
ENDBRANCH  14  17
ENDBRANCH   2  11
BRANCH   2  24
ATOM     24  C   LIG    1        2.705  -0.840   0.357  0.00  0.00    -0.017 A 
ATOM     25  C   LIG    1        2.927   0.371   1.015  0.00  0.00    +0.008 A 
ATOM     26  C   LIG    1        3.483   0.374   2.278  0.00  0.00    +0.001 A 
ATOM     27  C   LIG    1        3.821  -0.819   2.892  0.00  0.00    +0.000 A 
ATOM     28  C   LIG    1        3.603  -2.023   2.244  0.00  0.00    +0.001 A 
ATOM     29  C   LIG    1        3.043  -2.040   0.984  0.00  0.00    +0.008 A 
ENDBRANCH   2  24
BRANCH   1  31
ATOM     30  C   LIG    1       -0.862  -1.210   0.420  0.00  0.00    +0.009 C 
ATOM     31  C   LIG    1       -0.003  -0.015   0.001  0.00  0.00    +0.033 C 
ENDBRANCH   1  31
TORSDOF 9
