REMARK  Name = ZINC12418339
REMARK                            x       y       z     vdW  Elec       q    Type
REMARK                         _______ _______ _______ _____ _____    ______ ____
ROOT
ATOM      1  C   LIG    1       -4.851   0.220   0.038  0.00  0.00    +0.028 C 
ATOM      2  C   LIG    1       -6.050  -0.416  -0.056  0.00  0.00    +0.078 C 
ATOM      3  C   LIG    1       -7.415   0.147  -0.172  0.00  0.00    +0.275 C 
ATOM      4  N   LIG    1       -8.399  -0.721  -0.248  0.00  0.00    -0.168 NA
ATOM      5  C   LIG    1       -8.196  -2.029  -0.224  0.00  0.00    +0.102 C 
ATOM      6  O   LIG    1       -7.615   1.351  -0.196  0.00  0.00    -0.267 OA
ATOM      7  S   LIG    1       -6.421  -2.165  -0.084  0.00  0.00    -0.066 S 
ENDROOT
BRANCH   1  10
ATOM      8  C   LIG    1       -1.238  -0.661   0.515  0.00  0.00    +0.163 A 
ATOM      9  C   LIG    1       -2.379   0.068   0.244  0.00  0.00    +0.057 A 
ATOM     10  C   LIG    1       -3.635  -0.549   0.324  0.00  0.00    -0.019 A 
ATOM     11  C   LIG    1       -3.725  -1.902   0.678  0.00  0.00    +0.032 A 
ATOM     12  C   LIG    1       -2.580  -2.620   0.946  0.00  0.00    +0.087 A 
ATOM     13 CL   LIG    1       -2.692  -4.296   1.384  0.00  0.00    -0.080 Cl
ATOM     14  C   LIG    1       -1.335  -2.008   0.861  0.00  0.00    +0.177 A 
BRANCH   8  16
ATOM     15  C   LIG    1        0.008   1.318   0.079  0.00  0.00    +0.277 C 
ATOM     16  O   LIG    1       -0.018  -0.065   0.438  0.00  0.00    -0.491 OA
ENDBRANCH   8  16
BRANCH  14  17
ATOM     17  O   LIG    1       -0.210  -2.723   1.121  0.00  0.00    -0.502 OA
ATOM     18  H   LIG    1        0.061  -2.707   2.049  0.00  0.00    +0.292 HD
ENDBRANCH  14  17
ENDBRANCH   1  10
BRANCH   5  19
ATOM     19  C   LIG    1       -9.195  -3.113  -0.300  0.00  0.00    +0.005 A 
ATOM     20  C   LIG    1       -8.787  -4.448  -0.252  0.00  0.00    +0.010 A 
ATOM     21  C   LIG    1       -9.726  -5.456  -0.323  0.00  0.00    +0.001 A 
ATOM     22  C   LIG    1      -11.070  -5.147  -0.442  0.00  0.00    +0.000 A 
ATOM     23  C   LIG    1      -11.481  -3.827  -0.490  0.00  0.00    +0.001 A 
ATOM     24  C   LIG    1      -10.554  -2.809  -0.415  0.00  0.00    +0.010 A 
ENDBRANCH   5  19
TORSDOF 4
