REMARK  Name = ZINC12403084
REMARK                            x       y       z     vdW  Elec       q    Type
REMARK                         _______ _______ _______ _____ _____    ______ ____
ROOT
ATOM      1  C   LIG    1        0.061  -4.248  -0.021  0.00  0.00    +0.138 C 
ATOM      2  N   LIG    1        0.075  -4.903   1.099  0.00  0.00    -0.188 NA
ENDROOT
BRANCH   1   7
ATOM      3  C   LIG    1       -0.018   1.503   0.010  0.00  0.00    +0.044 C 
ATOM      4  C   LIG    1        0.002  -0.004   0.002  0.00  0.00    -0.050 A 
ATOM      5  C   LIG    1        0.006  -0.686  -1.202  0.00  0.00    +0.004 A 
ATOM      6  C   LIG    1        0.025  -2.065  -1.217  0.00  0.00    +0.010 A 
ATOM      7  C   LIG    1        0.041  -2.773  -0.013  0.00  0.00    -0.005 A 
ATOM      8  C   LIG    1        0.037  -2.078   1.198  0.00  0.00    +0.010 A 
ATOM      9  C   LIG    1        0.023  -0.699   1.198  0.00  0.00    +0.004 A 
ENDBRANCH   1   7
BRANCH   2  10
ATOM     10  N   LIG    1        0.094  -6.304   1.091  0.00  0.00    -0.217 N 
ATOM     11  H   LIG    1        0.096  -6.784   0.248  0.00  0.00    +0.176 HD
BRANCH  10  12
ATOM     12  C   LIG    1        0.109  -6.993   2.270  0.00  0.00    +0.166 C 
ATOM     13  N   LIG    1        0.103  -6.506   3.504  0.00  0.00    -0.157 NA
ATOM     14  C   LIG    1        0.119  -7.235   4.586  0.00  0.00    +0.248 C 
ATOM     15  C   LIG    1        0.145  -8.742   4.356  0.00  0.00    +0.174 C 
ATOM     16  O   LIG    1        0.112  -6.747   5.699  0.00  0.00    -0.273 OA
ATOM     17  S   LIG    1        0.135  -8.764   2.514  0.00  0.00    -0.082 S 
ENDBRANCH  10  12
ENDBRANCH   2  10
TORSDOF 3
