REMARK  Name = ZINC08589452
REMARK                            x       y       z     vdW  Elec       q    Type
REMARK                         _______ _______ _______ _____ _____    ______ ____
ROOT
ATOM      1  C   LIG    1       -1.457  -3.870   2.807  0.00  0.00    +0.249 A 
ATOM      2  C   LIG    1       -2.638  -3.407   3.364  0.00  0.00    +0.204 A 
ATOM      3  N   LIG    1       -2.967  -2.241   3.947  0.00  0.00    -0.209 NA
ATOM      4  C   LIG    1       -4.191  -2.045   4.407  0.00  0.00    +0.137 A 
ATOM      5  C   LIG    1       -5.150  -3.055   4.286  0.00  0.00    +0.077 A 
ATOM      6  C   LIG    1       -4.853  -4.284   3.688  0.00  0.00    +0.087 A 
ATOM      7  C   LIG    1       -5.902  -5.203   3.632  0.00  0.00    +0.036 A 
ATOM      8  C   LIG    1       -7.115  -4.883   4.139  0.00  0.00    +0.048 A 
ATOM      9  S   LIG    1       -6.856  -3.224   4.745  0.00  0.00    -0.092 S 
ATOM     10  N   LIG    1       -3.541  -4.422   3.224  0.00  0.00    -0.192 N 
ATOM     11  N   LIG    1       -2.873  -5.471   2.584  0.00  0.00    -0.057 NA
ATOM     12  N   LIG    1       -1.660  -5.101   2.355  0.00  0.00    -0.108 NA
ENDROOT
BRANCH   1  13
ATOM     13  S   LIG    1        0.057  -2.973   2.709  0.00  0.00    +0.048 S 
ATOM     14  O   LIG    1        0.022  -2.003   3.747  0.00  0.00    -0.163 OA
ATOM     15  O   LIG    1        1.094  -3.938   2.602  0.00  0.00    -0.163 OA
BRANCH  13  22
ATOM     16  C   LIG    1       -0.018   1.503   0.010  0.00  0.00    +0.044 C 
ATOM     17  C   LIG    1        0.002  -0.004   0.002  0.00  0.00    -0.049 A 
ATOM     18  C   LIG    1        0.006  -0.689  -1.199  0.00  0.00    +0.004 A 
ATOM     19  C   LIG    1        0.025  -2.071  -1.207  0.00  0.00    +0.005 A 
ATOM     20  C   LIG    1        0.040  -2.768  -0.013  0.00  0.00    -0.025 A 
ATOM     21  C   LIG    1        0.059  -4.275  -0.021  0.00  0.00    +0.046 C 
ATOM     22  C   LIG    1        0.037  -2.084   1.188  0.00  0.00    +0.099 A 
ATOM     23  C   LIG    1        0.023  -0.702   1.195  0.00  0.00    +0.031 A 
ENDBRANCH  13  22
ENDBRANCH   1  13
BRANCH   4  24
ATOM     24  N   LIG    1       -4.522  -0.842   5.006  0.00  0.00    -0.326 N 
ATOM     25  H   LIG    1       -5.421  -0.699   5.343  0.00  0.00    +0.148 HD
BRANCH  24  26
ATOM     26  C   LIG    1       -3.516   0.215   5.131  0.00  0.00    +0.066 C 
ATOM     27  C   LIG    1       -2.686  -0.018   6.395  0.00  0.00    +0.027 C 
ATOM     28  C   LIG    1       -4.213   1.574   5.222  0.00  0.00    +0.027 C 
ENDBRANCH  24  26
ENDBRANCH   4  24
TORSDOF 4
