REMARK  Name = ZINC11597198
REMARK                            x       y       z     vdW  Elec       q    Type
REMARK                         _______ _______ _______ _____ _____    ______ ____
ROOT
ATOM      1  C   LIG    1        2.480   3.898   0.001  0.00  0.00    -0.010 C 
ATOM      2  N   LIG    1        2.297   5.298  -0.407  0.00  0.00    +0.386 N 
ATOM      3  H   LIG    1        3.180   5.807  -0.285  0.00  0.00    -0.085 HD
ATOM      4  H   LIG    1        2.015   5.331  -1.394  0.00  0.00    -0.085 HD
ATOM      5  C   LIG    1        1.252   5.929   0.421  0.00  0.00    -0.077 C 
ATOM      6  C   LIG    1       -0.105   5.350   0.018  0.00  0.00    +0.016 C 
ATOM      7  C   LIG    1       -0.041   3.844   0.018  0.00  0.00    -0.047 A 
ATOM      8  C   LIG    1       -1.231   3.132   0.028  0.00  0.00    +0.004 A 
ATOM      9  C   LIG    1       -1.218   1.752   0.017  0.00  0.00    +0.000 A 
ATOM     10  C   LIG    1       -0.013   1.076   0.008  0.00  0.00    +0.000 A 
ATOM     11  C   LIG    1        1.172   1.783   0.000  0.00  0.00    +0.002 A 
ATOM     12  C   LIG    1        1.161   3.171   0.006  0.00  0.00    -0.054 A 
ENDROOT
BRANCH   1  16
ATOM     13  C   LIG    1        5.143   1.979  -2.735  0.00  0.00    +0.120 A 
ATOM     14  C   LIG    1        5.247   1.730  -1.374  0.00  0.00    +0.046 A 
ATOM     15  C   LIG    1        4.385   2.352  -0.492  0.00  0.00    +0.006 A 
ATOM     16  C   LIG    1        3.419   3.222  -0.964  0.00  0.00    -0.057 A 
ATOM     17  C   LIG    1        3.309   3.467  -2.320  0.00  0.00    +0.006 A 
ATOM     18  C   LIG    1        4.173   2.852  -3.206  0.00  0.00    +0.046 A 
BRANCH  13  20
ATOM     19  C   LIG    1        5.824   1.672  -4.992  0.00  0.00    +0.277 C 
ATOM     20  O   LIG    1        5.989   1.368  -3.606  0.00  0.00    -0.495 OA
ENDBRANCH  13  20
ENDBRANCH   1  16
TORSDOF 2
