REMARK  Name = ZINC08616637
REMARK                            x       y       z     vdW  Elec       q    Type
REMARK                         _______ _______ _______ _____ _____    ______ ____
ROOT
ATOM      1  C   LIG    1       -3.331   7.647   0.109  0.00  0.00    -0.069 C 
ATOM      2  C   LIG    1       -3.052   8.313   1.459  0.00  0.00    +0.003 C 
ATOM      3  C   LIG    1       -3.161   9.832   1.305  0.00  0.00    +0.105 C 
ATOM      4  N   LIG    1       -4.506  10.184   0.833  0.00  0.00    -0.315 N 
ATOM      5  C   LIG    1       -4.777   9.594  -0.485  0.00  0.00    +0.105 C 
ATOM      6  C   LIG    1       -4.718   8.068  -0.384  0.00  0.00    +0.003 C 
ENDROOT
BRANCH   4   7
ATOM      7  C   LIG    1       -4.679  11.556   0.807  0.00  0.00    +0.133 A 
ATOM      8  C   LIG    1       -5.513  12.193   1.764  0.00  0.00    +0.055 A 
ATOM      9  C   LIG    1       -6.283  11.614   2.860  0.00  0.00    +0.002 A 
ATOM     10  C   LIG    1       -7.013  12.437   3.649  0.00  0.00    +0.056 A 
ATOM     11  S   LIG    1       -6.706  14.053   2.962  0.00  0.00    -0.076 S 
ATOM     12  C   LIG    1       -5.615  13.594   1.642  0.00  0.00    +0.114 A 
ATOM     13  N   LIG    1       -4.971  14.250   0.695  0.00  0.00    -0.228 NA
ATOM     14  C   LIG    1       -4.210  13.603  -0.166  0.00  0.00    +0.224 A 
ATOM     15  N   LIG    1       -4.066  12.291  -0.107  0.00  0.00    -0.220 NA
BRANCH   9  16
ATOM     16  C   LIG    1       -6.267  10.152   3.104  0.00  0.00    -0.017 A 
ATOM     17  C   LIG    1       -6.655   9.270   2.096  0.00  0.00    +0.008 A 
ATOM     18  C   LIG    1       -6.633   7.910   2.328  0.00  0.00    +0.001 A 
ATOM     19  C   LIG    1       -6.237   7.421   3.560  0.00  0.00    +0.000 A 
ATOM     20  C   LIG    1       -5.857   8.292   4.566  0.00  0.00    +0.001 A 
ATOM     21  C   LIG    1       -5.870   9.654   4.344  0.00  0.00    +0.008 A 
ENDBRANCH   9  16
ENDBRANCH   4   7
BRANCH   1  22
ATOM     22  N   LIG    1       -3.295   6.181   0.265  0.00  0.00    +0.383 N 
ATOM     23  H   LIG    1       -3.870   5.748  -0.467  0.00  0.00    -0.085 HD
ATOM     24  H   LIG    1       -3.670   5.929   1.188  0.00  0.00    -0.085 HD
BRANCH  22  25
ATOM     25  C   LIG    1       -1.910   5.687   0.151  0.00  0.00    -0.047 C 
BRANCH  25  26
ATOM     26  C   LIG    1       -1.905   4.166   0.317  0.00  0.00    +0.135 C 
BRANCH  26  27
ATOM     27  O   LIG    1       -2.432   3.825   1.601  0.00  0.00    -0.390 OA
ATOM     28  H   LIG    1       -1.933   4.194   2.342  0.00  0.00    +0.210 HD
ENDBRANCH  26  27
BRANCH  26  29
ATOM     29  C   LIG    1       -0.471   3.645   0.200  0.00  0.00    +0.258 C 
BRANCH  29  30
ATOM     30  O   LIG    1       -0.479   2.216   0.239  0.00  0.00    -0.489 OA
BRANCH  30  34
ATOM     31  C   LIG    1        3.173   0.314  -0.056  0.00  0.00    +0.120 A 
ATOM     32  C   LIG    1        2.011  -0.432   0.076  0.00  0.00    +0.049 A 
ATOM     33  C   LIG    1        0.790   0.205   0.176  0.00  0.00    +0.049 A 
ATOM     34  C   LIG    1        0.725   1.590   0.145  0.00  0.00    +0.121 A 
ATOM     35  C   LIG    1        1.887   2.336   0.014  0.00  0.00    +0.049 A 
ATOM     36  C   LIG    1        3.108   1.699  -0.086  0.00  0.00    +0.049 A 
BRANCH  31  38
ATOM     37  C   LIG    1        5.531   0.518  -0.287  0.00  0.00    +0.277 C 
ATOM     38  O   LIG    1        4.376  -0.312  -0.154  0.00  0.00    -0.495 OA
ENDBRANCH  31  38
ENDBRANCH  30  34
ENDBRANCH  29  30
ENDBRANCH  26  29
ENDBRANCH  25  26
ENDBRANCH  22  25
ENDBRANCH   1  22
TORSDOF 10
