REMARK  Name = ZINC12354765
REMARK                            x       y       z     vdW  Elec       q    Type
REMARK                         _______ _______ _______ _____ _____    ______ ____
ROOT
ATOM      1  C   LIG    1        3.566   3.845   1.063  0.00  0.00    +0.068 C 
ATOM      2  C   LIG    1        2.268   4.331   0.470  0.00  0.00    +0.066 A 
ATOM      3  C   LIG    1        1.242   3.533   0.009  0.00  0.00    +0.095 A 
ATOM      4  N   LIG    1        0.258   4.382  -0.450  0.00  0.00    -0.298 N 
ATOM      5  C   LIG    1       -0.967   4.157  -1.000  0.00  0.00    +0.093 A 
ATOM      6  C   LIG    1       -1.758   5.190  -1.366  0.00  0.00    +0.018 A 
ATOM      7  C   LIG    1       -1.324   6.511  -1.178  0.00  0.00    +0.005 A 
ATOM      8  C   LIG    1       -0.103   6.748  -0.624  0.00  0.00    +0.047 A 
ATOM      9  C   LIG    1        0.707   5.659  -0.248  0.00  0.00    +0.138 A 
ATOM     10  N   LIG    1        1.916   5.600   0.302  0.00  0.00    -0.232 NA
ENDROOT
BRANCH   3  11
ATOM     11  C   LIG    1        1.208   2.060   0.002  0.00  0.00    +0.094 A 
ATOM     12  C   LIG    1       -0.017   1.376   0.010  0.00  0.00    +0.050 A 
ATOM     13  C   LIG    1        0.002  -0.004   0.002  0.00  0.00    +0.116 A 
ATOM     14  N   LIG    1        1.166  -0.638  -0.013  0.00  0.00    -0.223 NA
ATOM     15  C   LIG    1        2.310   0.032  -0.020  0.00  0.00    +0.213 A 
ATOM     16  N   LIG    1        2.341   1.355  -0.013  0.00  0.00    -0.213 NA
BRANCH  15  17
ATOM     17  N   LIG    1        3.502  -0.670  -0.035  0.00  0.00    -0.327 N 
ATOM     18  H   LIG    1        4.346  -0.193  -0.041  0.00  0.00    +0.145 HD
ATOM     19  H   LIG    1        3.494  -1.640  -0.040  0.00  0.00    +0.145 HD
ENDBRANCH  15  17
ENDBRANCH   3  11
TORSDOF 2
