REMARK  Name = ZINC08662575
REMARK                            x       y       z     vdW  Elec       q    Type
REMARK                         _______ _______ _______ _____ _____    ______ ____
ROOT
ATOM      1  C   LIG    1       -0.017   1.384   0.010  0.00  0.00    +0.049 A 
ATOM      2  C   LIG    1        1.183   2.091   0.002  0.00  0.00    +0.084 A 
ATOM      3  C   LIG    1        2.405   1.405  -0.013  0.00  0.00    +0.141 A 
ATOM      4  C   LIG    1        2.431   0.043  -0.021  0.00  0.00    +0.063 A 
ATOM      5  C   LIG    1        1.232  -0.687  -0.014  0.00  0.00    +0.093 A 
ATOM      6  N   LIG    1        1.269  -2.035  -0.023  0.00  0.00    -0.207 NA
ATOM      7  C   LIG    1        0.169  -2.740  -0.015  0.00  0.00    +0.280 A 
ATOM      8  C   LIG    1       -1.142  -2.064   0.001  0.00  0.00    +0.311 A 
ATOM      9  O   LIG    1       -2.171  -2.715   0.007  0.00  0.00    -0.262 OA
ATOM     10  N   LIG    1       -1.185  -0.714   0.009  0.00  0.00    -0.316 N 
ATOM     11  H   LIG    1       -2.037  -0.249   0.020  0.00  0.00    +0.169 HD
ATOM     12  C   LIG    1        0.002  -0.004   0.002  0.00  0.00    +0.069 A 
ENDROOT
BRANCH   2  13
ATOM     13  C   LIG    1        1.169   3.523   0.009  0.00  0.00    +0.102 C 
ATOM     14  N   LIG    1        1.157   4.659   0.015  0.00  0.00    -0.191 NA
ENDBRANCH   2  13
BRANCH   3  15
ATOM     15  N   LIG    1        3.675   2.164  -0.021  0.00  0.00    +0.007 N 
ATOM     16  O   LIG    1        4.731   1.576  -0.035  0.00  0.00    -0.130 OA
BRANCH  15  17
ATOM     17  O   LIG    1        3.656   3.373  -0.015  0.00  0.00    -0.396 OA
ATOM     18  H   LIG    1        2.838   3.829  -0.004  0.00  0.00    +0.329 HD
ENDBRANCH  15  17
ENDBRANCH   3  15
BRANCH   7  19
ATOM     19  O   LIG    1        0.232  -4.093  -0.023  0.00  0.00    -0.489 OA
ATOM     20  H   LIG    1       -0.557  -4.599  -0.017  0.00  0.00    +0.294 HD
ENDBRANCH   7  19
TORSDOF 4
