REMARK  Name = ZINC08681777
REMARK                            x       y       z     vdW  Elec       q    Type
REMARK                         _______ _______ _______ _____ _____    ______ ____
ROOT
ATOM      1  C   LIG    1        1.375   1.400   4.110  0.00  0.00    +0.185 C 
ATOM      2  C   LIG    1        2.087   2.606   4.718  0.00  0.00    +0.052 C 
ATOM      3  C   LIG    1        1.024   3.606   5.195  0.00  0.00    +0.012 C 
ATOM      4  C   LIG    1        0.127   4.008   4.022  0.00  0.00    +0.012 C 
ATOM      5  C   LIG    1        0.201   2.925   6.258  0.00  0.00    -0.020 C 
ATOM      6  C   LIG    1       -0.031   1.627   6.207  0.00  0.00    -0.044 C 
ATOM      7  C   LIG    1       -0.794   0.981   7.300  0.00  0.00    -0.000 C 
ATOM      8  C   LIG    1       -0.781  -0.336   7.417  0.00  0.00    -0.023 C 
ATOM      9  C   LIG    1       -0.045  -1.257   6.492  0.00  0.00    +0.012 C 
ATOM     10  C   LIG    1        0.598  -2.377   7.312  0.00  0.00    +0.012 C 
ATOM     11  C   LIG    1        1.046  -0.522   5.711  0.00  0.00    +0.007 C 
ATOM     12  C   LIG    1        0.439   0.739   5.092  0.00  0.00    +0.063 C 
ENDROOT
BRANCH   1  13
ATOM     13  O   LIG    1        0.614   1.836   2.953  0.00  0.00    -0.461 OA
BRANCH  13  14
ATOM     14  C   LIG    1        1.241   1.814   1.767  0.00  0.00    +0.310 C 
ATOM     15  O   LIG    1        2.389   1.442   1.697  0.00  0.00    -0.251 OA
BRANCH  14  16
ATOM     16  C   LIG    1        0.514   2.252   0.521  0.00  0.00    +0.094 C 
ATOM     17  C   LIG    1       -0.713   1.364   0.307  0.00  0.00    +0.019 C 
BRANCH  16  19
ATOM     18  C   LIG    1        0.754   2.692  -1.927  0.00  0.00    +0.004 C 
ATOM     19  C   LIG    1        1.448   2.130  -0.684  0.00  0.00    +0.011 C 
ENDBRANCH  16  19
ENDBRANCH  14  16
ENDBRANCH  13  14
ENDBRANCH   1  13
BRANCH  11  20
ATOM     20  C   LIG    1        2.183  -0.133   6.658  0.00  0.00    +0.008 C 
BRANCH  20  21
ATOM     21  C   LIG    1        1.606   0.586   7.879  0.00  0.00    +0.045 C 
BRANCH  21  22
ATOM     22  C   LIG    1        2.725   0.856   8.887  0.00  0.00    +0.179 C 
ATOM     23  C   LIG    1        2.131   1.465  10.160  0.00  0.00    +0.076 C 
ATOM     24  C   LIG    1        3.260   1.784  11.145  0.00  0.00    +0.129 C 
ATOM     25  C   LIG    1        4.226   2.780  10.492  0.00  0.00    +0.152 C 
ATOM     26  C   LIG    1        4.647   2.226   9.149  0.00  0.00    +0.310 C 
ATOM     27  O   LIG    1        5.813   2.177   8.835  0.00  0.00    -0.251 OA
ATOM     28  O   LIG    1        3.684   1.788   8.312  0.00  0.00    -0.461 OA
BRANCH  24  29
ATOM     29  O   LIG    1        3.961   0.583  11.475  0.00  0.00    -0.391 OA
ATOM     30  H   LIG    1        4.695   0.713  12.091  0.00  0.00    +0.210 HD
ENDBRANCH  24  29
ENDBRANCH  21  22
ENDBRANCH  20  21
ENDBRANCH  11  20
TORSDOF 8
