REMARK  Name = ZINC12370274
REMARK                            x       y       z     vdW  Elec       q    Type
REMARK                         _______ _______ _______ _____ _____    ______ ____
ROOT
ATOM      1  C   LIG    1       -2.422   1.285  -2.892  0.00  0.00    +0.001 A 
ATOM      2  C   LIG    1       -2.079   2.501  -3.453  0.00  0.00    +0.005 A 
ATOM      3  C   LIG    1       -1.067   3.258  -2.894  0.00  0.00    -0.027 A 
ATOM      4  C   LIG    1       -0.398   2.801  -1.774  0.00  0.00    +0.011 A 
ATOM      5  C   LIG    1       -0.742   1.585  -1.213  0.00  0.00    -0.022 A 
ATOM      6  C   LIG    1       -1.750   0.825  -1.775  0.00  0.00    +0.006 A 
ENDROOT
BRANCH   3   7
ATOM      7  C   LIG    1       -0.692   4.584  -3.506  0.00  0.00    +0.157 C 
BRANCH   7   8
ATOM      8  N   LIG    1        0.352   4.379  -4.514  0.00  0.00    -0.334 N 
ATOM      9  C   LIG    1        1.703   4.409  -4.301  0.00  0.00    +0.105 A 
ATOM     10  C   LIG    1        2.291   4.170  -5.489  0.00  0.00    +0.101 A 
ATOM     11  N   LIG    1        1.323   4.007  -6.403  0.00  0.00    -0.352 N 
ATOM     12  H   LIG    1        1.475   3.816  -7.400  0.00  0.00    +0.166 HD
ATOM     13  C   LIG    1        0.160   4.131  -5.827  0.00  0.00    +0.174 A 
ENDBRANCH   7   8
ENDBRANCH   3   7
BRANCH   5  14
ATOM     14  C   LIG    1       -0.013   1.086   0.008  0.00  0.00    +0.191 C 
BRANCH  14  15
ATOM     15  O   LIG    1       -0.682   1.547   1.184  0.00  0.00    -0.390 OA
ATOM     16  H   LIG    1       -0.266   1.262   2.009  0.00  0.00    +0.210 HD
ENDBRANCH  14  15
ENDBRANCH   5  14
TORSDOF 4
