REMARK  Name = ZINC12403599
REMARK                            x       y       z     vdW  Elec       q    Type
REMARK                         _______ _______ _______ _____ _____    ______ ____
ROOT
ATOM      1  C   LIG    1       -0.000  -0.734  -1.278  0.00  0.00    -0.002 A 
ATOM      2  C   LIG    1       -0.015  -0.029  -2.486  0.00  0.00    +0.010 A 
ATOM      3  C   LIG    1       -0.017  -0.712  -3.680  0.00  0.00    +0.009 A 
ATOM      4  C   LIG    1       -0.004  -2.107  -3.687  0.00  0.00    -0.018 A 
ATOM      5  C   LIG    1        0.011  -2.812  -2.483  0.00  0.00    +0.009 A 
ATOM      6  C   LIG    1        0.019  -2.132  -1.287  0.00  0.00    +0.010 A 
ENDROOT
BRANCH   4   7
ATOM      7  C   LIG    1       -0.006  -2.842  -4.975  0.00  0.00    -0.018 A 
ATOM      8  C   LIG    1       -0.015  -2.141  -6.180  0.00  0.00    +0.008 A 
ATOM      9  C   LIG    1       -0.017  -2.830  -7.376  0.00  0.00    +0.001 A 
ATOM     10  C   LIG    1       -0.011  -4.213  -7.380  0.00  0.00    +0.000 A 
ATOM     11  C   LIG    1       -0.001  -4.914  -6.188  0.00  0.00    +0.001 A 
ATOM     12  C   LIG    1        0.007  -4.236  -4.986  0.00  0.00    +0.008 A 
ENDBRANCH   4   7
BRANCH   1  14
ATOM     13  C   LIG    1       -0.018   1.503   0.010  0.00  0.00    +0.068 C 
ATOM     14  C   LIG    1        0.002  -0.004   0.002  0.00  0.00    +0.065 C 
ATOM     15  N   LIG    1        0.022  -0.659   1.123  0.00  0.00    -0.177 NA
BRANCH  15  16
ATOM     16  N   LIG    1        0.024   0.035   2.340  0.00  0.00    -0.259 N 
ATOM     17  H   LIG    1        0.011   1.005   2.345  0.00  0.00    +0.191 HD
ATOM     18  C   LIG    1        0.044  -0.655   3.521  0.00  0.00    +0.142 C 
BRANCH  18  19
ATOM     19  N   LIG    1        0.046   0.022   4.708  0.00  0.00    -0.338 N 
ATOM     20  H   LIG    1        0.061  -0.468   5.546  0.00  0.00    +0.144 HD
ATOM     21  H   LIG    1        0.033   0.992   4.714  0.00  0.00    +0.144 HD
ENDBRANCH  18  19
BRANCH  18  22
ATOM     22  S   LIG    1        0.067  -2.315   3.511  0.00  0.00    -0.109 S 
ATOM     23  H   LIG    1        0.061  -2.762   2.227  0.00  0.00    +0.110 HD
ENDBRANCH  18  22
ENDBRANCH  15  16
ENDBRANCH   1  14
TORSDOF 5
