REMARK  Name = ZINC12080554
REMARK                            x       y       z     vdW  Elec       q    Type
REMARK                         _______ _______ _______ _____ _____    ______ ____
ROOT
ATOM      1  C   LIG    1        2.757   1.967  -0.441  0.00  0.00    +0.130 A 
ATOM      2  C   LIG    1        3.838   2.826  -0.512  0.00  0.00    +0.046 A 
ATOM      3  C   LIG    1        3.686   4.179  -0.240  0.00  0.00    +0.004 A 
ATOM      4  C   LIG    1        2.457   4.695   0.108  0.00  0.00    +0.014 A 
ATOM      5  C   LIG    1        1.351   3.849   0.187  0.00  0.00    +0.050 A 
ATOM      6  C   LIG    1        0.019   4.345   0.552  0.00  0.00    +0.260 A 
ATOM      7  O   LIG    1       -0.152   5.525   0.799  0.00  0.00    -0.267 OA
ATOM      8  N   LIG    1       -1.013   3.479   0.612  0.00  0.00    -0.306 N 
ATOM      9  C   LIG    1       -0.865   2.149   0.339  0.00  0.00    +0.090 A 
ATOM     10  C   LIG    1        0.319   1.611   0.002  0.00  0.00    +0.030 A 
ATOM     11  C   LIG    1        1.500   2.471  -0.089  0.00  0.00    +0.030 A 
ENDROOT
BRANCH   1  12
ATOM     12  O   LIG    1        2.915   0.644  -0.710  0.00  0.00    -0.477 OA
BRANCH  12  13
ATOM     13  C   LIG    1        4.248   0.183  -0.940  0.00  0.00    +0.278 C 
ATOM     14  C   LIG    1        4.620   0.411  -2.406  0.00  0.00    +0.064 C 
BRANCH  13  15
ATOM     15  C   LIG    1        4.333  -1.288  -0.623  0.00  0.00    +0.348 C 
ATOM     16  O   LIG    1        3.334  -1.900  -0.327  0.00  0.00    -0.247 OA
BRANCH  15  17
ATOM     17  O   LIG    1        5.517  -1.917  -0.670  0.00  0.00    -0.462 OA
BRANCH  17  19
ATOM     18  C   LIG    1        6.951  -3.874  -0.459  0.00  0.00    +0.048 C 
ATOM     19  C   LIG    1        5.524  -3.334  -0.353  0.00  0.00    +0.229 C 
ENDBRANCH  17  19
ENDBRANCH  15  17
ENDBRANCH  13  15
ENDBRANCH  12  13
ENDBRANCH   1  12
BRANCH   8  20
ATOM     20  C   LIG    1       -2.339   3.983   0.978  0.00  0.00    +0.220 C 
BRANCH  20  21
ATOM     21  C   LIG    1       -3.078   4.401  -0.268  0.00  0.00    +0.237 C 
ATOM     22  N   LIG    1       -4.327   4.899  -0.174  0.00  0.00    -0.284 N 
ATOM     23  H   LIG    1       -4.721   5.060   0.697  0.00  0.00    +0.155 HD
ATOM     24  O   LIG    1       -2.549   4.288  -1.353  0.00  0.00    -0.274 OA
BRANCH  22  25
ATOM     25  C   LIG    1       -5.054   5.184  -1.335  0.00  0.00    +0.034 A 
ATOM     26  C   LIG    1       -5.952   6.244  -1.351  0.00  0.00    +0.025 A 
ATOM     27  C   LIG    1       -6.665   6.526  -2.500  0.00  0.00    +0.034 A 
ATOM     28  C   LIG    1       -6.494   5.748  -3.630  0.00  0.00    +0.122 A 
ATOM     29  C   LIG    1       -5.605   4.689  -3.616  0.00  0.00    +0.034 A 
ATOM     30  C   LIG    1       -4.885   4.405  -2.472  0.00  0.00    +0.025 A 
BRANCH  28  31
ATOM     31  N   LIG    1       -7.264   6.050  -4.858  0.00  0.00    +0.006 N 
ATOM     32  O   LIG    1       -7.114   5.365  -5.854  0.00  0.00    -0.130 OA
BRANCH  31  33
ATOM     33  O   LIG    1       -8.047   6.982  -4.872  0.00  0.00    -0.396 OA
ATOM     34  H   LIG    1       -8.163   7.508  -4.105  0.00  0.00    +0.329 HD
ENDBRANCH  31  33
ENDBRANCH  28  31
ENDBRANCH  22  25
ENDBRANCH  20  21
ENDBRANCH   8  20
TORSDOF 10
