REMARK  Name = ZINC11616927
REMARK                            x       y       z     vdW  Elec       q    Type
REMARK                         _______ _______ _______ _____ _____    ______ ____
ROOT
ATOM      1  C   UNK A  0        8.914   5.375  -1.275  0.00  0.00    +0.032 C 
ENDROOT
BRANCH   1   2
ATOM      2  C   UNK A  0        7.457   5.005  -1.174  0.00  0.00    -0.043 A 
ATOM      3  C   UNK A  0        6.763   4.625  -2.309  0.00  0.00    +0.004 A 
ATOM      4  C   UNK A  0        5.428   4.285  -2.224  0.00  0.00    +0.013 A 
ATOM      5  C   UNK A  0        4.779   4.326  -0.989  0.00  0.00    +0.037 A 
ATOM      6  C   UNK A  0        5.483   4.717   0.151  0.00  0.00    +0.013 A 
ATOM      7  C   UNK A  0        6.819   5.049   0.053  0.00  0.00    +0.004 A 
BRANCH   5   8
ATOM      8  C   UNK A  0        3.349   3.964  -0.890  0.00  0.00    +0.245 C 
ATOM      9  N   GLU A  1        2.724   4.005   0.304  0.00  0.00    -0.298 N 
ATOM     10  H   GLU A  1        3.213   4.272   1.098  0.00  0.00    +0.150 HD
ATOM     11  O   UNK A  0        2.736   3.629  -1.885  0.00  0.00    -0.270 OA
BRANCH   9  12
ATOM     12  CA  GLU A  1        1.307   3.646   0.402  0.00  0.00    +0.182 C 
BRANCH  12  13
ATOM     13  C   GLU A  1        1.176   2.152   0.547  0.00  0.00    +0.325 C 
ATOM     14  O   GLU A  1        2.165   1.458   0.567  0.00  0.00    -0.249 OA
BRANCH  13  15
ATOM     15  OXT GLU A  1       -0.039   1.592   0.655  0.00  0.00    -0.479 OA
ATOM     16  HXT GLU A  1       -0.806   2.130   0.639  0.00  0.00    +0.295 HD
ENDBRANCH  13  15
ENDBRANCH  12  13
BRANCH  12  17
ATOM     17  CB  GLU A  1        0.690   4.333   1.621  0.00  0.00    +0.045 C 
BRANCH  17  18
ATOM     18  CG  GLU A  1        0.710   5.849   1.417  0.00  0.00    +0.123 C 
BRANCH  18  19
ATOM     19  CD  GLU A  1        0.103   6.526   2.619  0.00  0.00    +0.305 C 
ATOM     20  OE1 GLU A  1       -0.305   5.864   3.543  0.00  0.00    -0.251 OA
BRANCH  19  21
ATOM     21  OE2 GLU A  1        0.014   7.865   2.662  0.00  0.00    -0.481 OA
ATOM     22  HE2 GLU A  1        0.330   8.379   1.945  0.00  0.00    +0.295 HD
ENDBRANCH  19  21
ENDBRANCH  18  19
ENDBRANCH  17  18
ENDBRANCH  12  17
ENDBRANCH   9  12
ENDBRANCH   5   8
ENDBRANCH   1   2
BRANCH   1  23
ATOM     23  C   UNK A  0        9.108   6.818  -0.806  0.00  0.00    +0.096 C 
BRANCH  23  25
ATOM     24  C   UNK A  0       11.621   7.546  -1.204  0.00  0.00    +0.004 C 
ATOM     25  C   UNK A  0       10.506   7.223  -1.027  0.00  0.00    -0.105 C 
ENDBRANCH  23  25
ENDBRANCH   1  23
BRANCH   1  26
ATOM     26  C   UNK A  0        9.741   4.437  -0.394  0.00  0.00    +0.029 C 
BRANCH  26  27
ATOM     27  C   UNK A  0        9.659   3.034  -0.938  0.00  0.00    +0.068 C 
ATOM     28  C   UNK A  0       10.521   2.640  -1.962  0.00  0.00    +0.101 C 
ATOM     29  N   UNK A  0       10.472   1.419  -2.451  0.00  0.00    -0.298 NA
ATOM     30  H   UNK A  0       11.393   1.006  -2.310  0.00  0.00    +0.123 HD
ATOM     31  C   UNK A  0        9.579   0.551  -1.967  0.00  0.00    +0.144 C 
ATOM     32  C   UNK A  0        8.703   0.958  -0.930  0.00  0.00    +0.117 C 
ATOM     33  C   UNK A  0        7.739  -0.021  -0.425  0.00  0.00    +0.141 C 
ATOM     34  N   UNK A  0        7.746  -1.230  -0.970  0.00  0.00    -0.273 NA
ATOM     35  C   UNK A  0        8.598  -1.544  -1.941  0.00  0.00    +0.194 C 
ATOM     36  H   UNK A  0        7.094  -1.911  -0.638  0.00  0.00    +0.126 HD
ATOM     37  N   UNK A  0        9.531  -0.724  -2.487  0.00  0.00    -0.272 NA
ATOM     38  H   UNK A  0       10.446  -1.154  -2.350  0.00  0.00    +0.126 HD
ATOM     39  N   UNK A  0        8.772   2.195  -0.448  0.00  0.00    -0.304 NA
ATOM     40  H   UNK A  0        7.854   2.619  -0.587  0.00  0.00    +0.123 HD
BRANCH  35  41
ATOM     41  N   UNK A  0        8.551  -2.822  -2.465  0.00  0.00    -0.303 NA
ATOM     42  H   UNK A  0        7.908  -3.463  -2.123  0.00  0.00    +0.121 HD
ATOM     43  H   UNK A  0        9.161  -3.078  -3.174  0.00  0.00    +0.121 HD
ENDBRANCH  35  41
BRANCH  33  44
ATOM     44  N   UNK A  0        6.855   0.302   0.580  0.00  0.00    -0.314 NA
ATOM     45  H   UNK A  0        6.223  -0.360   0.901  0.00  0.00    +0.120 HD
ATOM     46  H   UNK A  0        6.864   1.192   0.967  0.00  0.00    +0.120 HD
ENDBRANCH  33  44
ENDBRANCH  26  27
ENDBRANCH   1  26
TORSDOF 15
