REMARK  Name = ZINC12408977
REMARK                            x       y       z     vdW  Elec       q    Type
REMARK                         _______ _______ _______ _____ _____    ______ ____
ROOT
ATOM      1  C   LIG    1       -0.069   5.317   0.031  0.00  0.00    +0.028 C 
ATOM      2  C   LIG    1       -1.045   5.986  -0.630  0.00  0.00    +0.080 C 
ATOM      3  C   LIG    1       -1.213   7.439  -0.844  0.00  0.00    +0.258 C 
ATOM      4  N   LIG    1       -2.274   7.816  -1.537  0.00  0.00    -0.243 N 
ATOM      5  H   LIG    1       -2.422   8.761  -1.700  0.00  0.00    +0.159 HD
ATOM      6  C   LIG    1       -3.156   6.918  -2.020  0.00  0.00    +0.283 C 
ATOM      7  O   LIG    1       -4.165   7.124  -2.667  0.00  0.00    -0.262 OA
ATOM      8  O   LIG    1       -0.415   8.246  -0.406  0.00  0.00    -0.269 OA
ATOM      9  S   LIG    1       -2.480   5.354  -1.488  0.00  0.00    -0.026 S 
ENDROOT
BRANCH   1  12
ATOM     10  C   LIG    1        0.737   1.792   1.026  0.00  0.00    +0.002 A 
ATOM     11  C   LIG    1        0.872   3.145   0.796  0.00  0.00    +0.008 A 
ATOM     12  C   LIG    1       -0.205   3.874   0.279  0.00  0.00    -0.022 A 
ATOM     13  C   LIG    1       -1.412   3.223   0.000  0.00  0.00    +0.028 A 
ATOM     14  C   LIG    1       -1.529   1.868   0.232  0.00  0.00    +0.042 A 
ATOM     15 CL   LIG    1       -3.023   1.056  -0.120  0.00  0.00    -0.084 Cl
ATOM     16  C   LIG    1       -0.460   1.155   0.748  0.00  0.00    +0.020 A 
ENDBRANCH   1  12
TORSDOF 1
