REMARK  Name = ZINC12504453
REMARK                            x       y       z     vdW  Elec       q    Type
REMARK                         _______ _______ _______ _____ _____    ______ ____
ROOT
ATOM      1  C   LIG    1        0.523   1.391  -2.294  0.00  0.00    +0.025 C 
ATOM      2  C   LIG    1        1.828   1.405  -1.471  0.00  0.00    +0.055 C 
ATOM      3  C   LIG    1        1.369   1.557  -0.003  0.00  0.00    +0.146 C 
ATOM      4  C   LIG    1        1.262   3.059   0.303  0.00  0.00    +0.192 C 
ATOM      5  C   LIG    1        0.488   3.741  -0.829  0.00  0.00    +0.177 C 
ATOM      6  C   LIG    1       -0.857   3.038  -1.032  0.00  0.00    +0.162 C 
ATOM      7  N   LIG    1       -0.012   1.005   0.008  0.00  0.00    -0.282 NA
ATOM      8  H   LIG    1        0.002  -0.004   0.002  0.00  0.00    +0.125 HD
ATOM      9  C   LIG    1       -0.606   1.537  -1.248  0.00  0.00    +0.088 C 
ENDROOT
BRANCH   3  10
ATOM     10  O   LIG    1        2.229   0.880   0.917  0.00  0.00    -0.372 OA
ATOM     11  H   LIG    1        2.317  -0.068   0.749  0.00  0.00    +0.212 HD
ENDBRANCH   3  10
BRANCH   4  12
ATOM     12  O   LIG    1        2.571   3.624   0.395  0.00  0.00    -0.385 OA
ATOM     13  H   LIG    1        2.578   4.572   0.587  0.00  0.00    +0.210 HD
ENDBRANCH   4  12
BRANCH   5  14
ATOM     14  O   LIG    1        0.262   5.111  -0.491  0.00  0.00    -0.386 OA
ATOM     15  H   LIG    1       -0.225   5.607  -1.165  0.00  0.00    +0.210 HD
ENDBRANCH   5  14
BRANCH   6  16
ATOM     16  O   LIG    1       -1.513   3.583  -2.179  0.00  0.00    -0.388 OA
ATOM     17  H   LIG    1       -1.695   4.530  -2.115  0.00  0.00    +0.210 HD
ENDBRANCH   6  16
TORSDOF 4
