REMARK  Name = ZINC09329507
REMARK                            x       y       z     vdW  Elec       q    Type
REMARK                         _______ _______ _______ _____ _____    ______ ____
ROOT
ATOM      1  C   LIG    1       -1.255  -0.759   0.010  0.00  0.00    +0.026 C 
ATOM      2  C   LIG    1       -1.349  -1.949  -0.680  0.00  0.00    +0.101 C 
ATOM      3  C   LIG    1       -2.628  -2.679  -0.791  0.00  0.00    +0.256 C 
ATOM      4  N   LIG    1       -2.633  -3.837  -1.485  0.00  0.00    -0.238 N 
ATOM      5  H   LIG    1       -3.460  -4.336  -1.573  0.00  0.00    +0.159 HD
ATOM      6  C   LIG    1       -1.501  -4.316  -2.063  0.00  0.00    +0.278 C 
ATOM      7  N   LIG    1       -0.340  -3.715  -2.000  0.00  0.00    -0.127 NA
ATOM      8  O   LIG    1       -3.643  -2.251  -0.275  0.00  0.00    -0.270 OA
ATOM      9  C   LIG    1       -0.175  -2.551  -1.350  0.00  0.00    +0.276 C 
ATOM     10  O   LIG    1        0.915  -2.007  -1.310  0.00  0.00    -0.268 OA
ENDROOT
BRANCH   1  16
ATOM     11  C   LIG    1        0.285   1.192   0.067  0.00  0.00    +0.010 A 
ATOM     12  C   LIG    1        1.525   1.733   0.330  0.00  0.00    +0.033 A 
ATOM     13  C   LIG    1        2.547   0.932   0.809  0.00  0.00    +0.122 A 
ATOM     14  C   LIG    1        2.335  -0.419   1.029  0.00  0.00    +0.033 A 
ATOM     15  C   LIG    1        1.102  -0.977   0.772  0.00  0.00    +0.010 A 
ATOM     16  C   LIG    1        0.061  -0.174   0.286  0.00  0.00    -0.024 A 
BRANCH  13  17
ATOM     17  N   LIG    1        3.876   1.522   1.088  0.00  0.00    +0.006 N 
ATOM     18  O   LIG    1        4.066   2.701   0.897  0.00  0.00    -0.130 OA
BRANCH  17  19
ATOM     19  O   LIG    1        4.771   0.826   1.507  0.00  0.00    -0.396 OA
ATOM     20  H   LIG    1        4.624  -0.088   1.655  0.00  0.00    +0.329 HD
ENDBRANCH  17  19
ENDBRANCH  13  17
ENDBRANCH   1  16
BRANCH   6  21
ATOM     21  O   LIG    1       -1.578  -5.478  -2.741  0.00  0.00    -0.483 OA
ATOM     22  H   LIG    1       -2.396  -5.931  -2.804  0.00  0.00    +0.295 HD
ENDBRANCH   6  21
TORSDOF 4
