REMARK  Name = ZINC11919966
REMARK                            x       y       z     vdW  Elec       q    Type
REMARK                         _______ _______ _______ _____ _____    ______ ____
ROOT
ATOM      1  C   LIG    1        0.002  -0.004   0.002  0.00  0.00    +0.128 A 
ATOM      2  C   LIG    1        1.193  -0.672  -0.019  0.00  0.00    +0.048 A 
ATOM      3  C   LIG    1        1.235  -2.064  -0.020  0.00  0.00    +0.027 A 
ATOM      4  C   LIG    1        0.073  -2.804  -0.013  0.00  0.00    +0.033 A 
ATOM      5  C   LIG    1       -1.173  -2.143   0.002  0.00  0.00    +0.006 A 
ATOM      6  C   LIG    1       -2.379  -2.862   0.009  0.00  0.00    +0.010 A 
ATOM      7  C   LIG    1       -3.563  -2.191   0.024  0.00  0.00    +0.001 A 
ATOM      8  C   LIG    1       -3.598  -0.798   0.031  0.00  0.00    +0.001 A 
ATOM      9  C   LIG    1       -2.448  -0.068   0.025  0.00  0.00    +0.012 A 
ATOM     10  C   LIG    1       -1.207  -0.727   0.010  0.00  0.00    +0.026 A 
ENDROOT
BRANCH   4  11
ATOM     11  N   LIG    1        0.129  -4.200  -0.021  0.00  0.00    -0.357 N 
ATOM     12  H   LIG    1        0.987  -4.651  -0.032  0.00  0.00    +0.142 HD
ATOM     13  H   LIG    1       -0.691  -4.718  -0.017  0.00  0.00    +0.142 HD
ENDBRANCH   4  11
BRANCH   1  15
ATOM     14  C   LIG    1        1.248   2.021   0.001  0.00  0.00    +0.277 C 
ATOM     15  O   LIG    1       -0.016   1.355   0.009  0.00  0.00    -0.495 OA
ENDBRANCH   1  15
TORSDOF 2
