REMARK  Name = ZINC12339629
REMARK                            x       y       z     vdW  Elec       q    Type
REMARK                         _______ _______ _______ _____ _____    ______ ____
ROOT
ATOM      1  C   LIG    1        0.605  -0.606  -1.054  0.00  0.00    +0.127 A 
ATOM      2  C   LIG    1        1.171   0.169  -2.059  0.00  0.00    +0.092 A 
ATOM      3  C   LIG    1        1.788  -0.435  -3.139  0.00  0.00    +0.134 A 
ATOM      4  C   LIG    1        1.841  -1.840  -3.218  0.00  0.00    +0.059 A 
ATOM      5  C   LIG    1        1.264  -2.616  -2.194  0.00  0.00    +0.134 A 
ATOM      6  C   LIG    1        0.657  -1.993  -1.120  0.00  0.00    +0.092 A 
ENDROOT
BRANCH   4   7
ATOM      7  C   LIG    1        2.470  -2.469  -4.321  0.00  0.00    +0.029 C 
ATOM      8  C   LIG    1        3.407  -3.458  -4.108  0.00  0.00    +0.047 C 
ATOM      9  C   LIG    1        4.165  -4.215  -5.129  0.00  0.00    +0.008 A 
ATOM     10  C   LIG    1        4.183  -4.185  -6.520  0.00  0.00    +0.010 A 
ATOM     11  C   LIG    1        5.020  -5.037  -7.212  0.00  0.00    +0.001 A 
ATOM     12  C   LIG    1        5.838  -5.918  -6.523  0.00  0.00    +0.002 A 
ATOM     13  C   LIG    1        5.827  -5.955  -5.144  0.00  0.00    +0.024 A 
ATOM     14  C   LIG    1        4.991  -5.104  -4.429  0.00  0.00    +0.042 A 
ATOM     15  N   LIG    1        4.787  -4.939  -3.065  0.00  0.00    -0.281 N 
ATOM     16  H   LIG    1        5.247  -5.445  -2.378  0.00  0.00    +0.155 HD
ATOM     17  C   LIG    1        3.874  -3.984  -2.818  0.00  0.00    +0.249 C 
ATOM     18  O   LIG    1        3.498  -3.620  -1.718  0.00  0.00    -0.270 OA
ENDBRANCH   4   7
BRANCH   1  20
ATOM     19  C   LIG    1       -0.017   1.425   0.010  0.00  0.00    +0.277 C 
ATOM     20  O   LIG    1        0.002  -0.004   0.002  0.00  0.00    -0.495 OA
ENDBRANCH   1  20
BRANCH   3  21
ATOM     21  O   LIG    1        2.339   0.324  -4.119  0.00  0.00    -0.494 OA
ATOM     22  C   LIG    1        2.247   1.742  -3.971  0.00  0.00    +0.277 C 
ENDBRANCH   3  21
BRANCH   5  23
ATOM     23  O   LIG    1        1.308  -3.970  -2.259  0.00  0.00    -0.494 OA
ATOM     24  C   LIG    1        0.703  -4.692  -1.185  0.00  0.00    +0.277 C 
ENDBRANCH   5  23
TORSDOF 4
