REMARK  Name = ZINC09329507
REMARK                            x       y       z     vdW  Elec       q    Type
REMARK                         _______ _______ _______ _____ _____    ______ ____
ROOT
ATOM      1  C   LIG    1       -1.255  -0.759   0.010  0.00  0.00    +0.026 C 
ATOM      2  C   LIG    1       -2.408  -0.183  -0.480  0.00  0.00    +0.101 C 
ATOM      3  C   LIG    1       -3.717  -0.867  -0.384  0.00  0.00    +0.276 C 
ATOM      4  O   LIG    1       -3.812  -1.966   0.135  0.00  0.00    -0.268 OA
ATOM      5  N   LIG    1       -4.798  -0.246  -0.882  0.00  0.00    -0.127 NA
ATOM      6  C   LIG    1       -4.724   0.935  -1.444  0.00  0.00    +0.278 C 
ATOM      7  N   LIG    1       -3.569   1.637  -1.578  0.00  0.00    -0.238 N 
ATOM      8  H   LIG    1       -3.587   2.507  -2.006  0.00  0.00    +0.159 HD
ATOM      9  C   LIG    1       -2.396   1.148  -1.120  0.00  0.00    +0.256 C 
ATOM     10  O   LIG    1       -1.363   1.781  -1.236  0.00  0.00    -0.270 OA
ENDROOT
BRANCH   1  16
ATOM     11  C   LIG    1       -0.057   1.327   0.639  0.00  0.00    +0.010 A 
ATOM     12  C   LIG    1        1.105   2.062   0.724  0.00  0.00    +0.033 A 
ATOM     13  C   LIG    1        2.303   1.525   0.284  0.00  0.00    +0.122 A 
ATOM     14  C   LIG    1        2.346   0.246  -0.245  0.00  0.00    +0.033 A 
ATOM     15  C   LIG    1        1.193  -0.504  -0.338  0.00  0.00    +0.010 A 
ATOM     16  C   LIG    1       -0.024   0.032   0.105  0.00  0.00    -0.024 A 
BRANCH  13  17
ATOM     17  N   LIG    1        3.546   2.323   0.379  0.00  0.00    +0.006 N 
ATOM     18  O   LIG    1        3.514   3.441   0.840  0.00  0.00    -0.130 OA
BRANCH  17  19
ATOM     19  O   LIG    1        4.594   1.858  -0.004  0.00  0.00    -0.396 OA
ATOM     20  H   LIG    1        4.620   0.992  -0.362  0.00  0.00    +0.329 HD
ENDBRANCH  17  19
ENDBRANCH  13  17
ENDBRANCH   1  16
BRANCH   6  21
ATOM     21  O   LIG    1       -5.859   1.485  -1.918  0.00  0.00    -0.483 OA
ATOM     22  H   LIG    1       -6.671   1.024  -1.840  0.00  0.00    +0.295 HD
ENDBRANCH   6  21
TORSDOF 4
