REMARK  Name = ZINC12358521
REMARK                            x       y       z     vdW  Elec       q    Type
REMARK                         _______ _______ _______ _____ _____    ______ ____
ROOT
ATOM      1  C   LIG    1        1.022   1.161   4.659  0.00  0.00    +0.044 C 
ATOM      2  C   LIG    1        2.446   1.724   4.827  0.00  0.00    +0.122 C 
ATOM      3  C   LIG    1        2.687   1.741   6.349  0.00  0.00    +0.036 C 
ATOM      4  C   LIG    1        1.306   1.933   6.993  0.00  0.00    -0.001 C 
ATOM      5  C   LIG    1        1.131   0.924   8.140  0.00  0.00    +0.034 C 
ATOM      6  C   LIG    1       -0.248   0.321   7.963  0.00  0.00    -0.073 C 
ATOM      7  C   LIG    1       -1.042  -0.132   8.901  0.00  0.00    -0.028 C 
ATOM      8  C   LIG    1       -0.514   0.351   6.471  0.00  0.00    +0.035 C 
ATOM      9  C   LIG    1        0.254   1.566   5.926  0.00  0.00    +0.006 C 
ENDROOT
BRANCH   1  11
ATOM     10  C   LIG    1       -0.074   0.981   2.485  0.00  0.00    -0.000 C 
ATOM     11  C   LIG    1        0.367   1.760   3.441  0.00  0.00    -0.022 C 
BRANCH  10  12
ATOM     12  C   LIG    1       -0.729   1.579   1.267  0.00  0.00    +0.137 C 
BRANCH  12  13
ATOM     13  O   LIG    1       -0.647   3.004   1.334  0.00  0.00    -0.388 OA
ATOM     14  H   LIG    1        0.258   3.345   1.368  0.00  0.00    +0.210 HD
ENDBRANCH  12  13
BRANCH  12  15
ATOM     15  C   LIG    1       -0.013   1.086   0.008  0.00  0.00    +0.035 C 
BRANCH  15  16
ATOM     16  C   LIG    1       -0.753   1.593  -1.232  0.00  0.00    +0.003 C 
BRANCH  16  17
ATOM     17  C   LIG    1       -0.037   1.099  -2.490  0.00  0.00    -0.000 C 
BRANCH  17  19
ATOM     18  C   LIG    1       -0.060   1.113  -4.989  0.00  0.00    +0.004 C 
ATOM     19  C   LIG    1       -0.777   1.606  -3.730  0.00  0.00    -0.003 C 
ENDBRANCH  17  19
ENDBRANCH  16  17
ENDBRANCH  15  16
ENDBRANCH  12  15
ENDBRANCH  10  12
ENDBRANCH   1  11
BRANCH   2  20
ATOM     20  O   LIG    1        3.396   0.874   4.181  0.00  0.00    -0.391 OA
ATOM     21  H   LIG    1        4.310   1.179   4.254  0.00  0.00    +0.210 HD
ENDBRANCH   2  20
BRANCH   7  22
ATOM     22  C   LIG    1       -2.389  -0.702   8.537  0.00  0.00    +0.027 C 
BRANCH  22  23
ATOM     23  C   LIG    1       -2.514  -2.117   9.106  0.00  0.00    +0.015 C 
BRANCH  23  24
ATOM     24  C   LIG    1       -3.882  -2.696   8.737  0.00  0.00    +0.121 C 
BRANCH  24  25
ATOM     25  C   LIG    1       -4.005  -4.090   9.296  0.00  0.00    +0.305 C 
ATOM     26  O   LIG    1       -3.092  -4.571   9.925  0.00  0.00    -0.251 OA
BRANCH  25  27
ATOM     27  O   LIG    1       -5.128  -4.797   9.095  0.00  0.00    -0.481 OA
ATOM     28  H   LIG    1       -5.835  -4.424   8.607  0.00  0.00    +0.295 HD
ENDBRANCH  25  27
ENDBRANCH  24  25
ENDBRANCH  23  24
ENDBRANCH  22  23
ENDBRANCH   7  22
TORSDOF 13
