REMARK  Name = ZINC12959493
REMARK                            x       y       z     vdW  Elec       q    Type
REMARK                         _______ _______ _______ _____ _____    ______ ____
ROOT
ATOM      1  C   LIG    1        2.459  -2.624   0.033  0.00  0.00    +0.130 A 
ATOM      2  C   LIG    1        1.229  -1.983  -0.164  0.00  0.00    +0.146 A 
ATOM      3  N   LIG    1        0.120  -2.698  -0.121  0.00  0.00    -0.221 NA
ATOM      4  C   LIG    1        0.153  -4.005   0.104  0.00  0.00    +0.213 A 
ATOM      5  N   LIG    1        1.289  -4.657   0.297  0.00  0.00    -0.212 NA
ATOM      6  C   LIG    1        2.454  -4.018   0.265  0.00  0.00    +0.105 A 
ENDROOT
BRANCH   6   7
ATOM      7  C   LIG    1        3.722  -4.752   0.475  0.00  0.00    +0.021 A 
ATOM      8  C   LIG    1        4.793  -4.564  -0.400  0.00  0.00    +0.013 A 
ATOM      9  C   LIG    1        5.973  -5.250  -0.200  0.00  0.00    +0.021 A 
ATOM     10  C   LIG    1        6.096  -6.125   0.867  0.00  0.00    +0.042 A 
ATOM     11 CL   LIG    1        7.584  -6.986   1.111  0.00  0.00    -0.083 Cl
ATOM     12  C   LIG    1        5.038  -6.317   1.738  0.00  0.00    +0.040 A 
ATOM     13  C   LIG    1        3.854  -5.632   1.551  0.00  0.00    +0.052 A 
ATOM     14 CL   LIG    1        2.529  -5.869   2.648  0.00  0.00    -0.083 Cl
ENDBRANCH   6   7
BRANCH   4  15
ATOM     15  N   LIG    1       -1.036  -4.708   0.140  0.00  0.00    -0.327 N 
ATOM     16  H   LIG    1       -1.030  -5.664   0.303  0.00  0.00    +0.145 HD
ATOM     17  H   LIG    1       -1.877  -4.245   0.001  0.00  0.00    +0.145 HD
ENDBRANCH   4  15
BRANCH   1  19
ATOM     18  N   LIG    1        3.653  -0.692   0.376  0.00  0.00    -0.149 NA
ATOM     19  N   LIG    1        3.627  -1.925  -0.003  0.00  0.00    -0.146 NA
BRANCH  18  23
ATOM     20  C   LIG    1        0.786   0.725   3.000  0.00  0.00    +0.000 A 
ATOM     21  C   LIG    1        0.973  -0.638   2.855  0.00  0.00    +0.002 A 
ATOM     22  C   LIG    1        1.926  -1.118   1.982  0.00  0.00    +0.029 A 
ATOM     23  C   LIG    1        2.705  -0.224   1.243  0.00  0.00    +0.086 A 
ATOM     24  C   LIG    1        2.511   1.152   1.395  0.00  0.00    +0.029 A 
ATOM     25  C   LIG    1        1.554   1.617   2.272  0.00  0.00    +0.002 A 
ENDBRANCH  18  23
ENDBRANCH   1  19
TORSDOF 4
