REMARK  Name = ZINC09224016
REMARK                            x       y       z     vdW  Elec       q    Type
REMARK                         _______ _______ _______ _____ _____    ______ ____
ROOT
ATOM      1  C   LIG    1       -0.018   1.503   0.010  0.00  0.00    +0.064 C 
ATOM      2  C   LIG    1        0.002  -0.004   0.002  0.00  0.00    +0.024 A 
ATOM      3  C   LIG    1       -1.191  -0.692   0.004  0.00  0.00    +0.003 A 
ATOM      4  C   LIG    1       -1.199  -2.098  -0.003  0.00  0.00    +0.034 A 
ATOM      5  C   LIG    1        0.016  -2.774  -0.013  0.00  0.00    +0.116 A 
ATOM      6  C   LIG    1        1.252  -1.990  -0.015  0.00  0.00    +0.266 A 
ATOM      7  O   LIG    1        2.334  -2.551  -0.023  0.00  0.00    -0.267 OA
ATOM      8  N   LIG    1        1.187  -0.645  -0.013  0.00  0.00    -0.325 N 
ATOM      9  H   LIG    1        2.007  -0.128  -0.018  0.00  0.00    +0.169 HD
ENDROOT
BRANCH   3  10
ATOM     10  C   LIG    1       -2.473   0.054   0.014  0.00  0.00    -0.013 A 
ATOM     11  C   LIG    1       -2.831   0.852   1.105  0.00  0.00    +0.028 A 
ATOM     12  C   LIG    1       -4.032   1.529   1.073  0.00  0.00    +0.111 A 
ATOM     13  N   LIG    1       -4.838   1.431   0.033  0.00  0.00    -0.263 NA
ATOM     14  C   LIG    1       -4.537   0.689  -1.016  0.00  0.00    +0.111 A 
ATOM     15  C   LIG    1       -3.354  -0.017  -1.069  0.00  0.00    +0.028 A 
ENDBRANCH   3  10
BRANCH   5  16
ATOM     16  C   LIG    1        0.057  -4.206  -0.020  0.00  0.00    +0.105 C 
ATOM     17  N   LIG    1        0.089  -5.341  -0.025  0.00  0.00    -0.191 NA
ENDBRANCH   5  16
TORSDOF 2
