REMARK  Name = ZINC11847620
REMARK                            x       y       z     vdW  Elec       q    Type
REMARK                         _______ _______ _______ _____ _____    ______ ____
ROOT
ATOM      1  N   LIG    1        1.133   1.932   0.002  0.00  0.00    -0.267 N 
ATOM      2  C   LIG    1        1.099   3.290   0.061  0.00  0.00    +0.207 A 
ATOM      3  N   LIG    1       -0.004   3.976   0.079  0.00  0.00    -0.236 NA
ATOM      4  C   LIG    1       -1.218   3.371   0.038  0.00  0.00    +0.081 A 
ATOM      5  C   LIG    1       -2.402   4.106   0.057  0.00  0.00    +0.074 A 
ATOM      6  C   LIG    1       -3.616   3.444   0.013  0.00  0.00    +0.119 A 
ATOM      7  C   LIG    1       -3.665   2.051  -0.051  0.00  0.00    +0.046 A 
ATOM      8  C   LIG    1       -2.515   1.314  -0.069  0.00  0.00    +0.019 A 
ATOM      9  C   LIG    1       -1.279   1.960  -0.031  0.00  0.00    +0.065 A 
ATOM     10  C   LIG    1       -0.014   1.215  -0.043  0.00  0.00    +0.266 A 
ATOM     11  O   LIG    1        0.002  -0.002  -0.097  0.00  0.00    -0.267 OA
ENDROOT
BRANCH   1  17
ATOM     12  C   LIG    1        2.751   0.490   1.071  0.00  0.00    +0.030 A 
ATOM     13  C   LIG    1        3.964  -0.168   1.054  0.00  0.00    +0.047 A 
ATOM     14  C   LIG    1        4.805  -0.043  -0.043  0.00  0.00    +0.117 A 
ATOM     15  C   LIG    1        4.425   0.738  -1.124  0.00  0.00    +0.047 A 
ATOM     16  C   LIG    1        3.209   1.392  -1.110  0.00  0.00    +0.030 A 
ATOM     17  C   LIG    1        2.367   1.268  -0.013  0.00  0.00    +0.051 A 
BRANCH  14  18
ATOM     18  O   LIG    1        6.003  -0.687  -0.057  0.00  0.00    -0.507 OA
ATOM     19  H   LIG    1        6.732  -0.170   0.312  0.00  0.00    +0.292 HD
ENDBRANCH  14  18
ENDBRANCH   1  17
BRANCH   6  20
ATOM     20  O   LIG    1       -4.771   4.156   0.031  0.00  0.00    -0.507 OA
ATOM     21  H   LIG    1       -5.095   4.402  -0.847  0.00  0.00    +0.292 HD
ENDBRANCH   6  20
TORSDOF 3
