REMARK  Name = ZINC12503116
REMARK                            x       y       z     vdW  Elec       q    Type
REMARK                         _______ _______ _______ _____ _____    ______ ____
ROOT
ATOM      1  C   LIG    1       -0.872   3.091  -0.696  0.00  0.00    +0.157 C 
ATOM      2  C   LIG    1       -0.971   1.614  -0.306  0.00  0.00    +0.195 C 
ATOM      3  C   LIG    1        0.240   0.878  -0.812  0.00  0.00    +0.068 C 
ATOM      4  C   LIG    1        1.345   1.506  -1.187  0.00  0.00    +0.204 C 
ATOM      5  O   LIG    1        1.477   2.854  -1.147  0.00  0.00    -0.477 OA
ATOM      6  C   LIG    1        0.539   3.589  -0.356  0.00  0.00    +0.228 C 
ENDROOT
BRANCH   1   9
ATOM      7  C   LIG    1       -4.141   4.786   0.350  0.00  0.00    +0.109 C 
ATOM      8  C   LIG    1       -3.122   3.985  -0.418  0.00  0.00    +0.210 C 
ATOM      9  N   LIG    1       -1.864   3.869   0.051  0.00  0.00    -0.305 N 
ATOM     10  H   LIG    1       -1.615   4.300   0.883  0.00  0.00    +0.149 HD
ATOM     11  O   LIG    1       -3.433   3.446  -1.458  0.00  0.00    -0.276 OA
ENDBRANCH   1   9
BRANCH   2  12
ATOM     12  N   LIG    1       -2.187   1.023  -0.963  0.00  0.00    -0.270 N 
ATOM     13  H   LIG    1       -2.233   0.952  -1.987  0.00  0.00    +0.258 HD
ATOM     14  C   LIG    1       -3.209   0.591  -0.215  0.00  0.00    +0.341 C 
BRANCH  14  15
ATOM     15  N   LIG    1       -4.226  -0.074  -0.859  0.00  0.00    -0.292 N 
ATOM     16  H   LIG    1       -4.988  -0.399  -0.354  0.00  0.00    +0.255 HD
ATOM     17  H   LIG    1       -4.181  -0.218  -1.817  0.00  0.00    +0.255 HD
ENDBRANCH  14  15
BRANCH  14  18
ATOM     18  N   LIG    1       -3.273   0.795   1.143  0.00  0.00    -0.292 N 
ATOM     19  H   LIG    1       -3.947   0.340   1.671  0.00  0.00    +0.255 HD
ATOM     20  H   LIG    1       -2.643   1.395   1.573  0.00  0.00    +0.255 HD
ENDBRANCH  14  18
ENDBRANCH   2  12
BRANCH   4  21
ATOM     21  C   LIG    1        2.481   0.701  -1.669  0.00  0.00    +0.372 C 
ATOM     22  O   LIG    1        2.392  -0.510  -1.716  0.00  0.00    -0.242 OA
BRANCH  21  23
ATOM     23  O   LIG    1        3.620   1.309  -2.057  0.00  0.00    -0.475 OA
ATOM     24  H   LIG    1        3.689   2.242  -2.021  0.00  0.00    +0.296 HD
ENDBRANCH  21  23
ENDBRANCH   4  21
BRANCH   6  25
ATOM     25  C   LIG    1        0.651   5.080  -0.677  0.00  0.00    +0.187 C 
BRANCH  25  26
ATOM     26  O   LIG    1        0.258   5.307  -2.033  0.00  0.00    -0.385 OA
ATOM     27  H   LIG    1        0.796   4.834  -2.682  0.00  0.00    +0.210 HD
ENDBRANCH  25  26
BRANCH  25  28
ATOM     28  C   LIG    1        2.098   5.537  -0.483  0.00  0.00    +0.172 C 
BRANCH  28  29
ATOM     29  O   LIG    1        2.491   5.310   0.873  0.00  0.00    -0.387 OA
ATOM     30  H   LIG    1        1.953   5.783   1.522  0.00  0.00    +0.210 HD
ENDBRANCH  28  29
BRANCH  28  31
ATOM     31  C   LIG    1        2.210   7.029  -0.803  0.00  0.00    +0.189 C 
BRANCH  31  32
ATOM     32  O   LIG    1        3.580   7.429  -0.735  0.00  0.00    -0.392 OA
ATOM     33  H   LIG    1        3.726   8.366  -0.927  0.00  0.00    +0.210 HD
ENDBRANCH  31  32
ENDBRANCH  28  31
ENDBRANCH  25  28
ENDBRANCH   6  25
TORSDOF 12
