REMARK  Name = ZINC12407294
REMARK                            x       y       z     vdW  Elec       q    Type
REMARK                         _______ _______ _______ _____ _____    ______ ____
ROOT
ATOM      1  C   LIG    1        2.407   4.210   0.001  0.00  0.00    +0.028 C 
ATOM      2  C   LIG    1        2.485   5.387  -0.667  0.00  0.00    +0.080 C 
ATOM      3  C   LIG    1        3.651   6.265  -0.898  0.00  0.00    +0.258 C 
ATOM      4  N   LIG    1        3.433   7.368  -1.594  0.00  0.00    -0.243 N 
ATOM      5  H   LIG    1        4.172   7.972  -1.768  0.00  0.00    +0.159 HD
ATOM      6  C   LIG    1        2.208   7.673  -2.067  0.00  0.00    +0.283 C 
ATOM      7  O   LIG    1        1.868   8.644  -2.715  0.00  0.00    -0.262 OA
ATOM      8  O   LIG    1        4.756   5.987  -0.470  0.00  0.00    -0.269 OA
ATOM      9  S   LIG    1        1.205   6.301  -1.517  0.00  0.00    -0.026 S 
ENDROOT
BRANCH   1  12
ATOM     10  C   LIG    1       -1.304   3.732   0.245  0.00  0.00    +0.003 A 
ATOM     11  C   LIG    1       -0.078   4.311  -0.005  0.00  0.00    +0.008 A 
ATOM     12  C   LIG    1        1.096   3.600   0.266  0.00  0.00    -0.021 A 
ATOM     13  C   LIG    1        1.016   2.305   0.790  0.00  0.00    +0.046 A 
ATOM     14  C   LIG    1       -0.219   1.739   1.036  0.00  0.00    +0.124 A 
ATOM     15  F   LIG    1       -0.299   0.489   1.542  0.00  0.00    -0.205 F 
ATOM     16  C   LIG    1       -1.377   2.450   0.758  0.00  0.00    +0.038 A 
ENDBRANCH   1  12
TORSDOF 1
