REMARK  Name = ZINC11601499
REMARK                            x       y       z     vdW  Elec       q    Type
REMARK                         _______ _______ _______ _____ _____    ______ ____
ROOT
ATOM      1  C   LIG    1       -2.943   0.705   1.462  0.00  0.00    -0.066 C 
ENDROOT
BRANCH   1   2
ATOM      2  N   LIG    1       -1.941  -0.162   2.107  0.00  0.00    +0.380 N 
ATOM      3  H   LIG    1       -1.022   0.295   2.064  0.00  0.00    -0.090 HD
ATOM      4  H   LIG    1       -1.890  -1.057   1.623  0.00  0.00    -0.090 HD
ATOM      5  H   LIG    1       -2.189  -0.317   3.083  0.00  0.00    -0.090 HD
ENDBRANCH   1   2
BRANCH   1   6
ATOM      6  C   LIG    1       -2.513   0.975   0.019  0.00  0.00    +0.019 C 
BRANCH   6  15
ATOM      7  C   LIG    1       -0.013   1.076   0.008  0.00  0.00    +0.007 A 
ATOM      8  C   LIG    1        1.176   1.782   0.000  0.00  0.00    +0.050 A 
ATOM      9  C   LIG    1        1.160   3.167   0.007  0.00  0.00    +0.166 A 
ATOM     10  C   LIG    1       -0.057   3.845   0.022  0.00  0.00    +0.166 A 
ATOM     11  O   LIG    1        0.192   5.188   0.027  0.00  0.00    -0.453 OA
ATOM     12  C   LIG    1        1.561   5.326  -0.398  0.00  0.00    +0.466 C 
ATOM     13  C   LIG    1       -1.244   3.131   0.030  0.00  0.00    +0.053 A 
ATOM     14  O   LIG    1        2.171   4.084   0.003  0.00  0.00    -0.453 OA
ATOM     15  C   LIG    1       -1.220   1.749   0.017  0.00  0.00    -0.045 A 
ENDBRANCH   6  15
ENDBRANCH   1   6
BRANCH   1  16
ATOM     16  C   LIG    1       -4.316   0.029   1.467  0.00  0.00    +0.019 C 
BRANCH  16  17
ATOM     17  C   LIG    1       -4.795  -0.126   2.887  0.00  0.00    -0.045 A 
ATOM     18  C   LIG    1       -4.490  -1.272   3.597  0.00  0.00    +0.007 A 
ATOM     19  C   LIG    1       -4.923  -1.416   4.902  0.00  0.00    +0.050 A 
ATOM     20  C   LIG    1       -5.673  -0.416   5.498  0.00  0.00    +0.166 A 
ATOM     21  C   LIG    1       -5.985   0.737   4.782  0.00  0.00    +0.166 A 
ATOM     22  O   LIG    1       -6.724   1.561   5.580  0.00  0.00    -0.453 OA
ATOM     23  C   LIG    1       -7.207   0.727   6.651  0.00  0.00    +0.466 C 
ATOM     24  O   LIG    1       -6.216  -0.314   6.746  0.00  0.00    -0.453 OA
ATOM     25  C   LIG    1       -5.543   0.877   3.476  0.00  0.00    +0.053 A 
ENDBRANCH  16  17
ENDBRANCH   1  16
TORSDOF 5
