REMARK  Name = ZINC12503151
REMARK                            x       y       z     vdW  Elec       q    Type
REMARK                         _______ _______ _______ _____ _____    ______ ____
ROOT
ATOM      1  N   LIG    1        0.002  -0.662  -1.150  0.00  0.00    -0.159 NA
ATOM      2  C   LIG    1       -0.080  -1.995  -1.158  0.00  0.00    +0.183 A 
ATOM      3  N   LIG    1        0.003  -2.839  -2.212  0.00  0.00    -0.267 N 
ATOM      4  C   LIG    1        0.209  -2.327  -3.569  0.00  0.00    +0.172 C 
ATOM      5  N   LIG    1       -0.112  -4.192  -1.977  0.00  0.00    -0.273 N 
ATOM      6  H   LIG    1       -0.059  -4.833  -2.704  0.00  0.00    +0.189 HD
ATOM      7  C   LIG    1       -0.294  -4.584  -0.749  0.00  0.00    +0.228 A 
ATOM      8  S   LIG    1       -0.305  -3.039   0.141  0.00  0.00    -0.013 S 
ENDROOT
BRANCH   1  10
ATOM      9  C   LIG    1       -1.135   0.924   0.341  0.00  0.00    +0.106 C 
ATOM     10  C   LIG    1        0.003  -0.004   0.002  0.00  0.00    +0.175 C 
ATOM     11  O   LIG    1        0.922  -0.151   0.785  0.00  0.00    -0.497 OA
ATOM     12  H   LIG    1        1.565  -0.822   0.516  0.00  0.00    +0.293 HD
ENDBRANCH   1  10
BRANCH   7  13
ATOM     13  S   LIG    1       -0.477  -6.221  -0.124  0.00  0.00    +0.079 S 
ATOM     14  O   LIG    1       -0.479  -7.088  -1.251  0.00  0.00    -0.151 OA
ATOM     15  O   LIG    1       -1.548  -6.183   0.809  0.00  0.00    -0.151 OA
BRANCH  13  16
ATOM     16  N   LIG    1        0.892  -6.572   0.740  0.00  0.00    -0.202 NA
ATOM     17  H   LIG    1        0.964  -5.869   1.475  0.00  0.00    +0.144 HD
ATOM     18  H   LIG    1        0.987  -7.436   1.169  0.00  0.00    +0.144 HD
ENDBRANCH  13  16
ENDBRANCH   7  13
TORSDOF 3
