REMARK  Name = ZINC12495394
REMARK                            x       y       z     vdW  Elec       q    Type
REMARK                         _______ _______ _______ _____ _____    ______ ____
ROOT
ATOM      1  N   LIG    1        3.622  -0.661  -0.036  0.00  0.00    -0.294 N 
ATOM      2  H   LIG    1        4.454  -0.167  -0.105  0.00  0.00    +0.154 HD
ENDROOT
BRANCH   1   6
ATOM      3  C   LIG    1       -0.018   1.376  -0.034  0.00  0.00    +0.036 A 
ATOM      4  C   LIG    1        1.013   1.811   0.778  0.00  0.00    +0.049 A 
ATOM      5  C   LIG    1        2.224   1.139   0.781  0.00  0.00    +0.138 A 
ATOM      6  C   LIG    1        2.399   0.023  -0.035  0.00  0.00    +0.077 A 
ATOM      7  C   LIG    1        1.361  -0.408  -0.847  0.00  0.00    +0.059 A 
ATOM      8  C   LIG    1        0.155   0.269  -0.844  0.00  0.00    +0.124 A 
BRANCH   5   9
ATOM      9  O   LIG    1        3.239   1.566   1.579  0.00  0.00    -0.505 OA
ATOM     10  H   LIG    1        3.241   1.168   2.460  0.00  0.00    +0.292 HD
ENDBRANCH   5   9
BRANCH   8  11
ATOM     11  N   LIG    1       -0.953  -0.192  -1.711  0.00  0.00    +0.006 N 
ATOM     12  O   LIG    1       -2.007   0.399  -1.710  0.00  0.00    -0.130 OA
BRANCH  11  13
ATOM     13  O   LIG    1       -0.802  -1.159  -2.420  0.00  0.00    -0.396 OA
ATOM     14  H   LIG    1        0.015  -1.617  -2.421  0.00  0.00    +0.329 HD
ENDBRANCH  11  13
ENDBRANCH   8  11
ENDBRANCH   1   6
BRANCH   1  15
ATOM     15  C   LIG    1        3.642  -2.005   0.058  0.00  0.00    +0.141 C 
ATOM     16  S   LIG    1        2.173  -2.885   0.068  0.00  0.00    -0.018 S 
BRANCH  15  17
ATOM     17  N   LIG    1        4.818  -2.657   0.144  0.00  0.00    -0.264 N 
ATOM     18  H   LIG    1        5.651  -2.159   0.139  0.00  0.00    +0.157 HD
ATOM     19  C   LIG    1        4.838  -4.001   0.239  0.00  0.00    +0.251 C 
ATOM     20  O   LIG    1        3.796  -4.626   0.246  0.00  0.00    -0.270 OA
BRANCH  19  21
ATOM     21  C   LIG    1        6.127  -4.715   0.333  0.00  0.00    +0.055 A 
ATOM     22  C   LIG    1        7.327  -4.000   0.331  0.00  0.00    +0.016 A 
ATOM     23  C   LIG    1        8.527  -4.673   0.420  0.00  0.00    +0.021 A 
ATOM     24  C   LIG    1        8.546  -6.055   0.512  0.00  0.00    +0.042 A 
ATOM     25 CL   LIG    1       10.062  -6.894   0.624  0.00  0.00    -0.083 Cl
ATOM     26  C   LIG    1        7.361  -6.771   0.514  0.00  0.00    +0.040 A 
ATOM     27  C   LIG    1        6.152  -6.110   0.431  0.00  0.00    +0.054 A 
ATOM     28 CL   LIG    1        4.666  -7.007   0.442  0.00  0.00    -0.083 Cl
ENDBRANCH  19  21
ENDBRANCH  15  17
ENDBRANCH   1  15
TORSDOF 7
