REMARK  Name = ZINC08969139
REMARK                            x       y       z     vdW  Elec       q    Type
REMARK                         _______ _______ _______ _____ _____    ______ ____
ROOT
ATOM      1  C   LIG    1       -0.006  -2.784  -4.874  0.00  0.00    +0.026 C 
ATOM      2  C   LIG    1       -0.500  -4.074  -4.933  0.00  0.00    +0.101 C 
ATOM      3  C   LIG    1       -1.137  -4.712  -3.766  0.00  0.00    +0.256 C 
ATOM      4  N   LIG    1       -1.593  -5.974  -3.908  0.00  0.00    -0.238 N 
ATOM      5  H   LIG    1       -2.016  -6.415  -3.155  0.00  0.00    +0.159 HD
ATOM      6  C   LIG    1       -1.469  -6.638  -5.087  0.00  0.00    +0.278 C 
ATOM      7  N   LIG    1       -0.913  -6.126  -6.156  0.00  0.00    -0.127 NA
ATOM      8  O   LIG    1       -1.249  -4.118  -2.709  0.00  0.00    -0.270 OA
ATOM      9  C   LIG    1       -0.419  -4.878  -6.172  0.00  0.00    +0.276 C 
ATOM     10  O   LIG    1        0.089  -4.420  -7.182  0.00  0.00    -0.268 OA
ENDROOT
BRANCH   1  14
ATOM     11  C   LIG    1        0.295  -0.806  -1.152  0.00  0.00    +0.029 A 
ATOM     12  C   LIG    1        0.732  -2.124  -1.276  0.00  0.00    +0.023 A 
ATOM     13  C   LIG    1        0.637  -2.768  -2.475  0.00  0.00    +0.010 A 
ATOM     14  C   LIG    1        0.098  -2.100  -3.587  0.00  0.00    -0.024 A 
ATOM     15  C   LIG    1       -0.342  -0.772  -3.457  0.00  0.00    +0.010 A 
ATOM     16  C   LIG    1       -0.247  -0.140  -2.251  0.00  0.00    +0.023 A 
BRANCH  11  18
ATOM     17  C   LIG    1       -0.071   1.226   0.204  0.00  0.00    +0.129 C 
ATOM     18  N   LIG    1        0.393  -0.157   0.070  0.00  0.00    -0.336 N 
ATOM     19  C   LIG    1        0.962  -0.854   1.226  0.00  0.00    +0.129 C 
ENDBRANCH  11  18
ENDBRANCH   1  14
BRANCH   6  20
ATOM     20  O   LIG    1       -1.946  -7.896  -5.160  0.00  0.00    -0.483 OA
ATOM     21  H   LIG    1       -2.349  -8.289  -4.410  0.00  0.00    +0.295 HD
ENDBRANCH   6  20
TORSDOF 3
