REMARK  Name = ZINC08969139
REMARK                            x       y       z     vdW  Elec       q    Type
REMARK                         _______ _______ _______ _____ _____    ______ ____
ROOT
ATOM      1  C   LIG    1       -4.820  -2.876   0.033  0.00  0.00    +0.026 C 
ATOM      2  C   LIG    1       -4.855  -4.164   0.537  0.00  0.00    +0.101 C 
ATOM      3  C   LIG    1       -3.672  -4.775   1.181  0.00  0.00    +0.276 C 
ATOM      4  O   LIG    1       -2.627  -4.156   1.285  0.00  0.00    -0.268 OA
ATOM      5  N   LIG    1       -3.778  -6.030   1.647  0.00  0.00    -0.127 NA
ATOM      6  C   LIG    1       -4.889  -6.716   1.548  0.00  0.00    +0.278 C 
ATOM      7  N   LIG    1       -6.023  -6.237   0.973  0.00  0.00    -0.238 N 
ATOM      8  H   LIG    1       -6.811  -6.802   0.932  0.00  0.00    +0.159 HD
ATOM      9  C   LIG    1       -6.075  -4.989   0.462  0.00  0.00    +0.256 C 
ATOM     10  O   LIG    1       -7.094  -4.560  -0.047  0.00  0.00    -0.270 OA
ENDROOT
BRANCH   1  14
ATOM     11  C   LIG    1       -1.136  -0.833  -0.290  0.00  0.00    +0.029 A 
ATOM     12  C   LIG    1       -1.236  -2.156  -0.717  0.00  0.00    +0.023 A 
ATOM     13  C   LIG    1       -2.423  -2.821  -0.615  0.00  0.00    +0.010 A 
ATOM     14  C   LIG    1       -3.546  -2.170  -0.079  0.00  0.00    -0.024 A 
ATOM     15  C   LIG    1       -3.439  -0.837   0.350  0.00  0.00    +0.010 A 
ATOM     16  C   LIG    1       -2.246  -0.183   0.248  0.00  0.00    +0.023 A 
BRANCH  11  18
ATOM     17  C   LIG    1        0.183   1.227   0.057  0.00  0.00    +0.129 C 
ATOM     18  N   LIG    1        0.074  -0.162  -0.396  0.00  0.00    -0.336 N 
ATOM     19  C   LIG    1        1.242  -0.842  -0.962  0.00  0.00    +0.129 C 
ENDBRANCH  11  18
ENDBRANCH   1  14
BRANCH   6  20
ATOM     20  O   LIG    1       -4.908  -7.969   2.043  0.00  0.00    -0.483 OA
ATOM     21  H   LIG    1       -4.141  -8.325   2.445  0.00  0.00    +0.295 HD
ENDBRANCH   6  20
TORSDOF 3
