REMARK  Name = ZINC08715545
REMARK                            x       y       z     vdW  Elec       q    Type
REMARK                         _______ _______ _______ _____ _____    ______ ____
ROOT
ATOM      1  N   LIG    1       -8.414   2.924  -0.424  0.00  0.00    -0.260 N 
ATOM      2  C   LIG    1       -9.744   2.697  -0.530  0.00  0.00    +0.267 A 
ATOM      3  C   LIG    1      -10.193   1.299  -0.576  0.00  0.00    +0.065 A 
ATOM      4  C   LIG    1      -11.542   0.965  -0.685  0.00  0.00    +0.015 A 
ATOM      5  C   LIG    1      -11.909  -0.363  -0.724  0.00  0.00    +0.001 A 
ATOM      6  C   LIG    1      -10.949  -1.364  -0.657  0.00  0.00    +0.002 A 
ATOM      7  C   LIG    1       -9.622  -1.060  -0.550  0.00  0.00    +0.028 A 
ATOM      8  C   LIG    1       -9.217   0.278  -0.507  0.00  0.00    +0.079 A 
ATOM      9  N   LIG    1       -7.917   0.617  -0.407  0.00  0.00    -0.228 NA
ATOM     10  O   LIG    1      -10.539   3.618  -0.585  0.00  0.00    -0.267 OA
ATOM     11  C   LIG    1       -7.533   1.873  -0.363  0.00  0.00    +0.157 A 
ENDROOT
BRANCH   1  18
ATOM     12  C   LIG    1       -8.150   4.167   2.123  0.00  0.00    +0.046 C 
ATOM     13  C   LIG    1       -7.790   4.882   0.846  0.00  0.00    -0.026 A 
ATOM     14  C   LIG    1       -7.316   6.179   0.890  0.00  0.00    +0.005 A 
ATOM     15  C   LIG    1       -6.985   6.836  -0.280  0.00  0.00    +0.000 A 
ATOM     16  C   LIG    1       -7.127   6.198  -1.499  0.00  0.00    +0.002 A 
ATOM     17  C   LIG    1       -7.595   4.899  -1.550  0.00  0.00    +0.026 A 
ATOM     18  C   LIG    1       -7.934   4.239  -0.376  0.00  0.00    +0.054 A 
ENDBRANCH   1  18
BRANCH  11  19
ATOM     19  C   LIG    1       -6.102   2.163  -0.248  0.00  0.00    +0.079 A 
ATOM     20  C   LIG    1       -5.033   1.300  -0.172  0.00  0.00    +0.058 A 
ATOM     21  C   LIG    1       -5.239  -0.193  -0.198  0.00  0.00    +0.067 C 
ATOM     22  N   LIG    1       -3.832   1.813  -0.080  0.00  0.00    -0.229 NA
ATOM     23  C   LIG    1       -3.641   3.123  -0.050  0.00  0.00    +0.163 A 
ATOM     24  S   LIG    1       -5.261   3.738  -0.172  0.00  0.00    -0.049 S 
BRANCH  23  25
ATOM     25  N   LIG    1       -2.454   3.823   0.046  0.00  0.00    -0.294 N 
ATOM     26  H   LIG    1       -2.467   4.788   0.143  0.00  0.00    +0.154 HD
BRANCH  25  27
ATOM     27  C   LIG    1       -1.235   3.140   0.006  0.00  0.00    +0.033 A 
ATOM     28  C   LIG    1       -1.147   1.910  -0.634  0.00  0.00    +0.023 A 
ATOM     29  C   LIG    1        0.057   1.236  -0.667  0.00  0.00    +0.002 A 
ATOM     30  C   LIG    1        1.178   1.789  -0.074  0.00  0.00    +0.000 A 
ATOM     31  C   LIG    1        1.095   3.016   0.558  0.00  0.00    +0.002 A 
ATOM     32  C   LIG    1       -0.108   3.693   0.600  0.00  0.00    +0.023 A 
ENDBRANCH  25  27
ENDBRANCH  23  25
ENDBRANCH  11  19
TORSDOF 4
