REMARK  Name = ZINC09678795
REMARK                            x       y       z     vdW  Elec       q    Type
REMARK                         _______ _______ _______ _____ _____    ______ ____
ROOT
ATOM      1  C   LIG    1        5.453  -2.702   3.936  0.00  0.00    +0.105 A 
ATOM      2  C   LIG    1        4.581  -2.062   4.798  0.00  0.00    +0.030 A 
ATOM      3  C   LIG    1        3.862  -2.792   5.724  0.00  0.00    +0.026 A 
ATOM      4  C   LIG    1        4.015  -4.172   5.788  0.00  0.00    +0.048 A 
ATOM      5  C   LIG    1        4.892  -4.811   4.921  0.00  0.00    +0.026 A 
ATOM      6  C   LIG    1        5.604  -4.075   3.994  0.00  0.00    +0.030 A 
ENDROOT
BRANCH   1   7
ATOM      7  S   LIG    1        6.368  -1.766   2.757  0.00  0.00    +0.058 S 
ATOM      8  O   LIG    1        6.458  -0.443   3.270  0.00  0.00    -0.153 OA
ATOM      9  O   LIG    1        7.517  -2.536   2.431  0.00  0.00    -0.153 OA
BRANCH   7  10
ATOM     10  N   LIG    1        5.450  -1.678   1.382  0.00  0.00    -0.190 NA
ATOM     11  H   LIG    1        5.758  -2.101   0.565  0.00  0.00    +0.148 HD
BRANCH  10  12
ATOM     12  C   LIG    1        4.171  -0.963   1.399  0.00  0.00    +0.110 C 
BRANCH  12  13
ATOM     13  C   LIG    1        3.711  -0.707  -0.038  0.00  0.00    +0.052 C 
BRANCH  13  17
ATOM     14  C   LIG    1       -0.017   1.378   0.010  0.00  0.00    +0.000 A 
ATOM     15  C   LIG    1        1.171   2.086   0.002  0.00  0.00    +0.000 A 
ATOM     16  C   LIG    1        2.377   1.411  -0.013  0.00  0.00    +0.003 A 
ATOM     17  C   LIG    1        2.396   0.029  -0.020  0.00  0.00    -0.046 A 
ATOM     18  C   LIG    1        1.208  -0.679  -0.012  0.00  0.00    +0.003 A 
ATOM     19  C   LIG    1        0.002  -0.004   0.002  0.00  0.00    +0.000 A 
ENDBRANCH  13  17
ENDBRANCH  12  13
ENDBRANCH  10  12
ENDBRANCH   7  10
ENDBRANCH   1   7
BRANCH   4  20
ATOM     20  N   LIG    1        3.290  -4.913   6.723  0.00  0.00    -0.216 N 
ATOM     21  H   LIG    1        2.669  -4.459   7.338  0.00  0.00    +0.174 HD
BRANCH  20  22
ATOM     22  S   LIG    1        3.474  -6.558   6.799  0.00  0.00    +0.072 S 
ATOM     23  O   LIG    1        4.806  -6.797   7.232  0.00  0.00    -0.150 OA
ATOM     24  O   LIG    1        2.964  -7.080   5.579  0.00  0.00    -0.150 OA
BRANCH  22  25
ATOM     25  C   LIG    1        2.415  -7.142   8.079  0.00  0.00    +0.109 A 
ATOM     26  C   LIG    1        2.883  -7.231   9.377  0.00  0.00    +0.030 A 
ATOM     27  C   LIG    1        2.053  -7.689  10.382  0.00  0.00    +0.022 A 
ATOM     28  C   LIG    1        0.752  -8.060  10.089  0.00  0.00    +0.041 A 
ATOM     29 CL   LIG    1       -0.291  -8.637  11.351  0.00  0.00    -0.084 Cl
ATOM     30  C   LIG    1        0.284  -7.972   8.790  0.00  0.00    +0.022 A 
ATOM     31  C   LIG    1        1.114  -7.508   7.787  0.00  0.00    +0.030 A 
ENDBRANCH  22  25
ENDBRANCH  20  22
ENDBRANCH   4  20
TORSDOF 8
