REMARK  Name = ZINC11678567
REMARK                            x       y       z     vdW  Elec       q    Type
REMARK                         _______ _______ _______ _____ _____    ______ ____
ROOT
ATOM      1  C   LIG    1        2.371  -0.103   0.210  0.00  0.00    +0.045 C 
ATOM      2  C   LIG    1        2.298   1.400   0.143  0.00  0.00    -0.029 A 
ATOM      3  C   LIG    1        3.454   2.152   0.223  0.00  0.00    +0.011 A 
ATOM      4  C   LIG    1        3.390   3.532   0.162  0.00  0.00    -0.008 A 
ATOM      5  C   LIG    1        2.167   4.164   0.022  0.00  0.00    +0.047 A 
ATOM      6 CL   LIG    1        2.090   5.897  -0.053  0.00  0.00    -0.083 Cl
ATOM      7  C   LIG    1        1.007   3.417  -0.065  0.00  0.00    +0.044 A 
ATOM      8  C   LIG    1        1.069   2.031   0.002  0.00  0.00    +0.038 A 
ENDROOT
BRANCH   8   9
ATOM      9  N   LIG    1       -0.103   1.273  -0.079  0.00  0.00    -0.281 N 
ATOM     10  H   LIG    1       -0.090   0.406  -0.514  0.00  0.00    +0.155 HD
ATOM     11  C   LIG    1       -1.251   1.748   0.443  0.00  0.00    +0.252 C 
ATOM     12  O   LIG    1       -1.288   2.871   0.909  0.00  0.00    -0.270 OA
BRANCH  11  13
ATOM     13  C   LIG    1       -2.462   0.907   0.449  0.00  0.00    +0.080 A 
ATOM     14  C   LIG    1       -2.424  -0.384  -0.086  0.00  0.00    +0.031 A 
ATOM     15  C   LIG    1       -3.559  -1.165  -0.077  0.00  0.00    +0.015 A 
ATOM     16  I   LIG    1       -3.500  -3.100  -0.878  0.00  0.00    -0.044 I 
ATOM     17  C   LIG    1       -4.740  -0.677   0.461  0.00  0.00    +0.032 A 
ATOM     18  C   LIG    1       -4.792   0.597   0.992  0.00  0.00    +0.056 A 
ATOM     19  I   LIG    1       -6.583   1.322   1.800  0.00  0.00    -0.040 I 
ATOM     20  C   LIG    1       -3.656   1.395   0.996  0.00  0.00    +0.142 A 
BRANCH  20  21
ATOM     21  O   LIG    1       -3.704   2.644   1.522  0.00  0.00    -0.505 OA
ATOM     22  H   LIG    1       -3.947   3.331   0.885  0.00  0.00    +0.292 HD
ENDBRANCH  20  21
ENDBRANCH  11  13
ENDBRANCH   8   9
BRANCH   4  23
ATOM     23  C   LIG    1        4.653   4.349   0.250  0.00  0.00    +0.153 C 
BRANCH  23  24
ATOM     24  C   LIG    1        5.498   4.100  -0.973  0.00  0.00    -0.026 A 
ATOM     25  C   LIG    1        6.085   2.864  -1.167  0.00  0.00    +0.006 A 
ATOM     26  C   LIG    1        6.855   2.633  -2.291  0.00  0.00    +0.020 A 
ATOM     27  C   LIG    1        7.048   3.644  -3.216  0.00  0.00    +0.041 A 
ATOM     28 CL   LIG    1        8.022   3.358  -4.625  0.00  0.00    -0.084 Cl
ATOM     29  C   LIG    1        6.465   4.883  -3.018  0.00  0.00    +0.020 A 
ATOM     30  C   LIG    1        5.691   5.110  -1.896  0.00  0.00    +0.006 A 
ENDBRANCH  23  24
BRANCH  23  31
ATOM     31  C   LIG    1        5.406   3.960   1.454  0.00  0.00    +0.075 C 
ATOM     32  N   LIG    1        5.987   3.660   2.383  0.00  0.00    -0.196 NA
ENDBRANCH  23  31
ENDBRANCH   4  23
TORSDOF 6
