REMARK  Name = ZINC08598823
REMARK                            x       y       z     vdW  Elec       q    Type
REMARK                         _______ _______ _______ _____ _____    ______ ____
ROOT
ATOM      1  C   LIG    1        1.985  -6.060  -3.436  0.00  0.00    +0.129 A 
ATOM      2  C   LIG    1        1.470  -6.936  -2.533  0.00  0.00    +0.074 A 
ATOM      3  C   LIG    1        1.741  -8.238  -2.994  0.00  0.00    +0.095 A 
ATOM      4  N   LIG    1        2.395  -8.144  -4.133  0.00  0.00    -0.165 NA
ATOM      5  N   LIG    1        2.556  -6.786  -4.436  0.00  0.00    -0.218 N 
ENDROOT
BRANCH   3   6
ATOM      6  C   LIG    1        1.357  -9.500  -2.313  0.00  0.00    +0.002 A 
ATOM      7  C   LIG    1        0.659  -9.460  -1.108  0.00  0.00    +0.010 A 
ATOM      8  C   LIG    1        0.304 -10.636  -0.480  0.00  0.00    +0.001 A 
ATOM      9  C   LIG    1        0.641 -11.853  -1.044  0.00  0.00    +0.000 A 
ATOM     10  C   LIG    1        1.334 -11.899  -2.240  0.00  0.00    +0.001 A 
ATOM     11  C   LIG    1        1.688 -10.729  -2.880  0.00  0.00    +0.010 A 
ENDBRANCH   3   6
BRANCH   5  12
ATOM     12  C   LIG    1        3.196  -6.266  -5.569  0.00  0.00    +0.067 A 
ATOM     13  C   LIG    1        2.733  -5.093  -6.152  0.00  0.00    +0.028 A 
ATOM     14  C   LIG    1        3.366  -4.583  -7.269  0.00  0.00    +0.002 A 
ATOM     15  C   LIG    1        4.459  -5.238  -7.806  0.00  0.00    +0.000 A 
ATOM     16  C   LIG    1        4.921  -6.406  -7.228  0.00  0.00    +0.002 A 
ATOM     17  C   LIG    1        4.297  -6.918  -6.107  0.00  0.00    +0.028 A 
ENDBRANCH   5  12
BRANCH   1  19
ATOM     18  C   LIG    1        1.332  -4.078  -2.303  0.00  0.00    +0.249 C 
ATOM     19  N   LIG    1        1.932  -4.670  -3.355  0.00  0.00    -0.266 N 
ATOM     20  H   LIG    1        2.327  -4.128  -4.056  0.00  0.00    +0.157 HD
ATOM     21  O   LIG    1        0.837  -4.758  -1.424  0.00  0.00    -0.270 OA
BRANCH  18  26
ATOM     22  C   LIG    1        0.606  -0.607  -1.056  0.00  0.00    +0.121 A 
ATOM     23  C   LIG    1        1.173   0.163  -2.063  0.00  0.00    +0.045 A 
ATOM     24  C   LIG    1        1.788  -0.445  -3.141  0.00  0.00    +0.004 A 
ATOM     25  C   LIG    1        1.843  -1.821  -3.224  0.00  0.00    +0.013 A 
ATOM     26  C   LIG    1        1.276  -2.604  -2.217  0.00  0.00    +0.041 A 
ATOM     27  C   LIG    1        0.660  -1.989  -1.126  0.00  0.00    +0.058 A 
BRANCH  22  29
ATOM     28  C   LIG    1       -0.017   1.425   0.010  0.00  0.00    +0.277 C 
ATOM     29  O   LIG    1        0.002  -0.004   0.002  0.00  0.00    -0.495 OA
ENDBRANCH  22  29
ENDBRANCH  18  26
ENDBRANCH   1  19
TORSDOF 5
