REMARK  Name = ZINC12404913
REMARK                            x       y       z     vdW  Elec       q    Type
REMARK                         _______ _______ _______ _____ _____    ______ ____
ROOT
ATOM      1  C   LIG    1       -0.013   1.086   0.008  0.00  0.00    +0.012 C 
ATOM      2  C   LIG    1       -0.733   1.582   1.275  0.00  0.00    +0.017 C 
ATOM      3  C   LIG    1        0.040   1.052   2.476  0.00  0.00    +0.008 C 
ATOM      4  C   LIG    1       -0.836   0.840   3.706  0.00  0.00    +0.006 C 
ATOM      5  C   LIG    1       -1.857  -0.265   3.376  0.00  0.00    +0.043 C 
ATOM      6  C   LIG    1       -2.626   0.232   2.190  0.00  0.00    -0.004 A 
ATOM      7  S   LIG    1       -4.278  -0.191   1.711  0.00  0.00    -0.073 S 
ATOM      8  C   LIG    1       -4.412   0.859   0.300  0.00  0.00    +0.114 A 
ATOM      9  N   LIG    1       -5.385   1.060  -0.567  0.00  0.00    -0.228 NA
ATOM     10  C   LIG    1       -5.161   1.951  -1.524  0.00  0.00    +0.224 A 
ATOM     11  N   LIG    1       -4.042   2.637  -1.605  0.00  0.00    -0.220 NA
ATOM     12  C   LIG    1       -3.014   2.506  -0.764  0.00  0.00    +0.128 A 
ATOM     13  C   LIG    1       -3.148   1.508   0.243  0.00  0.00    +0.051 A 
ATOM     14  C   LIG    1       -2.174   1.090   1.244  0.00  0.00    -0.022 A 
ENDROOT
BRANCH  12  15
ATOM     15  N   LIG    1       -1.919   3.343  -0.879  0.00  0.00    -0.343 N 
ATOM     16  H   LIG    1       -1.886   4.004  -1.588  0.00  0.00    +0.144 HD
ATOM     17  H   LIG    1       -1.184   3.269  -0.250  0.00  0.00    +0.144 HD
ENDBRANCH  12  15
TORSDOF 1
