REMARK  Name = ZINC08619414
REMARK                            x       y       z     vdW  Elec       q    Type
REMARK                         _______ _______ _______ _____ _____    ______ ____
ROOT
ATOM      1  C   LIG    1       -2.674   1.390   0.185  0.00  0.00    +0.017 C 
ATOM      2  C   LIG    1       -1.550   1.803   0.864  0.00  0.00    +0.040 A 
ATOM      3  C   LIG    1       -0.274   1.602   0.285  0.00  0.00    +0.026 A 
ATOM      4  C   LIG    1        0.841   2.006   0.934  0.00  0.00    +0.012 A 
ATOM      5  C   LIG    1        0.710   2.649   2.246  0.00  0.00    -0.001 A 
ATOM      6  C   LIG    1        1.838   3.082   2.948  0.00  0.00    +0.010 A 
ATOM      7  C   LIG    1        1.686   3.683   4.179  0.00  0.00    +0.001 A 
ATOM      8  C   LIG    1        0.422   3.861   4.722  0.00  0.00    +0.002 A 
ATOM      9  C   LIG    1       -0.701   3.439   4.040  0.00  0.00    +0.026 A 
ATOM     10  C   LIG    1       -0.570   2.831   2.799  0.00  0.00    +0.049 A 
ATOM     11  N   LIG    1       -1.686   2.402   2.100  0.00  0.00    -0.341 N 
ENDROOT
BRANCH   1  13
ATOM     12  N   LIG    1       -4.988   1.811  -0.333  0.00  0.00    -0.293 NA
ATOM     13  C   LIG    1       -3.806   2.300   0.024  0.00  0.00    +0.082 C 
ATOM     14  C   LIG    1       -3.622   3.680   0.255  0.00  0.00    +0.023 C 
ATOM     15  C   LIG    1       -4.667   4.536   0.101  0.00  0.00    +0.007 C 
ATOM     16  C   LIG    1       -5.920   4.006  -0.278  0.00  0.00    +0.006 C 
ATOM     17  C   LIG    1       -7.037   4.836  -0.446  0.00  0.00    +0.005 C 
ATOM     18  C   LIG    1       -8.233   4.293  -0.813  0.00  0.00    +0.000 C 
ATOM     19  C   LIG    1       -8.361   2.923  -1.023  0.00  0.00    +0.002 C 
ATOM     20  C   LIG    1       -7.296   2.087  -0.869  0.00  0.00    +0.019 C 
ATOM     21  C   LIG    1       -6.047   2.611  -0.491  0.00  0.00    +0.060 C 
BRANCH  12  23
ATOM     22  C   LIG    1       -5.445  -0.322   0.771  0.00  0.00    +0.020 C 
ATOM     23  C   LIG    1       -5.134   0.371  -0.557  0.00  0.00    +0.082 C 
ENDBRANCH  12  23
ENDBRANCH   1  13
BRANCH  11  24
ATOM     24  C   LIG    1       -3.020   2.591   2.675  0.00  0.00    +0.119 C 
ATOM     25  C   LIG    1       -3.318   1.455   3.656  0.00  0.00    +0.027 C 
ENDBRANCH  11  24
TORSDOF 3
