REMARK  Name = ZINC08660772
REMARK                            x       y       z     vdW  Elec       q    Type
REMARK                         _______ _______ _______ _____ _____    ______ ____
ROOT
ATOM      1  C   LIG    1        5.844   3.187   2.795  0.00  0.00    +0.039 A 
ATOM      2  C   LIG    1        4.979   2.782   3.813  0.00  0.00    +0.014 A 
ATOM      3  C   LIG    1        5.325   2.991   5.132  0.00  0.00    +0.018 A 
ATOM      4  C   LIG    1        6.528   3.603   5.446  0.00  0.00    +0.044 A 
ATOM      5 BR   LIG    1        6.994   3.887   7.256  0.00  0.00    -0.048 Br
ATOM      6  C   LIG    1        7.389   4.007   4.440  0.00  0.00    +0.120 A 
ATOM      7  C   LIG    1        7.057   3.797   3.118  0.00  0.00    +0.042 A 
ENDROOT
BRANCH   1  10
ATOM      8  N   LIG    1        4.307   2.376   1.071  0.00  0.00    -0.307 N 
ATOM      9  H   LIG    1        3.703   2.097   1.777  0.00  0.00    +0.149 HD
ATOM     10  C   LIG    1        5.479   2.965   1.380  0.00  0.00    +0.244 C 
ATOM     11  O   LIG    1        6.236   3.315   0.495  0.00  0.00    -0.270 OA
BRANCH   8  12
ATOM     12  C   LIG    1        3.945   2.156  -0.332  0.00  0.00    +0.141 C 
BRANCH  12  15
ATOM     13  C   LIG    1        0.220   1.587  -0.534  0.00  0.00    +0.020 A 
ATOM     14  C   LIG    1        1.438   2.246  -0.468  0.00  0.00    +0.008 A 
ATOM     15  C   LIG    1        2.597   1.487  -0.404  0.00  0.00    -0.012 A 
ATOM     16  C   LIG    1        2.499   0.108  -0.407  0.00  0.00    +0.115 A 
ATOM     17  N   LIG    1        1.324  -0.485  -0.471  0.00  0.00    -0.263 NA
ATOM     18  C   LIG    1        0.201   0.205  -0.533  0.00  0.00    +0.111 A 
ENDBRANCH  12  15
ENDBRANCH   8  12
ENDBRANCH   1  10
BRANCH   6  19
ATOM     19  S   LIG    1        8.916   4.784   4.850  0.00  0.00    +0.062 S 
ATOM     20  O   LIG    1        9.597   5.015   3.624  0.00  0.00    -0.153 OA
ATOM     21  O   LIG    1        9.488   4.025   5.907  0.00  0.00    -0.153 OA
BRANCH  19  22
ATOM     22  N   LIG    1        8.555   6.273   5.479  0.00  0.00    -0.177 NA
ATOM     23  C   LIG    1        8.260   7.407   4.594  0.00  0.00    +0.109 C 
ATOM     24  C   LIG    1        6.912   8.012   5.000  0.00  0.00    +0.017 C 
ATOM     25  C   LIG    1        6.944   8.367   6.488  0.00  0.00    +0.003 C 
ATOM     26  C   LIG    1        7.173   7.099   7.313  0.00  0.00    +0.017 C 
ATOM     27  C   LIG    1        8.518   6.482   6.933  0.00  0.00    +0.109 C 
ENDBRANCH  19  22
ENDBRANCH   6  19
TORSDOF 5
