REMARK  Name = ZINC12050375
REMARK                            x       y       z     vdW  Elec       q    Type
REMARK                         _______ _______ _______ _____ _____    ______ ____
ROOT
ATOM      1  C   LIG    1        5.403   2.994  -0.095  0.00  0.00    +0.072 A 
ATOM      2  C   LIG    1        4.074   2.543  -0.115  0.00  0.00    +0.042 A 
ATOM      3  C   LIG    1        3.719   1.438   0.644  0.00  0.00    +0.048 A 
ATOM      4  C   LIG    1        4.770   0.802   1.438  0.00  0.00    +0.013 A 
ATOM      5  C   LIG    1        4.508  -0.314   2.240  0.00  0.00    +0.011 A 
ATOM      6  C   LIG    1        5.517  -0.875   2.964  0.00  0.00    +0.001 A 
ATOM      7  C   LIG    1        6.807  -0.352   2.916  0.00  0.00    +0.002 A 
ATOM      8  C   LIG    1        7.099   0.727   2.139  0.00  0.00    +0.028 A 
ATOM      9  C   LIG    1        6.082   1.337   1.381  0.00  0.00    +0.072 A 
ATOM     10  N   LIG    1        6.335   2.404   0.623  0.00  0.00    -0.247 NA
ENDROOT
BRANCH   1  14
ATOM     11  C   LIG    1        6.454   6.386  -2.434  0.00  0.00    +0.000 A 
ATOM     12  C   LIG    1        7.417   5.749  -1.671  0.00  0.00    +0.001 A 
ATOM     13  C   LIG    1        7.082   4.648  -0.910  0.00  0.00    +0.010 A 
ATOM     14  C   LIG    1        5.770   4.177  -0.911  0.00  0.00    +0.000 A 
ATOM     15  C   LIG    1        4.805   4.819  -1.685  0.00  0.00    +0.010 A 
ATOM     16  C   LIG    1        5.150   5.923  -2.438  0.00  0.00    +0.001 A 
ENDBRANCH   1  14
BRANCH   3  17
ATOM     17  C   LIG    1        2.331   0.926   0.654  0.00  0.00    +0.246 C 
ATOM     18  N   LIG    1        1.359   1.601   0.010  0.00  0.00    -0.296 N 
ATOM     19  H   LIG    1        1.569   2.422  -0.461  0.00  0.00    +0.150 HD
ATOM     20  O   LIG    1        2.068  -0.104   1.244  0.00  0.00    -0.270 OA
BRANCH  18  21
ATOM     21  C   LIG    1       -0.015   1.093   0.020  0.00  0.00    +0.189 C 
BRANCH  21  22
ATOM     22  C   LIG    1       -0.750   1.607  -1.192  0.00  0.00    -0.018 A 
ATOM     23  C   LIG    1       -0.561   2.910  -1.613  0.00  0.00    +0.006 A 
ATOM     24  C   LIG    1       -1.231   3.380  -2.728  0.00  0.00    +0.000 A 
ATOM     25  C   LIG    1       -2.097   2.549  -3.414  0.00  0.00    +0.000 A 
ATOM     26  C   LIG    1       -2.289   1.248  -2.990  0.00  0.00    +0.000 A 
ATOM     27  C   LIG    1       -1.616   0.777  -1.879  0.00  0.00    +0.006 A 
ENDBRANCH  21  22
BRANCH  21  28
ATOM     28  C   LIG    1       -0.715   1.565   1.268  0.00  0.00    +0.235 C 
ATOM     29  N   LIG    1       -1.998   1.218   1.494  0.00  0.00    -0.328 N 
ATOM     30  H   LIG    1       -2.449   1.522   2.297  0.00  0.00    +0.145 HD
ATOM     31  H   LIG    1       -2.471   0.665   0.852  0.00  0.00    +0.145 HD
ATOM     32  O   LIG    1       -0.124   2.257   2.071  0.00  0.00    -0.274 OA
ENDBRANCH  21  28
ENDBRANCH  18  21
ENDBRANCH   3  17
TORSDOF 5
