REMARK  Name = ZINC12414057
REMARK                            x       y       z     vdW  Elec       q    Type
REMARK                         _______ _______ _______ _____ _____    ______ ____
ROOT
ATOM      1  C   LIG    1        1.683  -0.596  -1.360  0.00  0.00    +0.030 A 
ATOM      2  C   LIG    1        1.554  -1.999  -1.325  0.00  0.00    +0.025 A 
ATOM      3  C   LIG    1        1.275  -2.725  -2.430  0.00  0.00    +0.031 A 
ATOM      4  C   LIG    1        1.101  -2.079  -3.684  0.00  0.00    +0.078 A 
ATOM      5  C   LIG    1        1.239  -0.609  -3.697  0.00  0.00    +0.040 A 
ATOM      6  S   LIG    1        1.010   0.144  -5.293  0.00  0.00    -0.085 S 
ATOM      7  C   LIG    1        0.659  -1.088  -6.529  0.00  0.00    +0.040 A 
ATOM      8  C   LIG    1        0.439  -0.794  -7.844  0.00  0.00    +0.042 A 
ATOM      9  C   LIG    1        0.172  -1.843  -8.732  0.00  0.00    +0.039 A 
ATOM     10  C   LIG    1        0.132  -3.173  -8.269  0.00  0.00    +0.027 A 
ATOM     11  C   LIG    1        0.345  -3.494  -6.974  0.00  0.00    +0.031 A 
ATOM     12  N   LIG    1       -0.050  -1.577 -10.047  0.00  0.00    -0.377 N 
ATOM     13  C   LIG    1       -0.162  -2.676 -11.008  0.00  0.00    +0.142 C 
ATOM     14  C   LIG    1       -0.178  -0.190 -10.502  0.00  0.00    +0.142 C 
ATOM     15  C   LIG    1        0.621  -2.474  -6.023  0.00  0.00    +0.078 A 
ATOM     16  N   LIG    1        0.831  -2.770  -4.764  0.00  0.00    -0.246 NA
ATOM     17  C   LIG    1        1.516   0.099  -2.563  0.00  0.00    +0.040 A 
ENDROOT
BRANCH   1  19
ATOM     18  C   LIG    1        2.093   1.545  -0.247  0.00  0.00    +0.129 C 
ATOM     19  N   LIG    1        1.964   0.086  -0.217  0.00  0.00    -0.336 N 
ATOM     20  C   LIG    1        2.139  -0.638   1.044  0.00  0.00    +0.129 C 
ENDBRANCH   1  19
TORSDOF 1
