REMARK  Name = ZINC08836022
REMARK                            x       y       z     vdW  Elec       q    Type
REMARK                         _______ _______ _______ _____ _____    ______ ____
ROOT
ATOM      1  C   LIG    1       -2.773  -3.426   2.564  0.00  0.00    +0.433 C 
ATOM      2  N   LIG    1       -1.731  -3.282   3.386  0.00  0.00    +0.018 NA
ENDROOT
BRANCH   2   3
ATOM      3  C   LIG    1       -0.702  -4.119   3.306  0.00  0.00    +0.403 C 
ATOM      4  N   LIG    1        0.334  -4.005   4.175  0.00  0.00    -0.254 N 
ATOM      5  H   LIG    1        0.356  -3.272   4.810  0.00  0.00    +0.158 HD
ATOM      6  O   LIG    1       -0.689  -5.071   2.374  0.00  0.00    -0.230 OA
BRANCH   4   7
ATOM      7  C   LIG    1        1.371  -4.943   4.154  0.00  0.00    +0.036 A 
ATOM      8  C   LIG    1        1.770  -5.513   2.951  0.00  0.00    +0.023 A 
ATOM      9  C   LIG    1        2.795  -6.439   2.934  0.00  0.00    +0.002 A 
ATOM     10  C   LIG    1        3.423  -6.800   4.112  0.00  0.00    +0.000 A 
ATOM     11  C   LIG    1        3.028  -6.235   5.311  0.00  0.00    +0.002 A 
ATOM     12  C   LIG    1        2.008  -5.303   5.334  0.00  0.00    +0.023 A 
ENDBRANCH   4   7
ENDBRANCH   2   3
BRANCH   1  13
ATOM     13  N   LIG    1       -3.757  -2.468   2.529  0.00  0.00    -0.209 N 
ATOM     14  H   LIG    1       -3.695  -1.687   3.101  0.00  0.00    +0.268 HD
BRANCH  13  24
ATOM     15  C   LIG    1       -7.882  -0.677   0.876  0.00  0.00    +0.066 C 
ATOM     16  C   LIG    1       -6.831  -1.756   0.876  0.00  0.00    +0.053 A 
ATOM     17  C   LIG    1       -6.951  -2.878   0.034  0.00  0.00    +0.022 A 
ATOM     18  C   LIG    1       -8.039  -3.043  -0.835  0.00  0.00    +0.012 A 
ATOM     19  C   LIG    1       -8.103  -4.150  -1.627  0.00  0.00    +0.001 A 
ATOM     20  C   LIG    1       -7.102  -5.119  -1.587  0.00  0.00    +0.002 A 
ATOM     21  C   LIG    1       -6.032  -4.990  -0.755  0.00  0.00    +0.028 A 
ATOM     22  C   LIG    1       -5.931  -3.864   0.075  0.00  0.00    +0.078 A 
ATOM     23  N   LIG    1       -4.900  -3.688   0.910  0.00  0.00    -0.198 NA
ATOM     24  C   LIG    1       -4.841  -2.617   1.676  0.00  0.00    +0.293 A 
ATOM     25  N   LIG    1       -5.776  -1.670   1.659  0.00  0.00    -0.203 NA
ENDBRANCH  13  24
ENDBRANCH   1  13
BRANCH   1  26
ATOM     26  N   LIG    1       -2.860  -4.501   1.777  0.00  0.00    -0.017 NA
ATOM     27  C   LIG    1       -3.397  -5.623   2.243  0.00  0.00    +0.365 C 
BRANCH  27  28
ATOM     28  N   LIG    1       -3.467  -6.722   1.449  0.00  0.00    -0.255 N 
ATOM     29  H   LIG    1       -3.845  -7.546   1.793  0.00  0.00    +0.158 HD
BRANCH  28  30
ATOM     30  C   LIG    1       -2.993  -6.666   0.134  0.00  0.00    +0.036 A 
ATOM     31  C   LIG    1       -1.849  -5.936  -0.163  0.00  0.00    +0.023 A 
ATOM     32  C   LIG    1       -1.383  -5.883  -1.462  0.00  0.00    +0.002 A 
ATOM     33  C   LIG    1       -2.055  -6.556  -2.467  0.00  0.00    +0.000 A 
ATOM     34  C   LIG    1       -3.193  -7.284  -2.174  0.00  0.00    +0.002 A 
ATOM     35  C   LIG    1       -3.661  -7.345  -0.876  0.00  0.00    +0.023 A 
ENDBRANCH  28  30
ENDBRANCH  27  28
BRANCH  27  36
ATOM     36  O   LIG    1       -3.867  -5.670   3.489  0.00  0.00    -0.469 OA
ATOM     37  H   LIG    1       -3.818  -4.912   4.037  0.00  0.00    +0.297 HD
ENDBRANCH  27  36
ENDBRANCH   1  26
TORSDOF 8
