REMARK  Name = ZINC12032274
REMARK                            x       y       z     vdW  Elec       q    Type
REMARK                         _______ _______ _______ _____ _____    ______ ____
ROOT
ATOM      1  N   LIG    1        1.471  -1.894  -0.935  0.00  0.00    -0.224 N 
ATOM      2  C   LIG    1        1.529  -0.595  -0.694  0.00  0.00    +0.263 C 
ATOM      3  C   LIG    1        0.237   0.094  -0.473  0.00  0.00    +0.077 C 
ATOM      4  S   LIG    1       -0.905  -1.268  -0.666  0.00  0.00    -0.061 S 
ATOM      5  C   LIG    1       -0.012   1.400  -0.205  0.00  0.00    +0.028 C 
ATOM      6  O   LIG    1        2.588   0.001  -0.651  0.00  0.00    -0.269 OA
ATOM      7  C   LIG    1        0.294  -2.550  -0.989  0.00  0.00    +0.125 C 
ATOM      8  S   LIG    1        0.017  -4.212  -1.295  0.00  0.00    -0.027 S 
ENDROOT
BRANCH   1  12
ATOM      9  C   LIG    1        5.011  -4.009  -1.566  0.00  0.00    +0.120 A 
ATOM     10  C   LIG    1        4.702  -3.536  -0.299  0.00  0.00    +0.047 A 
ATOM     11  C   LIG    1        3.530  -2.837  -0.090  0.00  0.00    +0.027 A 
ATOM     12  C   LIG    1        2.662  -2.605  -1.148  0.00  0.00    +0.043 A 
ATOM     13  C   LIG    1        2.969  -3.083  -2.414  0.00  0.00    +0.027 A 
ATOM     14  C   LIG    1        4.143  -3.779  -2.624  0.00  0.00    +0.047 A 
BRANCH   9  16
ATOM     15  C   LIG    1        6.419  -5.155  -3.102  0.00  0.00    +0.277 C 
ATOM     16  O   LIG    1        6.165  -4.698  -1.772  0.00  0.00    -0.495 OA
ENDBRANCH   9  16
ENDBRANCH   1  12
BRANCH   5  17
ATOM     17  C   LIG    1       -1.394   1.898  -0.197  0.00  0.00    -0.024 A 
ATOM     18  C   LIG    1       -2.437   1.078  -0.649  0.00  0.00    +0.008 A 
ATOM     19  C   LIG    1       -3.721   1.540  -0.637  0.00  0.00    +0.011 A 
ATOM     20  C   LIG    1       -3.996   2.836  -0.184  0.00  0.00    +0.014 A 
ATOM     21  C   LIG    1       -2.953   3.658   0.263  0.00  0.00    +0.011 A 
ATOM     22  C   LIG    1       -1.669   3.195   0.257  0.00  0.00    +0.008 A 
BRANCH  20  23
ATOM     23  C   LIG    1       -5.379   3.335  -0.177  0.00  0.00    +0.258 C 
ATOM     24  O   LIG    1       -5.617   4.457   0.216  0.00  0.00    -0.296 OA
ENDBRANCH  20  23
ENDBRANCH   5  17
TORSDOF 4
