REMARK  Name = ZINC12579229
REMARK                            x       y       z     vdW  Elec       q    Type
REMARK                         _______ _______ _______ _____ _____    ______ ____
ROOT
ATOM      1  N   LIG    1        0.002  -0.004   0.002  0.00  0.00    -0.292 NA
ATOM      2  C   LIG    1       -0.018   1.465   0.010  0.00  0.00    +0.104 C 
ATOM      3  C   LIG    1        1.419   1.992  -0.001  0.00  0.00    +0.120 C 
ATOM      4  N   LIG    1        2.138   1.472   1.171  0.00  0.00    -0.326 N 
ATOM      5  C   LIG    1        2.158   0.003   1.162  0.00  0.00    +0.120 C 
ATOM      6  C   LIG    1        0.721  -0.525   1.173  0.00  0.00    +0.104 C 
ENDROOT
BRANCH   4   7
ATOM      7  C   LIG    1        3.433   1.990   1.233  0.00  0.00    +0.060 A 
ATOM      8  C   LIG    1        4.352   1.691   0.234  0.00  0.00    +0.025 A 
ATOM      9  C   LIG    1        5.630   2.210   0.297  0.00  0.00    +0.002 A 
ATOM     10  C   LIG    1        6.000   3.016   1.358  0.00  0.00    +0.002 A 
ATOM     11  C   LIG    1        5.091   3.310   2.357  0.00  0.00    +0.034 A 
ATOM     12  C   LIG    1        3.808   2.800   2.298  0.00  0.00    +0.142 A 
BRANCH  12  13
ATOM     13  N   LIG    1        2.836   3.115   3.368  0.00  0.00    +0.008 N 
ATOM     14  O   LIG    1        3.165   3.825   4.301  0.00  0.00    -0.130 OA
BRANCH  13  15
ATOM     15  O   LIG    1        1.705   2.664   3.315  0.00  0.00    -0.396 OA
ATOM     16  H   LIG    1        1.452   2.118   2.597  0.00  0.00    +0.329 HD
ENDBRANCH  13  15
ENDBRANCH  12  13
ENDBRANCH   4   7
BRANCH   1  17
ATOM     17  C   LIG    1       -1.361  -0.549  -0.064  0.00  0.00    +0.158 C 
BRANCH  17  24
ATOM     18  C   LIG    1       -1.151  -6.557  -0.461  0.00  0.00    +0.002 A 
ATOM     19  C   LIG    1       -1.058  -6.281  -1.818  0.00  0.00    +0.002 A 
ATOM     20  C   LIG    1       -1.064  -4.992  -2.269  0.00  0.00    +0.030 A 
ATOM     21  C   LIG    1       -1.163  -3.936  -1.359  0.00  0.00    +0.089 A 
ATOM     22  C   LIG    1       -1.256  -4.215   0.015  0.00  0.00    +0.066 A 
ATOM     23  N   LIG    1       -1.340  -2.991   0.648  0.00  0.00    -0.341 N 
ATOM     24  C   LIG    1       -1.297  -2.033  -0.317  0.00  0.00    +0.122 A 
ATOM     25  H   LIG    1       -1.422  -2.942   1.744  0.00  0.00    +0.167 HD
ATOM     26  N   LIG    1       -1.198  -2.585  -1.491  0.00  0.00    -0.231 NA
ATOM     27  C   LIG    1       -1.249  -5.532   0.455  0.00  0.00    +0.028 A 
ENDBRANCH  17  24
ENDBRANCH   1  17
TORSDOF 5
