REMARK  Name = ZINC11757505
REMARK                            x       y       z     vdW  Elec       q    Type
REMARK                         _______ _______ _______ _____ _____    ______ ____
ROOT
ATOM      1  C   LIG    1        3.646   2.176   0.001  0.00  0.00    +0.049 A 
ATOM      2  C   LIG    1        3.753   3.528  -0.008  0.00  0.00    +0.043 A 
ATOM      3  C   LIG    1        5.178   3.838   0.012  0.00  0.00    +0.081 A 
ATOM      4  C   LIG    1        5.854   2.601   0.033  0.00  0.00    +0.145 A 
ATOM      5  N   LIG    1        7.185   2.605   0.054  0.00  0.00    -0.218 NA
ATOM      6  C   LIG    1        7.854   3.739   0.056  0.00  0.00    +0.227 A 
ATOM      7  N   LIG    1        7.260   4.918   0.037  0.00  0.00    -0.200 NA
ATOM      8  C   LIG    1        5.936   5.018   0.015  0.00  0.00    +0.233 A 
ATOM      9  N   LIG    1        4.905   1.616   0.032  0.00  0.00    -0.339 N 
ATOM     10  H   LIG    1        5.091   0.664   0.047  0.00  0.00    +0.167 HD
ENDROOT
BRANCH   1  13
ATOM     11  C   LIG    1       -0.028   1.391  -0.058  0.00  0.00    +0.002 A 
ATOM     12  C   LIG    1        1.157   2.099  -0.044  0.00  0.00    +0.010 A 
ATOM     13  C   LIG    1        2.376   1.419  -0.013  0.00  0.00    +0.000 A 
ATOM     14  C   LIG    1        2.391   0.025   0.004  0.00  0.00    +0.032 A 
ATOM     15  C   LIG    1        1.196  -0.677  -0.011  0.00  0.00    +0.025 A 
ATOM     16  C   LIG    1       -0.013   0.009  -0.042  0.00  0.00    +0.023 A 
BRANCH  15  17
ATOM     17  N   LIG    1        1.206  -2.074   0.006  0.00  0.00    -0.358 N 
ATOM     18  H   LIG    1        0.370  -2.565  -0.004  0.00  0.00    +0.142 HD
ATOM     19  H   LIG    1        2.050  -2.553   0.027  0.00  0.00    +0.142 HD
ENDBRANCH  15  17
ENDBRANCH   1  13
BRANCH   8  20
ATOM     20  O   LIG    1        5.332   6.231  -0.005  0.00  0.00    -0.437 OA
BRANCH  20  21
ATOM     21  C   LIG    1        6.116   7.336   0.100  0.00  0.00    +0.134 A 
ATOM     22  C   LIG    1        6.191   8.022   1.305  0.00  0.00    +0.046 A 
ATOM     23  C   LIG    1        6.987   9.145   1.412  0.00  0.00    +0.007 A 
ATOM     24  C   LIG    1        7.711   9.589   0.321  0.00  0.00    +0.045 A 
ATOM     25  C   LIG    1        7.639   8.907  -0.885  0.00  0.00    +0.120 A 
ATOM     26  C   LIG    1        6.845   7.776  -0.994  0.00  0.00    +0.091 A 
BRANCH  25  27
ATOM     27  O   LIG    1        8.349   9.345  -1.957  0.00  0.00    -0.507 OA
ATOM     28  H   LIG    1        9.237   8.966  -2.022  0.00  0.00    +0.292 HD
ENDBRANCH  25  27
ENDBRANCH  20  21
ENDBRANCH   8  20
TORSDOF 5
