REMARK  Name = ZINC12411350
REMARK                            x       y       z     vdW  Elec       q    Type
REMARK                         _______ _______ _______ _____ _____    ______ ____
ROOT
ATOM      1  C   LIG    1        5.074   3.311  -0.032  0.00  0.00    +0.028 C 
ATOM      2  C   LIG    1        5.721   3.508  -1.212  0.00  0.00    +0.078 C 
ATOM      3  C   LIG    1        7.088   4.015  -1.471  0.00  0.00    +0.275 C 
ATOM      4  N   LIG    1        7.451   4.097  -2.732  0.00  0.00    -0.168 NA
ATOM      5  C   LIG    1        6.645   3.759  -3.726  0.00  0.00    +0.102 C 
ATOM      6  O   LIG    1        7.838   4.335  -0.563  0.00  0.00    -0.267 OA
ATOM      7  S   LIG    1        5.158   3.235  -2.888  0.00  0.00    -0.066 S 
ENDROOT
BRANCH   1  10
ATOM      8  C   LIG    1        1.788   1.971   1.178  0.00  0.00    +0.164 A 
ATOM      9  C   LIG    1        3.019   2.596   1.169  0.00  0.00    +0.057 A 
ATOM     10  C   LIG    1        3.767   2.645  -0.015  0.00  0.00    -0.019 A 
ATOM     11  C   LIG    1        3.263   2.055  -1.182  0.00  0.00    +0.032 A 
ATOM     12  C   LIG    1        2.035   1.430  -1.162  0.00  0.00    +0.087 A 
ATOM     13 CL   LIG    1        1.411   0.701  -2.608  0.00  0.00    -0.080 Cl
ATOM     14  C   LIG    1        1.295   1.382   0.014  0.00  0.00    +0.177 A 
BRANCH  14  15
ATOM     15  O   LIG    1        0.086   0.765   0.028  0.00  0.00    -0.502 OA
ATOM     16  H   LIG    1        0.127  -0.176   0.247  0.00  0.00    +0.292 HD
ENDBRANCH  14  15
BRANCH   8  17
ATOM     17  O   LIG    1        1.057   1.926   2.324  0.00  0.00    -0.489 OA
BRANCH  17  19
ATOM     18  C   LIG    1        0.664   2.398   4.661  0.00  0.00    +0.048 C 
ATOM     19  C   LIG    1        1.623   2.550   3.479  0.00  0.00    +0.226 C 
ENDBRANCH  17  19
ENDBRANCH   8  17
ENDBRANCH   1  10
BRANCH   5  20
ATOM     20  C   LIG    1        6.911   3.804  -5.178  0.00  0.00    +0.005 A 
ATOM     21  C   LIG    1        5.929   3.397  -6.084  0.00  0.00    +0.010 A 
ATOM     22  C   LIG    1        6.182   3.447  -7.439  0.00  0.00    +0.004 A 
ATOM     23  C   LIG    1        7.410   3.888  -7.901  0.00  0.00    -0.050 A 
ATOM     24  C   LIG    1        7.682   3.934  -9.383  0.00  0.00    +0.044 C 
ATOM     25  C   LIG    1        8.389   4.287  -7.009  0.00  0.00    +0.004 A 
ATOM     26  C   LIG    1        8.148   4.248  -5.651  0.00  0.00    +0.010 A 
ENDBRANCH   5  20
TORSDOF 5
