REMARK  Name = ZINC09227024
REMARK                            x       y       z     vdW  Elec       q    Type
REMARK                         _______ _______ _______ _____ _____    ______ ____
ROOT
ATOM      1  C   LIG    1       -1.136  -2.172   0.001  0.00  0.00    +0.126 A 
ATOM      2  C   LIG    1       -2.336  -2.877   0.003  0.00  0.00    +0.043 A 
ATOM      3  C   LIG    1       -2.294  -4.268  -0.005  0.00  0.00    +0.011 A 
ATOM      4  C   LIG    1       -3.310  -5.332  -0.005  0.00  0.00    +0.008 A 
ATOM      5  C   LIG    1       -4.703  -5.331   0.001  0.00  0.00    +0.010 A 
ATOM      6  C   LIG    1       -5.389  -6.526  -0.003  0.00  0.00    +0.001 A 
ATOM      7  C   LIG    1       -4.697  -7.729  -0.013  0.00  0.00    +0.002 A 
ATOM      8  C   LIG    1       -3.320  -7.744  -0.019  0.00  0.00    +0.026 A 
ATOM      9  C   LIG    1       -2.608  -6.548  -0.015  0.00  0.00    +0.048 A 
ATOM     10  N   LIG    1       -1.254  -6.271  -0.020  0.00  0.00    -0.353 N 
ATOM     11  H   LIG    1       -0.552  -6.940  -0.027  0.00  0.00    +0.166 HD
ATOM     12  C   LIG    1       -1.042  -4.910  -0.014  0.00  0.00    +0.066 A 
ATOM     13  C   LIG    1        0.111  -4.124  -0.016  0.00  0.00    +0.137 A 
ATOM     14  N   LIG    1        0.030  -2.814  -0.013  0.00  0.00    -0.248 NA
ENDROOT
BRANCH   1  18
ATOM     15  C   LIG    1       -0.018   1.461   0.010  0.00  0.00    +0.128 C 
ATOM     16  N   LIG    1        0.002  -0.004   0.002  0.00  0.00    -0.313 N 
ATOM     17  H   LIG    1        0.849  -0.478  -0.009  0.00  0.00    +0.149 HD
ATOM     18  C   LIG    1       -1.156  -0.694   0.009  0.00  0.00    +0.262 C 
ATOM     19  O   LIG    1       -2.217  -0.100   0.023  0.00  0.00    -0.269 OA
ENDBRANCH   1  18
TORSDOF 1
