REMARK  Name = ZINC12356108
REMARK                            x       y       z     vdW  Elec       q    Type
REMARK                         _______ _______ _______ _____ _____    ______ ____
ROOT
ATOM      1  C   LIG    1       -1.233  -4.975   1.120  0.00  0.00    +0.179 C 
ENDROOT
BRANCH   1   2
ATOM      2  C   LIG    1       -0.629  -6.334   1.362  0.00  0.00    -0.014 A 
ATOM      3  C   LIG    1        0.335  -6.825   0.502  0.00  0.00    +0.008 A 
ATOM      4  C   LIG    1        0.889  -8.072   0.724  0.00  0.00    +0.020 A 
ATOM      5  C   LIG    1        0.478  -8.828   1.807  0.00  0.00    +0.041 A 
ATOM      6 CL   LIG    1        1.173 -10.394   2.086  0.00  0.00    -0.084 Cl
ATOM      7  C   LIG    1       -0.487  -8.336   2.668  0.00  0.00    +0.020 A 
ATOM      8  C   LIG    1       -1.036  -7.087   2.448  0.00  0.00    +0.008 A 
ENDBRANCH   1   2
BRANCH   1   9
ATOM      9  C   LIG    1       -2.378  -5.100   0.148  0.00  0.00    -0.014 A 
ATOM     10  C   LIG    1       -2.126  -5.197  -1.208  0.00  0.00    +0.006 A 
ATOM     11  C   LIG    1       -3.176  -5.312  -2.099  0.00  0.00    +0.000 A 
ATOM     12  C   LIG    1       -4.478  -5.329  -1.635  0.00  0.00    +0.000 A 
ATOM     13  C   LIG    1       -4.730  -5.232  -0.280  0.00  0.00    +0.000 A 
ATOM     14  C   LIG    1       -3.679  -5.122   0.612  0.00  0.00    +0.006 A 
ENDBRANCH   1   9
BRANCH   1  15
ATOM     15  O   LIG    1       -0.240  -4.103   0.577  0.00  0.00    -0.364 OA
BRANCH  15  23
ATOM     16  C   LIG    1       -0.018   1.465   0.010  0.00  0.00    -0.095 C 
ATOM     17  N   LIG    1        0.002  -0.004   0.002  0.00  0.00    +0.382 N 
ATOM     18  H   LIG    1        0.429  -0.349  -0.845  0.00  0.00    -0.081 HD
ATOM     19  C   LIG    1       -1.374  -0.547   0.157  0.00  0.00    -0.066 C 
ATOM     20  C   LIG    1       -1.682  -0.375   1.663  0.00  0.00    -0.017 C 
ATOM     21  C   LIG    1       -0.301  -0.360   2.350  0.00  0.00    -0.017 C 
ATOM     22  C   LIG    1       -1.308  -2.051  -0.154  0.00  0.00    +0.016 C 
ATOM     23  C   LIG    1       -0.424  -2.727   0.918  0.00  0.00    +0.117 C 
ATOM     24  C   LIG    1        0.938  -2.030   0.977  0.00  0.00    +0.016 C 
ATOM     25  C   LIG    1        0.717  -0.525   1.198  0.00  0.00    -0.066 C 
ENDBRANCH  15  23
ENDBRANCH   1  15
TORSDOF 4
