REMARK  Name = ZINC08860500
REMARK                            x       y       z     vdW  Elec       q    Type
REMARK                         _______ _______ _______ _____ _____    ______ ____
ROOT
ATOM      1  C   LIG    1       -0.064   0.971   2.503  0.00  0.00    +0.125 C 
ENDROOT
BRANCH   1   2
ATOM      2  O   LIG    1       -0.146  -0.454   2.436  0.00  0.00    -0.389 OA
ATOM      3  H   LIG    1       -1.050  -0.794   2.402  0.00  0.00    +0.210 HD
ENDBRANCH   1   2
BRANCH   1   5
ATOM      4  C   LIG    1       -1.247   0.595   4.606  0.00  0.00    -0.029 C 
ATOM      5  C   LIG    1       -0.769   1.457   3.743  0.00  0.00    -0.002 C 
BRANCH   4   6
ATOM      6  C   LIG    1       -1.952   1.081   5.845  0.00  0.00    +0.027 C 
BRANCH   6   7
ATOM      7  C   LIG    1       -3.345   0.451   5.920  0.00  0.00    +0.004 C 
BRANCH   7   8
ATOM      8  C   LIG    1       -4.061   0.945   7.179  0.00  0.00    +0.000 C 
BRANCH   8   9
ATOM      9  C   LIG    1       -5.454   0.315   7.253  0.00  0.00    +0.000 C 
BRANCH   9  10
ATOM     10  C   LIG    1       -6.170   0.809   8.512  0.00  0.00    +0.000 C 
BRANCH  10  11
ATOM     11  C   LIG    1       -7.562   0.179   8.586  0.00  0.00    +0.000 C 
BRANCH  11  12
ATOM     12  C   LIG    1       -8.279   0.673   9.845  0.00  0.00    -0.000 C 
BRANCH  12  13
ATOM     13  C   LIG    1       -9.671   0.043   9.919  0.00  0.00    -0.000 C 
BRANCH  13  14
ATOM     14  C   LIG    1      -10.387   0.537  11.178  0.00  0.00    -0.000 C 
BRANCH  14  15
ATOM     15  C   LIG    1      -11.780  -0.093  11.252  0.00  0.00    -0.000 C 
BRANCH  15  16
ATOM     16  C   LIG    1      -12.496   0.401  12.511  0.00  0.00    -0.000 C 
BRANCH  16  18
ATOM     17  C   LIG    1      -14.605   0.265  13.844  0.00  0.00    +0.004 C 
ATOM     18  C   LIG    1      -13.889  -0.229  12.586  0.00  0.00    -0.003 C 
ENDBRANCH  16  18
ENDBRANCH  15  16
ENDBRANCH  14  15
ENDBRANCH  13  14
ENDBRANCH  12  13
ENDBRANCH  11  12
ENDBRANCH  10  11
ENDBRANCH   9  10
ENDBRANCH   8   9
ENDBRANCH   7   8
ENDBRANCH   6   7
ENDBRANCH   4   6
ENDBRANCH   1   5
BRANCH   1  19
ATOM     19  C   LIG    1       -0.729   1.579   1.267  0.00  0.00    -0.015 C 
BRANCH  19  20
ATOM     20  N   LIG    1       -0.655   3.050   1.314  0.00  0.00    +0.383 N 
ATOM     21  H   LIG    1       -1.077   3.437   0.461  0.00  0.00    -0.089 HD
ATOM     22  H   LIG    1        0.317   3.350   1.369  0.00  0.00    -0.089 HD
ATOM     23  H   LIG    1       -1.165   3.400   2.124  0.00  0.00    -0.089 HD
ENDBRANCH  19  20
BRANCH  19  24
ATOM     24  C   LIG    1       -0.013   1.086   0.008  0.00  0.00    +0.159 C 
BRANCH  24  25
ATOM     25  O   LIG    1       -0.704   1.559  -1.150  0.00  0.00    -0.288 OA
BRANCH  25  26
ATOM     26  P   LIG    1       -0.227   1.230  -2.652  0.00  0.00    +0.472 P 
ATOM     27  O   LIG    1       -0.112  -0.236  -2.822  0.00  0.00    -0.228 OA
BRANCH  26  28
ATOM     28  O   LIG    1       -1.306   1.809  -3.697  0.00  0.00    -0.303 OA
ATOM     29  H   LIG    1       -2.168   1.396  -3.534  0.00  0.00    +0.222 HD
ENDBRANCH  26  28
BRANCH  26  30
ATOM     30  O   LIG    1        1.205   1.915  -2.923  0.00  0.00    -0.303 OA
ATOM     31  H   LIG    1        1.855   1.566  -2.293  0.00  0.00    +0.222 HD
ENDBRANCH  26  30
ENDBRANCH  25  26
ENDBRANCH  24  25
ENDBRANCH  19  24
ENDBRANCH   1  19
TORSDOF 21
