REMARK  Name = ZINC09659749
REMARK                            x       y       z     vdW  Elec       q    Type
REMARK                         _______ _______ _______ _____ _____    ______ ____
ROOT
ATOM      1  N   LIG    1        3.999  -0.560  -0.039  0.00  0.00    -0.155 N 
ATOM      2  C   LIG    1        4.760   0.553  -0.040  0.00  0.00    +0.292 C 
ATOM      3  C   LIG    1        3.824   1.689  -0.025  0.00  0.00    +0.173 C 
ATOM      4  C   LIG    1        2.480   1.072  -0.016  0.00  0.00    +0.122 C 
ATOM      5  N   LIG    1        4.119   2.974  -0.021  0.00  0.00    -0.175 NA
ATOM      6  O   LIG    1        5.977   0.608  -0.052  0.00  0.00    -0.266 OA
ATOM      7  N   LIG    1        2.647  -0.224  -0.019  0.00  0.00    -0.170 NA
ENDROOT
BRANCH   1  11
ATOM      8  C   LIG    1        5.482  -4.455  -0.074  0.00  0.00    +0.000 A 
ATOM      9  C   LIG    1        4.116  -4.236  -0.060  0.00  0.00    +0.002 A 
ATOM     10  C   LIG    1        3.622  -2.947  -0.048  0.00  0.00    +0.025 A 
ATOM     11  C   LIG    1        4.497  -1.869  -0.051  0.00  0.00    +0.060 A 
ATOM     12  C   LIG    1        5.868  -2.091  -0.071  0.00  0.00    +0.025 A 
ATOM     13  C   LIG    1        6.356  -3.383  -0.076  0.00  0.00    +0.002 A 
ENDBRANCH   1  11
BRANCH   4  14
ATOM     14  C   LIG    1        1.185   1.791   0.000  0.00  0.00    +0.004 A 
ATOM     15  C   LIG    1       -0.013   1.076   0.008  0.00  0.00    +0.012 A 
ATOM     16  C   LIG    1       -1.216   1.751   0.017  0.00  0.00    +0.033 A 
ATOM     17  C   LIG    1       -1.236   3.134   0.029  0.00  0.00    +0.122 A 
ATOM     18  C   LIG    1       -0.052   3.849   0.022  0.00  0.00    +0.033 A 
ATOM     19  C   LIG    1        1.158   3.185   0.008  0.00  0.00    +0.012 A 
BRANCH  17  20
ATOM     20  N   LIG    1       -2.531   3.852   0.045  0.00  0.00    +0.006 N 
ATOM     21  O   LIG    1       -2.551   5.070   0.052  0.00  0.00    -0.130 OA
BRANCH  20  22
ATOM     22  O   LIG    1       -3.575   3.225   0.051  0.00  0.00    -0.396 OA
ATOM     23  H   LIG    1       -3.559   2.288   0.046  0.00  0.00    +0.329 HD
ENDBRANCH  20  22
ENDBRANCH  17  20
ENDBRANCH   4  14
BRANCH   5  24
ATOM     24  N   LIG    1        5.352   3.353  -0.031  0.00  0.00    -0.237 N 
ATOM     25  H   LIG    1        6.062   2.692  -0.041  0.00  0.00    +0.174 HD
BRANCH  24  26
ATOM     26  C   LIG    1        5.664   4.712  -0.027  0.00  0.00    +0.048 A 
ATOM     27  C   LIG    1        4.648   5.661  -0.018  0.00  0.00    +0.026 A 
ATOM     28  C   LIG    1        4.961   7.005  -0.009  0.00  0.00    +0.031 A 
ATOM     29  C   LIG    1        6.284   7.409  -0.019  0.00  0.00    +0.117 A 
ATOM     30  C   LIG    1        7.298   6.469  -0.033  0.00  0.00    +0.031 A 
ATOM     31  C   LIG    1        6.992   5.122  -0.037  0.00  0.00    +0.026 A 
BRANCH  29  32
ATOM     32  S   LIG    1        6.678   9.127  -0.013  0.00  0.00    +0.110 S 
ATOM     33  O   LIG    1        7.988   9.241   0.526  0.00  0.00    -0.142 OA
ATOM     34  O   LIG    1        5.561   9.798   0.552  0.00  0.00    -0.142 OA
BRANCH  32  35
ATOM     35  O   LIG    1        6.765   9.573  -1.466  0.00  0.00    -0.250 OA
ATOM     36  H   LIG    1        5.888   9.511  -1.876  0.00  0.00    +0.245 HD
ENDBRANCH  32  35
ENDBRANCH  29  32
ENDBRANCH  24  26
ENDBRANCH   5  24
TORSDOF 8
