REMARK  Name = ZINC11616925
REMARK                            x       y       z     vdW  Elec       q    Type
REMARK                         _______ _______ _______ _____ _____    ______ ____
ROOT
ATOM      1  C   UNK A  0        1.050  -6.423   0.629  0.00  0.00    +0.032 C 
ENDROOT
BRANCH   1   2
ATOM      2  C   UNK A  0        1.030  -4.916   0.636  0.00  0.00    -0.043 A 
ATOM      3  C   UNK A  0        2.011  -4.217   1.318  0.00  0.00    +0.004 A 
ATOM      4  C   UNK A  0        1.998  -2.838   1.330  0.00  0.00    +0.013 A 
ATOM      5  C   UNK A  0        0.994  -2.147   0.651  0.00  0.00    +0.037 A 
ATOM      6  C   UNK A  0        0.005  -2.857  -0.031  0.00  0.00    +0.013 A 
ATOM      7  C   UNK A  0        0.032  -4.237  -0.039  0.00  0.00    +0.004 A 
BRANCH   5   8
ATOM      8  C   UNK A  0        0.974  -0.668   0.659  0.00  0.00    +0.245 C 
ATOM      9  N   GLU A  1        0.002  -0.004   0.002  0.00  0.00    -0.298 N 
ATOM     10  H   GLU A  1       -0.684  -0.496  -0.476  0.00  0.00    +0.150 HD
ATOM     11  O   UNK A  0        1.833  -0.052   1.258  0.00  0.00    -0.270 OA
BRANCH   9  12
ATOM     12  CA  GLU A  1       -0.018   1.461   0.010  0.00  0.00    +0.182 C 
BRANCH  12  13
ATOM     13  C   GLU A  1       -0.723   1.947   1.250  0.00  0.00    +0.325 C 
ATOM     14  O   GLU A  1       -1.164   1.151   2.045  0.00  0.00    -0.249 OA
BRANCH  13  15
ATOM     15  OXT GLU A  1       -0.862   3.264   1.471  0.00  0.00    -0.479 OA
ATOM     16  HXT GLU A  1       -0.520   3.880   0.854  0.00  0.00    +0.295 HD
ENDBRANCH  13  15
ENDBRANCH  12  13
BRANCH  12  17
ATOM     17  CB  GLU A  1       -0.758   1.968  -1.230  0.00  0.00    +0.045 C 
BRANCH  17  18
ATOM     18  CG  GLU A  1        0.026   1.580  -2.485  0.00  0.00    +0.123 C 
BRANCH  18  19
ATOM     19  CD  GLU A  1       -0.703   2.080  -3.706  0.00  0.00    +0.305 C 
ATOM     20  OE1 GLU A  1       -1.743   2.683  -3.584  0.00  0.00    -0.251 OA
BRANCH  19  21
ATOM     21  OE2 GLU A  1       -0.197   1.854  -4.929  0.00  0.00    -0.481 OA
ATOM     22  HE2 GLU A  1        0.609   1.386  -5.023  0.00  0.00    +0.295 HD
ENDBRANCH  19  21
ENDBRANCH  18  19
ENDBRANCH  17  18
ENDBRANCH  12  17
ENDBRANCH   9  12
ENDBRANCH   5   8
ENDBRANCH   1   2
BRANCH   1  23
ATOM     23  C   UNK A  0        1.168  -6.924  -0.811  0.00  0.00    +0.096 C 
BRANCH  23  25
ATOM     24  C   UNK A  0        3.505  -6.189  -1.812  0.00  0.00    +0.004 C 
ATOM     25  C   UNK A  0        2.468  -6.515  -1.368  0.00  0.00    -0.105 C 
ENDBRANCH  23  25
ENDBRANCH   1  23
BRANCH   1  26
ATOM     26  C   UNK A  0       -0.245  -6.952   1.249  0.00  0.00    +0.029 C 
BRANCH  26  27
ATOM     27  C   UNK A  0       -0.173  -8.454   1.355  0.00  0.00    +0.068 C 
ATOM     28  C   UNK A  0        0.447  -9.040   2.458  0.00  0.00    +0.101 C 
ATOM     29  N   UNK A  0        0.517 -10.349   2.575  0.00  0.00    -0.298 NA
ATOM     30  H   UNK A  0        0.046 -10.595   3.445  0.00  0.00    +0.123 HD
ATOM     31  C   UNK A  0       -0.003 -11.124   1.620  0.00  0.00    +0.144 C 
ATOM     32  N   UNK A  0        0.079 -12.494   1.747  0.00  0.00    -0.272 NA
ATOM     33  H   UNK A  0        0.524 -12.896   2.547  0.00  0.00    +0.126 HD
ATOM     34  C   UNK A  0       -0.473 -13.210   0.735  0.00  0.00    +0.194 C 
ATOM     35  N   UNK A  0       -1.073 -12.714  -0.343  0.00  0.00    -0.273 NA
ATOM     36  H   UNK A  0       -0.564 -13.077  -1.149  0.00  0.00    +0.126 HD
ATOM     37  C   UNK A  0       -1.186 -11.406  -0.527  0.00  0.00    +0.141 C 
ATOM     38  C   UNK A  0       -0.627 -10.524   0.498  0.00  0.00    +0.117 C 
ATOM     39  N   UNK A  0       -0.692  -9.199   0.402  0.00  0.00    -0.304 NA
ATOM     40  H   UNK A  0       -0.222  -8.942  -0.465  0.00  0.00    +0.123 HD
BRANCH  34  41
ATOM     41  N   UNK A  0       -0.390 -14.583   0.864  0.00  0.00    -0.303 NA
ATOM     42  H   UNK A  0       -0.763 -15.158   0.179  0.00  0.00    +0.121 HD
ATOM     43  H   UNK A  0        0.042 -14.972   1.641  0.00  0.00    +0.121 HD
ENDBRANCH  34  41
BRANCH  37  44
ATOM     44  N   UNK A  0       -1.808 -10.895  -1.645  0.00  0.00    -0.314 NA
ATOM     45  H   UNK A  0       -2.172 -11.496  -2.315  0.00  0.00    +0.120 HD
ATOM     46  H   UNK A  0       -1.881  -9.935  -1.763  0.00  0.00    +0.120 HD
ENDBRANCH  37  44
ENDBRANCH  26  27
ENDBRANCH   1  26
TORSDOF 15
