REMARK  Name = ZINC08582290
REMARK                            x       y       z     vdW  Elec       q    Type
REMARK                         _______ _______ _______ _____ _____    ______ ____
ROOT
ATOM      1  C   LIG    1        3.695  -0.684  -0.038  0.00  0.00    +0.052 A 
ATOM      2  C   LIG    1        4.850   0.039  -0.041  0.00  0.00    +0.077 A 
ATOM      3  C   LIG    1        6.095  -0.625  -0.057  0.00  0.00    +0.192 A 
ATOM      4  O   LIG    1        7.142   0.002  -0.059  0.00  0.00    -0.287 OA
ATOM      5  C   LIG    1        6.091  -2.097  -0.070  0.00  0.00    +0.064 A 
ATOM      6  C   LIG    1        7.280  -2.829  -0.086  0.00  0.00    +0.018 A 
ATOM      7  C   LIG    1        7.193  -4.208  -0.097  0.00  0.00    +0.041 A 
ATOM      8  C   LIG    1        5.943  -4.812  -0.093  0.00  0.00    +0.132 A 
ATOM      9 CL   LIG    1        5.838  -6.545  -0.107  0.00  0.00    -0.062 Cl
ATOM     10  N   LIG    1        4.834  -4.101  -0.079  0.00  0.00    -0.218 NA
ATOM     11  C   LIG    1        4.858  -2.774  -0.067  0.00  0.00    +0.144 A 
ATOM     12  N   LIG    1        3.690  -2.049  -0.046  0.00  0.00    -0.339 N 
ATOM     13  H   LIG    1        2.842  -2.519  -0.039  0.00  0.00    +0.167 HD
ENDROOT
BRANCH   1  17
ATOM     14  C   LIG    1       -0.017   1.379   0.010  0.00  0.00    +0.000 A 
ATOM     15  C   LIG    1        1.168   2.094   0.002  0.00  0.00    +0.001 A 
ATOM     16  C   LIG    1        2.377   1.430  -0.013  0.00  0.00    +0.010 A 
ATOM     17  C   LIG    1        2.404   0.034  -0.021  0.00  0.00    -0.002 A 
ATOM     18  C   LIG    1        1.204  -0.681  -0.013  0.00  0.00    +0.010 A 
ATOM     19  C   LIG    1        0.002  -0.004   0.002  0.00  0.00    +0.001 A 
ENDBRANCH   1  17
TORSDOF 1
