REMARK  Name = ZINC12354940
REMARK                            x       y       z     vdW  Elec       q    Type
REMARK                         _______ _______ _______ _____ _____    ______ ____
ROOT
ATOM      1  C   LIG    1       -0.017   1.373   0.010  0.00  0.00    +0.001 A 
ATOM      2  C   LIG    1        1.171   2.089   0.002  0.00  0.00    +0.002 A 
ATOM      3  C   LIG    1        2.384   1.434  -0.013  0.00  0.00    +0.026 A 
ATOM      4  C   LIG    1        2.425   0.043  -0.021  0.00  0.00    +0.048 A 
ATOM      5  C   LIG    1        1.222  -0.680  -0.013  0.00  0.00    +0.008 A 
ATOM      6  C   LIG    1        1.590  -2.105  -0.024  0.00  0.00    +0.022 A 
ATOM      7  C   LIG    1        0.845  -3.291  -0.024  0.00  0.00    +0.062 A 
ATOM      8  C   LIG    1        1.505  -4.533  -0.037  0.00  0.00    +0.062 A 
ATOM      9  C   LIG    1        0.444  -5.556  -0.032  0.00  0.00    +0.260 A 
ATOM     10  N   LIG    1       -0.750  -4.935  -0.017  0.00  0.00    -0.289 N 
ATOM     11  H   LIG    1       -1.606  -5.391  -0.011  0.00  0.00    +0.172 HD
ATOM     12  O   LIG    1        0.618  -6.758  -0.040  0.00  0.00    -0.267 OA
ATOM     13  C   LIG    1        2.905  -4.579  -0.051  0.00  0.00    +0.022 A 
ATOM     14  C   LIG    1        3.880  -5.682  -0.067  0.00  0.00    +0.008 A 
ATOM     15  C   LIG    1        3.758  -7.071  -0.074  0.00  0.00    +0.010 A 
ATOM     16  C   LIG    1        4.889  -7.857  -0.090  0.00  0.00    +0.001 A 
ATOM     17  C   LIG    1        6.147  -7.272  -0.100  0.00  0.00    +0.002 A 
ATOM     18  C   LIG    1        6.283  -5.901  -0.093  0.00  0.00    +0.026 A 
ATOM     19  C   LIG    1        5.152  -5.089  -0.076  0.00  0.00    +0.048 A 
ATOM     20  N   LIG    1        4.993  -3.716  -0.067  0.00  0.00    -0.352 N 
ATOM     21  H   LIG    1        5.720  -3.073  -0.070  0.00  0.00    +0.166 HD
ATOM     22  C   LIG    1        3.651  -3.389  -0.051  0.00  0.00    +0.073 A 
ATOM     23  C   LIG    1       -0.596  -3.599  -0.011  0.00  0.00    +0.260 A 
ATOM     24  O   LIG    1       -1.496  -2.782   0.002  0.00  0.00    -0.267 OA
ATOM     25  C   LIG    1        2.993  -2.152  -0.038  0.00  0.00    +0.073 A 
ATOM     26  N   LIG    1        3.474  -0.857  -0.036  0.00  0.00    -0.352 N 
ATOM     27  H   LIG    1        4.412  -0.614  -0.043  0.00  0.00    +0.166 HD
ATOM     28  C   LIG    1        0.002  -0.004   0.002  0.00  0.00    +0.010 A 
ENDROOT
TORSDOF 0
