REMARK  Name = ZINC12503187
REMARK                            x       y       z     vdW  Elec       q    Type
REMARK                         _______ _______ _______ _____ _____    ______ ____
ROOT
ATOM      1  C   LIG    1        2.892  -4.836   1.892  0.00  0.00    +0.037 A 
ATOM      2  C   LIG    1        2.270  -5.212   3.086  0.00  0.00    +0.015 A 
ATOM      3  C   LIG    1        2.934  -5.063   4.282  0.00  0.00    +0.024 A 
ATOM      4  C   LIG    1        4.223  -4.540   4.304  0.00  0.00    +0.034 A 
ATOM      5  C   LIG    1        4.846  -4.165   3.117  0.00  0.00    +0.024 A 
ATOM      6  C   LIG    1        4.189  -4.317   1.917  0.00  0.00    +0.015 A 
ENDROOT
BRANCH   1  19
ATOM      7  C   LIG    1        7.153  -5.899  -2.806  0.00  0.00    +0.084 C 
ATOM      8  C   LIG    1        5.966  -5.046  -2.437  0.00  0.00    +0.082 A 
ATOM      9  N   LIG    1        4.765  -5.060  -3.063  0.00  0.00    -0.347 N 
ATOM     10  C   LIG    1        3.974  -4.151  -2.437  0.00  0.00    +0.043 A 
ATOM     11  C   LIG    1        4.719  -3.611  -1.426  0.00  0.00    +0.069 A 
ATOM     12  C   LIG    1        4.167  -2.592  -0.502  0.00  0.00    +0.021 A 
ATOM     13  C   LIG    1        4.867  -1.453  -0.144  0.00  0.00    +0.012 A 
ATOM     14  C   LIG    1        4.281  -0.531   0.705  0.00  0.00    +0.001 A 
ATOM     15  C   LIG    1        3.002  -0.743   1.190  0.00  0.00    +0.002 A 
ATOM     16  C   LIG    1        2.299  -1.883   0.845  0.00  0.00    +0.024 A 
ATOM     17  C   LIG    1        2.876  -2.820   0.008  0.00  0.00    +0.046 A 
ATOM     18  N   LIG    1        2.237  -4.015  -0.317  0.00  0.00    -0.266 N 
ATOM     19  C   LIG    1        2.183  -4.994   0.607  0.00  0.00    +0.251 C 
ATOM     20  O   LIG    1        1.550  -6.008   0.383  0.00  0.00    -0.270 OA
ATOM     21  C   LIG    1        1.622  -4.247  -1.628  0.00  0.00    +0.120 C 
ATOM     22  C   LIG    1        2.556  -3.749  -2.738  0.00  0.00    +0.074 C 
ATOM     23  H   LIG    1        4.515  -5.615  -3.818  0.00  0.00    +0.167 HD
ATOM     24  N   LIG    1        5.929  -4.180  -1.459  0.00  0.00    -0.343 N 
ATOM     25  H   LIG    1        6.662  -3.980  -0.855  0.00  0.00    +0.167 HD
ENDBRANCH   1  19
BRANCH   4  26
ATOM     26  N   LIG    1        4.893  -4.391   5.517  0.00  0.00    -0.281 N 
ATOM     27  H   LIG    1        5.857  -4.487   5.554  0.00  0.00    +0.155 HD
ATOM     28  C   LIG    1        4.200  -4.113   6.639  0.00  0.00    +0.249 C 
ATOM     29  O   LIG    1        3.005  -3.899   6.579  0.00  0.00    -0.270 OA
BRANCH  28  30
ATOM     30  C   LIG    1        4.893  -4.069   7.942  0.00  0.00    +0.045 A 
ATOM     31  C   LIG    1        6.036  -4.839   8.156  0.00  0.00    +0.013 A 
ATOM     32  C   LIG    1        6.679  -4.794   9.375  0.00  0.00    +0.001 A 
ATOM     33  C   LIG    1        6.197  -3.986  10.393  0.00  0.00    +0.001 A 
ATOM     34  C   LIG    1        5.067  -3.217  10.199  0.00  0.00    +0.009 A 
ATOM     35  C   LIG    1        4.408  -3.245   8.974  0.00  0.00    -0.006 A 
BRANCH  35  36
ATOM     36  C   LIG    1        3.199  -2.416   8.759  0.00  0.00    -0.017 A 
ATOM     37  C   LIG    1        3.149  -1.512   7.699  0.00  0.00    +0.008 A 
ATOM     38  C   LIG    1        2.020  -0.742   7.504  0.00  0.00    +0.001 A 
ATOM     39  C   LIG    1        0.939  -0.866   8.359  0.00  0.00    +0.000 A 
ATOM     40  C   LIG    1        0.983  -1.761   9.413  0.00  0.00    +0.001 A 
ATOM     41  C   LIG    1        2.104  -2.540   9.614  0.00  0.00    +0.008 A 
ENDBRANCH  35  36
ENDBRANCH  28  30
ENDBRANCH   4  26
TORSDOF 4
