REMARK  Name = ZINC12504292
REMARK                            x       y       z     vdW  Elec       q    Type
REMARK                         _______ _______ _______ _____ _____    ______ ____
ROOT
ATOM      1  C   UNK A  0        1.922   1.367  -8.162  0.00  0.00    +0.004 A 
ATOM      2  C   UNK A  0        1.437   0.914  -9.372  0.00  0.00    +0.013 A 
ATOM      3  C   UNK A  0        0.218   1.392  -9.854  0.00  0.00    +0.037 A 
ATOM      4  C   UNK A  0       -0.505   2.323  -9.107  0.00  0.00    +0.013 A 
ATOM      5  C   UNK A  0       -0.012   2.764  -7.896  0.00  0.00    +0.004 A 
ATOM      6  C   UNK A  0        1.197   2.286  -7.423  0.00  0.00    -0.047 A 
ENDROOT
BRANCH   3   7
ATOM      7  C   UNK A  0       -0.305   0.916 -11.153  0.00  0.00    +0.245 C 
ATOM      8  N   GLU A  1        0.396   0.017 -11.873  0.00  0.00    -0.298 N 
ATOM      9  H   GLU A  1        1.357  -0.361 -11.494  0.00  0.00    +0.150 HD
ATOM     10  O   UNK A  0       -1.367   1.334 -11.571  0.00  0.00    -0.270 OA
BRANCH   8  11
ATOM     11  CA  GLU A  1       -0.122  -0.455 -13.159  0.00  0.00    +0.182 C 
BRANCH  11  12
ATOM     12  C   GLU A  1       -1.074  -1.599 -12.928  0.00  0.00    +0.325 C 
ATOM     13  O   GLU A  1       -1.298  -1.982 -11.803  0.00  0.00    -0.249 OA
BRANCH  12  14
ATOM     14  OXT GLU A  1       -1.675  -2.195 -13.970  0.00  0.00    -0.479 OA
ATOM     15  HXT GLU A  1       -1.502  -1.898 -14.842  0.00  0.00    +0.295 HD
ENDBRANCH  12  14
ENDBRANCH  11  12
BRANCH  11  16
ATOM     16  CB  GLU A  1        1.041  -0.928 -14.034  0.00  0.00    +0.045 C 
BRANCH  16  17
ATOM     17  CG  GLU A  1        1.941   0.262 -14.373  0.00  0.00    +0.123 C 
BRANCH  17  18
ATOM     18  CD  GLU A  1        3.086  -0.204 -15.235  0.00  0.00    +0.305 C 
ATOM     19  OE1 GLU A  1        3.173  -1.368 -15.546  0.00  0.00    -0.251 OA
BRANCH  18  20
ATOM     20  OE2 GLU A  1        4.010   0.674 -15.656  0.00  0.00    -0.481 OA
ATOM     21  HE2 GLU A  1        3.942   1.577 -15.414  0.00  0.00    +0.295 HD
ENDBRANCH  18  20
ENDBRANCH  17  18
ENDBRANCH  16  17
ENDBRANCH  11  16
ENDBRANCH   8  11
ENDBRANCH   3   7
BRANCH   6  22
ATOM     22  C   UNK A  0        1.730   2.772  -6.100  0.00  0.00    +0.035 C 
BRANCH  22  23
ATOM     23  C   UNK A  0        1.223   1.861  -4.980  0.00  0.00    +0.010 C 
BRANCH  23  24
ATOM     24  C   UNK A  0        1.764   2.355  -3.637  0.00  0.00    +0.011 C 
ATOM     25  C   UNK A  0        1.160   1.523  -2.504  0.00  0.00    +0.049 C 
ATOM     26  C   UNK A  0        1.848   1.833  -1.204  0.00  0.00    +0.057 A 
ATOM     27  C   UNK A  0        3.107   2.415  -1.165  0.00  0.00    +0.131 A 
ATOM     28  N   UNK A  0        3.778   2.742  -2.334  0.00  0.00    -0.328 N 
ATOM     29  H   UNK A  0        4.660   3.398  -2.318  0.00  0.00    +0.147 HD
ATOM     30  N   UNK A  0        3.674   2.663   0.014  0.00  0.00    -0.201 NA
ATOM     31  C   UNK A  0        3.046   2.361   1.141  0.00  0.00    +0.195 A 
ATOM     32  N   UNK A  0        1.840   1.812   1.140  0.00  0.00    -0.295 N 
ATOM     33  H   UNK A  0        1.339   1.583   2.093  0.00  0.00    +0.172 HD
ATOM     34  C   UNK A  0        1.220   1.531  -0.001  0.00  0.00    +0.258 A 
ATOM     35  O   UNK A  0       -0.011   0.963   0.007  0.00  0.00    -0.267 OA
ATOM     36  C   UNK A  0        3.290   2.197  -3.608  0.00  0.00    +0.106 C 
BRANCH  31  37
ATOM     37  N   UNK A  0        3.663   2.632   2.350  0.00  0.00    -0.329 N 
ATOM     38  H   UNK A  0        4.662   3.091   2.367  0.00  0.00    +0.145 HD
ATOM     39  H   UNK A  0        3.154   2.387   3.294  0.00  0.00    +0.145 HD
ENDBRANCH  31  37
ENDBRANCH  23  24
ENDBRANCH  22  23
ENDBRANCH   6  22
TORSDOF 12
