REMARK  Name = ZINC08585017
REMARK                            x       y       z     vdW  Elec       q    Type
REMARK                         _______ _______ _______ _____ _____    ______ ____
ROOT
ATOM      1  C   LIG    1        0.233   1.384   0.657  0.00  0.00    +0.003 A 
ATOM      2  C   LIG    1        1.345   2.103   0.335  0.00  0.00    +0.011 A 
ATOM      3  C   LIG    1        2.529   1.434  -0.010  0.00  0.00    +0.012 A 
ATOM      4  C   LIG    1        2.551   0.018  -0.020  0.00  0.00    +0.041 A 
ATOM      5  C   LIG    1        3.737  -0.655  -0.367  0.00  0.00    +0.133 A 
ATOM      6  C   LIG    1        4.851   0.050  -0.690  0.00  0.00    +0.061 A 
ATOM      7  C   LIG    1        4.850   1.452  -0.686  0.00  0.00    +0.069 A 
ATOM      8  N   LIG    1        6.014   2.135  -1.024  0.00  0.00    -0.316 N 
ATOM      9  H   LIG    1        6.815   1.640  -1.258  0.00  0.00    +0.169 HD
ATOM     10  C   LIG    1        6.033   3.483  -1.027  0.00  0.00    +0.314 A 
ATOM     11  O   LIG    1        7.048   4.083  -1.321  0.00  0.00    -0.262 OA
ATOM     12  C   LIG    1        4.795   4.228  -0.665  0.00  0.00    +0.314 A 
ATOM     13  O   LIG    1        4.786   5.443  -0.659  0.00  0.00    -0.262 OA
ATOM     14  N   LIG    1        3.683   3.536  -0.342  0.00  0.00    -0.316 N 
ATOM     15  H   LIG    1        2.871   4.009  -0.104  0.00  0.00    +0.169 HD
ATOM     16  C   LIG    1        1.386  -0.690   0.318  0.00  0.00    +0.115 A 
ATOM     17  C   LIG    1        3.699   2.149  -0.350  0.00  0.00    +0.074 A 
ATOM     18  C   LIG    1        0.254  -0.008   0.648  0.00  0.00    +0.029 A 
ENDROOT
BRANCH  16  19
ATOM     19  S   LIG    1        1.388  -2.452   0.313  0.00  0.00    +0.057 S 
ATOM     20  O   LIG    1        2.474  -2.859   1.135  0.00  0.00    -0.153 OA
ATOM     21  O   LIG    1        1.267  -2.855  -1.044  0.00  0.00    -0.153 OA
BRANCH  19  22
ATOM     22  N   LIG    1        0.005  -2.946   1.078  0.00  0.00    -0.203 NA
ATOM     23  H   LIG    1       -0.182  -3.892   1.180  0.00  0.00    +0.144 HD
ATOM     24  H   LIG    1       -0.619  -2.288   1.425  0.00  0.00    +0.144 HD
ENDBRANCH  19  22
ENDBRANCH  16  19
BRANCH   5  25
ATOM     25  N   LIG    1        3.770  -2.135  -0.380  0.00  0.00    +0.007 N 
ATOM     26  O   LIG    1        4.350  -2.735   0.496  0.00  0.00    -0.130 OA
BRANCH  25  27
ATOM     27  O   LIG    1        3.217  -2.745  -1.265  0.00  0.00    -0.396 OA
ATOM     28  H   LIG    1        2.767  -2.280  -1.943  0.00  0.00    +0.329 HD
ENDBRANCH  25  27
ENDBRANCH   5  25
TORSDOF 4
