REMARK  Name = ZINC12372437
REMARK                            x       y       z     vdW  Elec       q    Type
REMARK                         _______ _______ _______ _____ _____    ______ ____
ROOT
ATOM      1  C   LIG    1       -0.018   1.503   0.010  0.00  0.00    +0.047 C 
ATOM      2  C   LIG    1        0.002  -0.004   0.002  0.00  0.00    -0.008 A 
ATOM      3  C   LIG    1        0.006  -0.688  -1.196  0.00  0.00    +0.046 A 
ATOM      4 CL   LIG    1       -0.014   0.197  -2.690  0.00  0.00    -0.083 Cl
ATOM      5  C   LIG    1        0.024  -2.076  -1.220  0.00  0.00    +0.021 A 
ATOM      6  C   LIG    1        0.039  -2.791  -0.043  0.00  0.00    +0.015 A 
ATOM      7  C   LIG    1        0.036  -2.112   1.176  0.00  0.00    +0.046 A 
ATOM      8  C   LIG    1        0.051  -2.844   2.456  0.00  0.00    +0.203 A 
ATOM      9  O   LIG    1        0.067  -4.062   2.491  0.00  0.00    -0.286 OA
ATOM     10  C   LIG    1        0.064  -2.040   3.690  0.00  0.00    +0.122 A 
ATOM     11  C   LIG    1        0.044  -0.662   3.588  0.00  0.00    +0.101 A 
ATOM     12  N   LIG    1        0.025  -0.034   2.407  0.00  0.00    -0.359 N 
ATOM     13  H   LIG    1        0.011   0.936   2.396  0.00  0.00    +0.165 HD
ATOM     14  C   LIG    1        0.023  -0.707   1.203  0.00  0.00    +0.054 A 
ENDROOT
BRANCH  10  15
ATOM     15  C   LIG    1        0.085  -2.691   5.004  0.00  0.00    +0.342 C 
ATOM     16  O   LIG    1        0.086  -2.013   6.023  0.00  0.00    -0.245 OA
BRANCH  15  17
ATOM     17  O   LIG    1        0.102  -3.912   5.082  0.00  0.00    -0.477 OA
ATOM     18  H   LIG    1        0.102  -4.431   4.302  0.00  0.00    +0.295 HD
ENDBRANCH  15  17
ENDBRANCH  10  15
TORSDOF 2
