REMARK  Name = ZINC08764182
REMARK                            x       y       z     vdW  Elec       q    Type
REMARK                         _______ _______ _______ _____ _____    ______ ____
ROOT
ATOM      1  C   LIG    1        3.698  -0.688  -0.038  0.00  0.00    +0.015 A 
ATOM      2  C   LIG    1        4.742  -0.464  -0.877  0.00  0.00    +0.102 A 
ATOM      3  N   LIG    1        5.758  -1.331  -0.581  0.00  0.00    -0.300 N 
ATOM      4  C   LIG    1        5.402  -2.143   0.460  0.00  0.00    +0.153 A 
ATOM      5  N   LIG    1        6.026  -3.136   1.114  0.00  0.00    -0.219 NA
ATOM      6  C   LIG    1        5.455  -3.758   2.106  0.00  0.00    +0.201 A 
ATOM      7  N   LIG    1        4.202  -3.454   2.529  0.00  0.00    -0.313 N 
ATOM      8  H   LIG    1        3.809  -3.943   3.269  0.00  0.00    +0.170 HD
ATOM      9  C   LIG    1        3.499  -2.469   1.924  0.00  0.00    +0.261 A 
ATOM     10  O   LIG    1        2.373  -2.184   2.293  0.00  0.00    -0.267 OA
ATOM     11  C   LIG    1        4.108  -1.780   0.852  0.00  0.00    +0.091 A 
ENDROOT
BRANCH   1  15
ATOM     12  C   LIG    1       -0.017   1.379   0.010  0.00  0.00    +0.000 A 
ATOM     13  C   LIG    1        1.169   2.092   0.002  0.00  0.00    +0.001 A 
ATOM     14  C   LIG    1        2.377   1.427  -0.013  0.00  0.00    +0.008 A 
ATOM     15  C   LIG    1        2.403   0.033  -0.021  0.00  0.00    -0.016 A 
ATOM     16  C   LIG    1        1.205  -0.680  -0.013  0.00  0.00    +0.008 A 
ATOM     17  C   LIG    1        0.002  -0.004   0.002  0.00  0.00    +0.001 A 
ENDBRANCH   1  15
BRANCH   3  18
ATOM     18  C   LIG    1        6.989  -1.380  -1.248  0.00  0.00    +0.048 A 
ATOM     19  C   LIG    1        8.174  -1.378  -0.525  0.00  0.00    +0.026 A 
ATOM     20  C   LIG    1        9.385  -1.426  -1.186  0.00  0.00    +0.002 A 
ATOM     21  C   LIG    1        9.419  -1.476  -2.567  0.00  0.00    +0.000 A 
ATOM     22  C   LIG    1        8.241  -1.479  -3.291  0.00  0.00    +0.002 A 
ATOM     23  C   LIG    1        7.026  -1.437  -2.635  0.00  0.00    +0.026 A 
ENDBRANCH   3  18
TORSDOF 2
