MODEL 1
REMARK VINA RESULT:      -5.9      0.000      0.000
REMARK  Name = ZINC00000010
REMARK                            x       y       z     vdW  Elec       q    Type
REMARK                         _______ _______ _______ _____ _____    ______ ____
ROOT
ATOM      1  C   LIG    1       25.019  29.566  55.580  0.00  0.00    +0.070 C 
ATOM      2  C   LIG    1       24.759  31.024  55.963  0.00  0.00    +0.194 C 
ATOM      3  C   LIG    1       24.281  31.115  57.398  0.00  0.00    +0.207 C 
ATOM      4  C   LIG    1       22.985  31.691  57.312  0.00  0.00    +0.103 C 
ATOM      5  C   LIG    1       22.689  31.928  56.019  0.00  0.00    +0.209 C 
ATOM      6  O   LIG    1       24.873  30.772  58.400  0.00  0.00    -0.288 OA
ATOM      7  O   LIG    1       23.681  31.561  55.187  0.00  0.00    -0.466 OA
ENDROOT
BRANCH   2   8
ATOM      8  C   LIG    1       26.007  31.847  55.770  0.00  0.00    +0.003 A 
ATOM      9  C   LIG    1       25.975  33.212  55.984  0.00  0.00    +0.008 A 
ATOM     10  C   LIG    1       27.120  33.966  55.812  0.00  0.00    +0.000 A 
ATOM     11  C   LIG    1       28.297  33.356  55.417  0.00  0.00    +0.000 A 
ATOM     12  C   LIG    1       28.328  31.991  55.198  0.00  0.00    +0.000 A 
ATOM     13  C   LIG    1       27.183  31.237  55.375  0.00  0.00    +0.008 A 
ENDBRANCH   2   8
BRANCH   5  14
ATOM     14  C   LIG    1       21.412  32.527  55.563  0.00  0.00    +0.372 C 
ATOM     15  O   LIG    1       20.430  31.827  55.419  0.00  0.00    -0.242 OA
BRANCH  14  16
ATOM     16  O   LIG    1       21.340  33.848  55.310  0.00  0.00    -0.475 OA
ATOM     17  H   LIG    1       20.942  34.424  55.933  0.00  0.00    +0.296 HD
ENDBRANCH  14  16
ENDBRANCH   5  14
TORSDOF 3
ENDMDL
MODEL 2
REMARK VINA RESULT:      -5.6      1.778      2.512
REMARK  Name = ZINC00000010
REMARK                            x       y       z     vdW  Elec       q    Type
REMARK                         _______ _______ _______ _____ _____    ______ ____
ROOT
ATOM      1  C   LIG    1       24.838  31.021  57.847  0.00  0.00    +0.070 C 
ATOM      2  C   LIG    1       24.694  31.435  56.381  0.00  0.00    +0.194 C 
ATOM      3  C   LIG    1       23.468  32.305  56.195  0.00  0.00    +0.207 C 
ATOM      4  C   LIG    1       22.644  31.583  55.293  0.00  0.00    +0.103 C 
ATOM      5  C   LIG    1       23.255  30.429  54.958  0.00  0.00    +0.209 C 
ATOM      6  O   LIG    1       23.241  33.383  56.705  0.00  0.00    -0.288 OA
ATOM      7  O   LIG    1       24.451  30.286  55.559  0.00  0.00    -0.466 OA
ENDROOT
BRANCH   2   8
ATOM      8  C   LIG    1       25.932  32.160  55.918  0.00  0.00    +0.003 A 
ATOM      9  C   LIG    1       26.812  32.688  56.844  0.00  0.00    +0.008 A 
ATOM     10  C   LIG    1       27.948  33.349  56.419  0.00  0.00    +0.000 A 
ATOM     11  C   LIG    1       28.202  33.490  55.067  0.00  0.00    +0.000 A 
ATOM     12  C   LIG    1       27.319  32.967  54.140  0.00  0.00    +0.000 A 
ATOM     13  C   LIG    1       26.184  32.302  54.566  0.00  0.00    +0.008 A 
ENDBRANCH   2   8
BRANCH   5  14
ATOM     14  C   LIG    1       22.675  29.428  54.031  0.00  0.00    +0.372 C 
ATOM     15  O   LIG    1       23.373  28.543  53.580  0.00  0.00    -0.242 OA
BRANCH  14  16
ATOM     16  O   LIG    1       21.374  29.502  53.689  0.00  0.00    -0.475 OA
ATOM     17  H   LIG    1       21.022  28.907  53.057  0.00  0.00    +0.296 HD
ENDBRANCH  14  16
ENDBRANCH   5  14
TORSDOF 3
ENDMDL
MODEL 3
REMARK VINA RESULT:      -5.5      2.195      3.727
REMARK  Name = ZINC00000010
REMARK                            x       y       z     vdW  Elec       q    Type
REMARK                         _______ _______ _______ _____ _____    ______ ____
ROOT
ATOM      1  C   LIG    1       23.977  31.496  57.569  0.00  0.00    +0.070 C 
ATOM      2  C   LIG    1       24.536  30.973  56.245  0.00  0.00    +0.194 C 
ATOM      3  C   LIG    1       23.449  30.935  55.190  0.00  0.00    +0.207 C 
ATOM      4  C   LIG    1       23.345  29.567  54.825  0.00  0.00    +0.103 C 
ATOM      5  C   LIG    1       24.233  28.847  55.539  0.00  0.00    +0.209 C 
ATOM      6  O   LIG    1       22.808  31.869  54.754  0.00  0.00    -0.288 OA
ATOM      7  O   LIG    1       24.954  29.609  56.382  0.00  0.00    -0.466 OA
ENDROOT
BRANCH   2   8
ATOM      8  C   LIG    1       25.687  31.831  55.786  0.00  0.00    +0.003 A 
ATOM      9  C   LIG    1       25.976  31.937  54.438  0.00  0.00    +0.008 A 
ATOM     10  C   LIG    1       27.028  32.728  54.018  0.00  0.00    +0.000 A 
ATOM     11  C   LIG    1       27.798  33.407  54.944  0.00  0.00    +0.000 A 
ATOM     12  C   LIG    1       27.512  33.296  56.293  0.00  0.00    +0.000 A 
ATOM     13  C   LIG    1       26.456  32.508  56.713  0.00  0.00    +0.008 A 
ENDBRANCH   2   8
BRANCH   5  14
ATOM     14  C   LIG    1       24.396  27.379  55.411  0.00  0.00    +0.372 C 
ATOM     15  O   LIG    1       25.421  26.921  54.948  0.00  0.00    -0.242 OA
BRANCH  14  16
ATOM     16  O   LIG    1       23.408  26.555  55.809  0.00  0.00    -0.475 OA
ATOM     17  H   LIG    1       23.211  26.465  56.721  0.00  0.00    +0.296 HD
ENDBRANCH  14  16
ENDBRANCH   5  14
TORSDOF 3
ENDMDL
MODEL 4
REMARK VINA RESULT:      -5.3      1.633      1.981
REMARK  Name = ZINC00000010
REMARK                            x       y       z     vdW  Elec       q    Type
REMARK                         _______ _______ _______ _____ _____    ______ ____
ROOT
ATOM      1  C   LIG    1       23.923  31.067  53.971  0.00  0.00    +0.070 C 
ATOM      2  C   LIG    1       24.383  31.402  55.391  0.00  0.00    +0.194 C 
ATOM      3  C   LIG    1       24.440  30.146  56.237  0.00  0.00    +0.207 C 
ATOM      4  C   LIG    1       23.513  30.374  57.288  0.00  0.00    +0.103 C 
ATOM      5  C   LIG    1       22.952  31.590  57.132  0.00  0.00    +0.209 C 
ATOM      6  O   LIG    1       25.128  29.162  56.057  0.00  0.00    -0.288 OA
ATOM      7  O   LIG    1       23.418  32.235  56.046  0.00  0.00    -0.466 OA
ENDROOT
BRANCH   2   8
ATOM      8  C   LIG    1       25.728  32.079  55.361  0.00  0.00    +0.003 A 
ATOM      9  C   LIG    1       26.339  32.459  56.542  0.00  0.00    +0.008 A 
ATOM     10  C   LIG    1       27.574  33.076  56.514  0.00  0.00    +0.000 A 
ATOM     11  C   LIG    1       28.197  33.323  55.305  0.00  0.00    +0.000 A 
ATOM     12  C   LIG    1       27.585  32.948  54.123  0.00  0.00    +0.000 A 
ATOM     13  C   LIG    1       26.350  32.327  54.151  0.00  0.00    +0.008 A 
ENDBRANCH   2   8
BRANCH   5  14
ATOM     14  C   LIG    1       21.936  32.153  58.052  0.00  0.00    +0.372 C 
ATOM     15  O   LIG    1       20.887  32.576  57.612  0.00  0.00    -0.242 OA
BRANCH  14  16
ATOM     16  O   LIG    1       22.178  32.195  59.377  0.00  0.00    -0.475 OA
ATOM     17  H   LIG    1       23.050  32.331  59.690  0.00  0.00    +0.296 HD
ENDBRANCH  14  16
ENDBRANCH   5  14
TORSDOF 3
ENDMDL
MODEL 5
REMARK VINA RESULT:      -4.8      2.087      5.217
REMARK  Name = ZINC00000010
REMARK                            x       y       z     vdW  Elec       q    Type
REMARK                         _______ _______ _______ _____ _____    ______ ____
ROOT
ATOM      1  C   LIG    1       23.962  30.149  56.568  0.00  0.00    +0.070 C 
ATOM      2  C   LIG    1       24.092  31.561  55.992  0.00  0.00    +0.194 C 
ATOM      3  C   LIG    1       24.603  31.504  54.567  0.00  0.00    +0.207 C 
ATOM      4  C   LIG    1       25.834  32.211  54.594  0.00  0.00    +0.103 C 
ATOM      5  C   LIG    1       26.068  32.649  55.848  0.00  0.00    +0.209 C 
ATOM      6  O   LIG    1       24.076  30.972  53.611  0.00  0.00    -0.288 OA
ATOM      7  O   LIG    1       25.091  32.302  56.705  0.00  0.00    -0.466 OA
ENDROOT
BRANCH   2   8
ATOM      8  C   LIG    1       22.767  32.275  56.049  0.00  0.00    +0.003 A 
ATOM      9  C   LIG    1       21.672  31.755  55.384  0.00  0.00    +0.008 A 
ATOM     10  C   LIG    1       20.455  32.408  55.441  0.00  0.00    +0.000 A 
ATOM     11  C   LIG    1       20.334  33.585  56.155  0.00  0.00    +0.000 A 
ATOM     12  C   LIG    1       21.430  34.108  56.817  0.00  0.00    +0.000 A 
ATOM     13  C   LIG    1       22.646  33.452  56.763  0.00  0.00    +0.008 A 
ENDBRANCH   2   8
BRANCH   5  14
ATOM     14  C   LIG    1       27.268  33.427  56.238  0.00  0.00    +0.372 C 
ATOM     15  O   LIG    1       27.207  34.637  56.320  0.00  0.00    -0.242 OA
BRANCH  14  16
ATOM     16  O   LIG    1       28.426  32.791  56.502  0.00  0.00    -0.475 OA
ATOM     17  H   LIG    1       29.193  33.284  56.718  0.00  0.00    +0.296 HD
ENDBRANCH  14  16
ENDBRANCH   5  14
TORSDOF 3
ENDMDL
