REMARK VINA RESULT:      -5.2      3.927      5.322
REMARK  Name = ZINC00000857
REMARK                            x       y       z     vdW  Elec       q    Type
REMARK                         _______ _______ _______ _____ _____    ______ ____
ROOT
ATOM      1  C   LIG    1       22.019  32.711  56.706  0.00  0.00    -0.036 C 
ATOM      2  N   LIG    1       21.649  33.933  55.978  0.00  0.00    +0.384 N 
ATOM      3  H   LIG    1       22.319  34.678  56.202  0.00  0.00    -0.085 HD
ATOM      4  H   LIG    1       21.670  33.746  54.968  0.00  0.00    -0.085 HD
ATOM      5  C   LIG    1       20.292  34.359  56.369  0.00  0.00    -0.077 C 
ATOM      6  C   LIG    1       20.346  34.902  57.797  0.00  0.00    +0.016 C 
ATOM      7  C   LIG    1       21.045  33.915  58.697  0.00  0.00    -0.044 A 
ATOM      8  C   LIG    1       20.888  34.048  60.069  0.00  0.00    +0.053 A 
ATOM      9  C   LIG    1       21.510  33.164  60.932  0.00  0.00    +0.158 A 
ATOM     10  C   LIG    1       22.306  32.143  60.420  0.00  0.00    +0.158 A 
ATOM     11  C   LIG    1       22.456  32.014  59.051  0.00  0.00    +0.051 A 
ATOM     12  C   LIG    1       21.826  32.899  58.188  0.00  0.00    -0.054 A 
ENDROOT
BRANCH   9  13
ATOM     13  O   LIG    1       21.351  33.296  62.277  0.00  0.00    -0.503 OA
ATOM     14  H   LIG    1       20.820  32.595  62.680  0.00  0.00    +0.292 HD
ENDBRANCH   9  13
BRANCH  10  15
ATOM     15  O   LIG    1       22.927  31.274  61.261  0.00  0.00    -0.503 OA
ATOM     16  H   LIG    1       23.711  30.853  60.883  0.00  0.00    +0.292 HD
ENDBRANCH  10  15
BRANCH   1  17
ATOM     17  C   LIG    1       23.487  32.385  56.425  0.00  0.00    +0.024 C 
BRANCH  17  23
ATOM     18  C   LIG    1       22.870  30.741  54.642  0.00  0.00    +0.007 A 
ATOM     19  C   LIG    1       22.965  29.494  54.055  0.00  0.00    +0.045 A 
ATOM     20  C   LIG    1       23.774  28.521  54.624  0.00  0.00    +0.117 A 
ATOM     21  C   LIG    1       24.489  28.805  55.778  0.00  0.00    +0.045 A 
ATOM     22  C   LIG    1       24.394  30.055  56.359  0.00  0.00    +0.007 A 
ATOM     23  C   LIG    1       23.588  31.022  55.790  0.00  0.00    -0.048 A 
BRANCH  20  24
ATOM     24  O   LIG    1       23.866  27.292  54.051  0.00  0.00    -0.507 OA
ATOM     25  H   LIG    1       24.463  27.255  53.292  0.00  0.00    +0.292 HD
ENDBRANCH  20  24
ENDBRANCH  17  23
ENDBRANCH   1  17
TORSDOF 5
