REMARK VINA RESULT:      -5.4      2.283      6.759
REMARK  Name = ZINC00000857
REMARK                            x       y       z     vdW  Elec       q    Type
REMARK                         _______ _______ _______ _____ _____    ______ ____
ROOT
ATOM      1  C   LIG    1       21.975  28.644  55.779  0.00  0.00    -0.036 C 
ATOM      2  N   LIG    1       22.764  27.421  55.982  0.00  0.00    +0.384 N 
ATOM      3  H   LIG    1       23.121  27.403  56.944  0.00  0.00    -0.085 HD
ATOM      4  H   LIG    1       22.167  26.601  55.822  0.00  0.00    -0.085 HD
ATOM      5  C   LIG    1       23.898  27.393  55.039  0.00  0.00    -0.077 C 
ATOM      6  C   LIG    1       24.917  28.448  55.472  0.00  0.00    +0.016 C 
ATOM      7  C   LIG    1       24.229  29.772  55.684  0.00  0.00    -0.044 A 
ATOM      8  C   LIG    1       25.008  30.919  55.731  0.00  0.00    +0.053 A 
ATOM      9  C   LIG    1       24.420  32.156  55.924  0.00  0.00    +0.158 A 
ATOM     10  C   LIG    1       23.040  32.247  56.080  0.00  0.00    +0.158 A 
ATOM     11  C   LIG    1       22.268  31.100  56.029  0.00  0.00    +0.051 A 
ATOM     12  C   LIG    1       22.861  29.861  55.831  0.00  0.00    -0.054 A 
ENDROOT
BRANCH   9  13
ATOM     13  O   LIG    1       25.187  33.278  55.965  0.00  0.00    -0.503 OA
ATOM     14  H   LIG    1       25.138  33.818  55.164  0.00  0.00    +0.292 HD
ENDBRANCH   9  13
BRANCH  10  15
ATOM     15  O   LIG    1       22.453  33.458  56.276  0.00  0.00    -0.503 OA
ATOM     16  H   LIG    1       22.399  33.723  57.205  0.00  0.00    +0.292 HD
ENDBRANCH  10  15
BRANCH   1  17
ATOM     17  C   LIG    1       20.915  28.744  56.877  0.00  0.00    +0.024 C 
BRANCH  17  23
ATOM     18  C   LIG    1       19.227  27.627  55.405  0.00  0.00    +0.007 A 
ATOM     19  C   LIG    1       17.968  27.550  54.843  0.00  0.00    +0.045 A 
ATOM     20  C   LIG    1       17.021  28.524  55.130  0.00  0.00    +0.117 A 
ATOM     21  C   LIG    1       17.342  29.569  55.984  0.00  0.00    +0.045 A 
ATOM     22  C   LIG    1       18.601  29.639  56.548  0.00  0.00    +0.007 A 
ATOM     23  C   LIG    1       19.542  28.667  56.260  0.00  0.00    -0.048 A 
BRANCH  20  24
ATOM     24  O   LIG    1       15.783  28.454  54.575  0.00  0.00    -0.507 OA
ATOM     25  H   LIG    1       15.697  28.937  53.741  0.00  0.00    +0.292 HD
ENDBRANCH  20  24
ENDBRANCH  17  23
ENDBRANCH   1  17
TORSDOF 5
