REMARK VINA RESULT:      -5.4      0.000      0.000
REMARK  Name = ZINC00000857
REMARK                            x       y       z     vdW  Elec       q    Type
REMARK                         _______ _______ _______ _____ _____    ______ ____
ROOT
ATOM      1  C   LIG    1       23.535  30.308  55.371  0.00  0.00    -0.036 C 
ATOM      2  N   LIG    1       23.574  28.906  54.931  0.00  0.00    +0.384 N 
ATOM      3  H   LIG    1       23.190  28.837  53.982  0.00  0.00    -0.085 HD
ATOM      4  H   LIG    1       24.547  28.577  54.932  0.00  0.00    -0.085 HD
ATOM      5  C   LIG    1       22.774  28.070  55.847  0.00  0.00    -0.077 C 
ATOM      6  C   LIG    1       21.294  28.383  55.621  0.00  0.00    +0.016 C 
ATOM      7  C   LIG    1       21.069  29.872  55.673  0.00  0.00    -0.044 A 
ATOM      8  C   LIG    1       19.773  30.336  55.846  0.00  0.00    +0.053 A 
ATOM      9  C   LIG    1       19.519  31.695  55.899  0.00  0.00    +0.158 A 
ATOM     10  C   LIG    1       20.569  32.599  55.769  0.00  0.00    +0.158 A 
ATOM     11  C   LIG    1       21.859  32.130  55.600  0.00  0.00    +0.051 A 
ATOM     12  C   LIG    1       22.111  30.766  55.552  0.00  0.00    -0.054 A 
ENDROOT
BRANCH   9  13
ATOM     13  O   LIG    1       18.247  32.146  56.073  0.00  0.00    -0.503 OA
ATOM     14  H   LIG    1       18.189  33.089  56.278  0.00  0.00    +0.292 HD
ENDBRANCH   9  13
BRANCH  10  15
ATOM     15  O   LIG    1       20.328  33.937  55.814  0.00  0.00    -0.503 OA
ATOM     16  H   LIG    1       20.031  34.311  54.973  0.00  0.00    +0.292 HD
ENDBRANCH  10  15
BRANCH   1  17
ATOM     17  C   LIG    1       24.216  31.183  54.318  0.00  0.00    +0.024 C 
BRANCH  17  23
ATOM     18  C   LIG    1       25.625  31.866  56.270  0.00  0.00    +0.007 A 
ATOM     19  C   LIG    1       26.775  32.413  56.805  0.00  0.00    +0.045 A 
ATOM     20  C   LIG    1       27.769  32.892  55.964  0.00  0.00    +0.117 A 
ATOM     21  C   LIG    1       27.608  32.815  54.589  0.00  0.00    +0.045 A 
ATOM     22  C   LIG    1       26.458  32.263  54.058  0.00  0.00    +0.007 A 
ATOM     23  C   LIG    1       25.469  31.786  54.898  0.00  0.00    -0.048 A 
BRANCH  20  24
ATOM     24  O   LIG    1       28.899  33.436  56.488  0.00  0.00    -0.507 OA
ATOM     25  H   LIG    1       29.060  33.197  57.412  0.00  0.00    +0.292 HD
ENDBRANCH  20  24
ENDBRANCH  17  23
ENDBRANCH   1  17
TORSDOF 5
