REMARK VINA RESULT:      -5.2      2.409      3.293
REMARK  Name = ZINC00000857
REMARK                            x       y       z     vdW  Elec       q    Type
REMARK                         _______ _______ _______ _____ _____    ______ ____
ROOT
ATOM      1  C   LIG    1       22.879  32.056  55.750  0.00  0.00    -0.036 C 
ATOM      2  N   LIG    1       22.032  33.199  56.119  0.00  0.00    +0.384 N 
ATOM      3  H   LIG    1       21.705  33.082  57.085  0.00  0.00    -0.085 HD
ATOM      4  H   LIG    1       22.578  34.065  56.044  0.00  0.00    -0.085 HD
ATOM      5  C   LIG    1       20.870  33.274  55.214  0.00  0.00    -0.077 C 
ATOM      6  C   LIG    1       19.923  32.119  55.542  0.00  0.00    +0.016 C 
ATOM      7  C   LIG    1       20.687  30.820  55.576  0.00  0.00    -0.044 A 
ATOM      8  C   LIG    1       19.973  29.633  55.503  0.00  0.00    +0.053 A 
ATOM      9  C   LIG    1       20.633  28.418  55.531  0.00  0.00    +0.158 A 
ATOM     10  C   LIG    1       22.020  28.388  55.641  0.00  0.00    +0.158 A 
ATOM     11  C   LIG    1       22.727  29.575  55.710  0.00  0.00    +0.051 A 
ATOM     12  C   LIG    1       22.061  30.793  55.677  0.00  0.00    -0.054 A 
ENDROOT
BRANCH   9  13
ATOM     13  O   LIG    1       19.929  27.256  55.456  0.00  0.00    -0.503 OA
ATOM     14  H   LIG    1       18.985  27.356  55.645  0.00  0.00    +0.292 HD
ENDBRANCH   9  13
BRANCH  10  15
ATOM     15  O   LIG    1       22.677  27.198  55.676  0.00  0.00    -0.503 OA
ATOM     16  H   LIG    1       22.491  26.623  54.921  0.00  0.00    +0.292 HD
ENDBRANCH  10  15
BRANCH   1  17
ATOM     17  C   LIG    1       23.977  31.887  56.802  0.00  0.00    +0.024 C 
BRANCH  17  23
ATOM     18  C   LIG    1       25.555  33.776  56.351  0.00  0.00    +0.007 A 
ATOM     19  C   LIG    1       26.749  34.271  55.864  0.00  0.00    +0.045 A 
ATOM     20  C   LIG    1       27.666  33.411  55.277  0.00  0.00    +0.117 A 
ATOM     21  C   LIG    1       27.383  32.056  55.186  0.00  0.00    +0.045 A 
ATOM     22  C   LIG    1       26.190  31.565  55.679  0.00  0.00    +0.007 A 
ATOM     23  C   LIG    1       25.277  32.424  56.263  0.00  0.00    -0.048 A 
BRANCH  20  24
ATOM     24  O   LIG    1       28.839  33.895  54.792  0.00  0.00    -0.507 OA
ATOM     25  H   LIG    1       29.267  33.317  54.145  0.00  0.00    +0.292 HD
ENDBRANCH  20  24
ENDBRANCH  17  23
ENDBRANCH   1  17
TORSDOF 5
