REMARK VINA RESULT:      -5.4      2.888      3.227
REMARK  Name = ZINC00000857
REMARK                            x       y       z     vdW  Elec       q    Type
REMARK                         _______ _______ _______ _____ _____    ______ ____
ROOT
ATOM      1  C   LIG    1       23.690  30.800  55.760  0.00  0.00    -0.036 C 
ATOM      2  N   LIG    1       22.731  30.672  54.654  0.00  0.00    +0.384 N 
ATOM      3  H   LIG    1       21.899  31.239  54.858  0.00  0.00    -0.085 HD
ATOM      4  H   LIG    1       23.167  31.005  53.786  0.00  0.00    -0.085 HD
ATOM      5  C   LIG    1       22.335  29.260  54.493  0.00  0.00    -0.077 C 
ATOM      6  C   LIG    1       21.443  28.869  55.672  0.00  0.00    +0.016 C 
ATOM      7  C   LIG    1       22.104  29.256  56.970  0.00  0.00    -0.044 A 
ATOM      8  C   LIG    1       21.638  28.682  58.144  0.00  0.00    +0.053 A 
ATOM      9  C   LIG    1       22.215  29.008  59.358  0.00  0.00    +0.158 A 
ATOM     10  C   LIG    1       23.262  29.924  59.400  0.00  0.00    +0.158 A 
ATOM     11  C   LIG    1       23.724  30.491  58.227  0.00  0.00    +0.051 A 
ATOM     12  C   LIG    1       23.146  30.157  57.010  0.00  0.00    -0.054 A 
ENDROOT
BRANCH   9  13
ATOM     13  O   LIG    1       21.758  28.439  60.506  0.00  0.00    -0.503 OA
ATOM     14  H   LIG    1       21.994  28.927  61.307  0.00  0.00    +0.292 HD
ENDBRANCH   9  13
BRANCH  10  15
ATOM     15  O   LIG    1       23.832  30.256  60.590  0.00  0.00    -0.503 OA
ATOM     16  H   LIG    1       24.449  29.593  60.929  0.00  0.00    +0.292 HD
ENDBRANCH  10  15
BRANCH   1  17
ATOM     17  C   LIG    1       23.952  32.283  56.028  0.00  0.00    +0.024 C 
BRANCH  17  23
ATOM     18  C   LIG    1       25.877  33.879  55.944  0.00  0.00    +0.007 A 
ATOM     19  C   LIG    1       27.219  34.154  55.767  0.00  0.00    +0.045 A 
ATOM     20  C   LIG    1       28.102  33.128  55.461  0.00  0.00    +0.117 A 
ATOM     21  C   LIG    1       27.634  31.828  55.339  0.00  0.00    +0.045 A 
ATOM     22  C   LIG    1       26.292  31.557  55.522  0.00  0.00    +0.007 A 
ATOM     23  C   LIG    1       25.415  32.581  55.827  0.00  0.00    -0.048 A 
BRANCH  20  24
ATOM     24  O   LIG    1       29.421  33.397  55.281  0.00  0.00    -0.507 OA
ATOM     25  H   LIG    1       29.859  33.764  56.061  0.00  0.00    +0.292 HD
ENDBRANCH  20  24
ENDBRANCH  17  23
ENDBRANCH   1  17
TORSDOF 5
