MODEL 1
REMARK VINA RESULT:      -5.7      0.000      0.000
REMARK  Name = ZINC00000627
REMARK                            x       y       z     vdW  Elec       q    Type
REMARK                         _______ _______ _______ _____ _____    ______ ____
ROOT
ATOM      1  C   LIG    1       14.370  33.399  57.453  0.00  0.00    -0.096 C 
ATOM      2  N   LIG    1       15.581  33.911  56.795  0.00  0.00    +0.378 N 
ATOM      3  H   LIG    1       15.341  34.258  55.879  0.00  0.00    -0.082 HD
ATOM      4  C   LIG    1       16.144  35.004  57.595  0.00  0.00    -0.075 C 
ATOM      5  C   LIG    1       17.302  35.654  56.829  0.00  0.00    +0.013 C 
ATOM      6  C   LIG    1       18.293  34.568  56.461  0.00  0.00    -0.065 C 
ATOM      7  C   LIG    1       17.747  33.306  55.826  0.00  0.00    +0.013 C 
ATOM      8  C   LIG    1       19.606  34.720  56.690  0.00  0.00    -0.010 C 
ATOM      9  C   LIG    1       20.116  35.963  57.311  0.00  0.00    -0.004 A 
ATOM     10  C   LIG    1       19.529  37.192  57.017  0.00  0.00    +0.009 A 
ATOM     11  C   LIG    1       20.021  38.343  57.597  0.00  0.00    +0.001 A 
ATOM     12  C   LIG    1       21.096  38.286  58.467  0.00  0.00    +0.001 A 
ATOM     13  C   LIG    1       21.687  37.074  58.769  0.00  0.00    +0.015 A 
ATOM     14  C   LIG    1       21.200  35.908  58.199  0.00  0.00    +0.020 A 
ATOM     15  S   LIG    1       21.927  34.350  58.590  0.00  0.00    -0.088 S 
ATOM     16  C   LIG    1       21.671  33.392  57.133  0.00  0.00    +0.020 A 
ATOM     17  C   LIG    1       22.567  32.392  56.784  0.00  0.00    +0.015 A 
ATOM     18  C   LIG    1       22.350  31.638  55.656  0.00  0.00    +0.001 A 
ATOM     19  C   LIG    1       21.247  31.878  54.857  0.00  0.00    +0.001 A 
ATOM     20  C   LIG    1       20.349  32.874  55.186  0.00  0.00    +0.009 A 
ATOM     21  C   LIG    1       20.555  33.642  56.329  0.00  0.00    -0.004 A 
ATOM     22  C   LIG    1       16.558  32.824  56.663  0.00  0.00    -0.075 C 
ENDROOT
TORSDOF 0
ENDMDL
MODEL 2
REMARK VINA RESULT:      -5.6      3.637      6.937
REMARK  Name = ZINC00000627
REMARK                            x       y       z     vdW  Elec       q    Type
REMARK                         _______ _______ _______ _____ _____    ______ ____
ROOT
ATOM      1  C   LIG    1       21.005  29.246  62.316  0.00  0.00    -0.096 C 
ATOM      2  N   LIG    1       21.834  29.859  61.268  0.00  0.00    +0.378 N 
ATOM      3  H   LIG    1       22.745  30.070  61.646  0.00  0.00    -0.082 HD
ATOM      4  C   LIG    1       21.980  28.919  60.151  0.00  0.00    -0.075 C 
ATOM      5  C   LIG    1       22.982  29.482  59.137  0.00  0.00    +0.013 C 
ATOM      6  C   LIG    1       22.521  30.869  58.737  0.00  0.00    -0.065 C 
ATOM      7  C   LIG    1       22.140  31.829  59.845  0.00  0.00    +0.013 C 
ATOM      8  C   LIG    1       22.452  31.233  57.448  0.00  0.00    -0.010 C 
ATOM      9  C   LIG    1       22.831  30.277  56.382  0.00  0.00    -0.004 A 
ATOM     10  C   LIG    1       23.876  29.379  56.578  0.00  0.00    +0.009 A 
ATOM     11  C   LIG    1       24.224  28.501  55.572  0.00  0.00    +0.001 A 
ATOM     12  C   LIG    1       23.541  28.509  54.368  0.00  0.00    +0.001 A 
ATOM     13  C   LIG    1       22.500  29.393  54.160  0.00  0.00    +0.015 A 
ATOM     14  C   LIG    1       22.136  30.278  55.164  0.00  0.00    +0.020 A 
ATOM     15  S   LIG    1       20.796  31.398  54.925  0.00  0.00    -0.088 S 
ATOM     16  C   LIG    1       21.228  32.784  55.925  0.00  0.00    +0.020 A 
ATOM     17  C   LIG    1       20.810  34.060  55.575  0.00  0.00    +0.015 A 
ATOM     18  C   LIG    1       21.135  35.131  56.370  0.00  0.00    +0.001 A 
ATOM     19  C   LIG    1       21.889  34.949  57.516  0.00  0.00    +0.001 A 
ATOM     20  C   LIG    1       22.318  33.687  57.875  0.00  0.00    +0.009 A 
ATOM     21  C   LIG    1       21.991  32.591  57.080  0.00  0.00    -0.004 A 
ATOM     22  C   LIG    1       21.198  31.099  60.809  0.00  0.00    -0.075 C 
ENDROOT
TORSDOF 0
ENDMDL
MODEL 3
REMARK VINA RESULT:      -5.6      2.833      4.266
REMARK  Name = ZINC00000627
REMARK                            x       y       z     vdW  Elec       q    Type
REMARK                         _______ _______ _______ _____ _____    ______ ____
ROOT
ATOM      1  C   LIG    1       17.553  26.951  57.873  0.00  0.00    -0.096 C 
ATOM      2  N   LIG    1       17.944  27.980  56.899  0.00  0.00    +0.378 N 
ATOM      3  H   LIG    1       17.452  27.824  56.032  0.00  0.00    -0.082 HD
ATOM      4  C   LIG    1       17.593  29.305  57.423  0.00  0.00    -0.075 C 
ATOM      5  C   LIG    1       17.840  30.363  56.342  0.00  0.00    +0.013 C 
ATOM      6  C   LIG    1       19.274  30.233  55.871  0.00  0.00    -0.065 C 
ATOM      7  C   LIG    1       19.775  28.847  55.521  0.00  0.00    +0.013 C 
ATOM      8  C   LIG    1       20.072  31.307  55.769  0.00  0.00    -0.010 C 
ATOM      9  C   LIG    1       19.559  32.652  56.116  0.00  0.00    -0.004 A 
ATOM     10  C   LIG    1       18.240  32.999  55.838  0.00  0.00    +0.009 A 
ATOM     11  C   LIG    1       17.780  34.259  56.159  0.00  0.00    +0.001 A 
ATOM     12  C   LIG    1       18.622  35.183  56.754  0.00  0.00    +0.001 A 
ATOM     13  C   LIG    1       19.933  34.852  57.039  0.00  0.00    +0.015 A 
ATOM     14  C   LIG    1       20.408  33.586  56.727  0.00  0.00    +0.020 A 
ATOM     15  S   LIG    1       22.071  33.139  57.102  0.00  0.00    -0.088 S 
ATOM     16  C   LIG    1       22.478  31.960  55.857  0.00  0.00    +0.020 A 
ATOM     17  C   LIG    1       23.787  31.825  55.418  0.00  0.00    +0.015 A 
ATOM     18  C   LIG    1       24.098  30.892  54.460  0.00  0.00    +0.001 A 
ATOM     19  C   LIG    1       23.109  30.089  53.919  0.00  0.00    +0.001 A 
ATOM     20  C   LIG    1       21.800  30.214  54.340  0.00  0.00    +0.009 A 
ATOM     21  C   LIG    1       21.473  31.154  55.315  0.00  0.00    -0.004 A 
ATOM     22  C   LIG    1       19.390  27.897  56.659  0.00  0.00    -0.075 C 
ENDROOT
TORSDOF 0
ENDMDL
MODEL 4
REMARK VINA RESULT:      -5.5      5.849      8.125
REMARK  Name = ZINC00000627
REMARK                            x       y       z     vdW  Elec       q    Type
REMARK                         _______ _______ _______ _____ _____    ______ ____
ROOT
ATOM      1  C   LIG    1       26.071  32.177  54.382  0.00  0.00    -0.096 C 
ATOM      2  N   LIG    1       24.903  31.977  55.251  0.00  0.00    +0.378 N 
ATOM      3  H   LIG    1       24.456  32.866  55.419  0.00  0.00    -0.082 HD
ATOM      4  C   LIG    1       23.953  31.075  54.590  0.00  0.00    -0.075 C 
ATOM      5  C   LIG    1       22.661  31.002  55.411  0.00  0.00    +0.013 C 
ATOM      6  C   LIG    1       23.024  30.604  56.827  0.00  0.00    -0.065 C 
ATOM      7  C   LIG    1       24.156  31.354  57.499  0.00  0.00    +0.013 C 
ATOM      8  C   LIG    1       22.367  29.622  57.463  0.00  0.00    -0.010 C 
ATOM      9  C   LIG    1       21.264  28.904  56.786  0.00  0.00    -0.004 A 
ATOM     10  C   LIG    1       20.408  29.579  55.919  0.00  0.00    +0.009 A 
ATOM     11  C   LIG    1       19.379  28.898  55.303  0.00  0.00    +0.001 A 
ATOM     12  C   LIG    1       19.189  27.547  55.542  0.00  0.00    +0.001 A 
ATOM     13  C   LIG    1       20.031  26.864  56.398  0.00  0.00    +0.015 A 
ATOM     14  C   LIG    1       21.074  27.534  57.020  0.00  0.00    +0.020 A 
ATOM     15  S   LIG    1       22.172  26.674  58.098  0.00  0.00    -0.088 S 
ATOM     16  C   LIG    1       22.680  27.908  59.249  0.00  0.00    +0.020 A 
ATOM     17  C   LIG    1       23.019  27.560  60.548  0.00  0.00    +0.015 A 
ATOM     18  C   LIG    1       23.431  28.526  61.433  0.00  0.00    +0.001 A 
ATOM     19  C   LIG    1       23.499  29.851  61.040  0.00  0.00    +0.001 A 
ATOM     20  C   LIG    1       23.159  30.216  59.752  0.00  0.00    +0.009 A 
ATOM     21  C   LIG    1       22.744  29.245  58.844  0.00  0.00    -0.004 A 
ATOM     22  C   LIG    1       25.340  31.403  56.529  0.00  0.00    -0.075 C 
ENDROOT
TORSDOF 0
ENDMDL
MODEL 5
REMARK VINA RESULT:      -5.3      3.052      5.247
REMARK  Name = ZINC00000627
REMARK                            x       y       z     vdW  Elec       q    Type
REMARK                         _______ _______ _______ _____ _____    ______ ____
ROOT
ATOM      1  C   LIG    1       17.644  34.358  56.458  0.00  0.00    -0.096 C 
ATOM      2  N   LIG    1       19.052  33.974  56.626  0.00  0.00    +0.378 N 
ATOM      3  H   LIG    1       19.630  34.800  56.583  0.00  0.00    -0.082 HD
ATOM      4  C   LIG    1       19.229  33.327  57.931  0.00  0.00    -0.075 C 
ATOM      5  C   LIG    1       20.721  33.083  58.183  0.00  0.00    +0.013 C 
ATOM      6  C   LIG    1       21.275  32.298  57.012  0.00  0.00    -0.065 C 
ATOM      7  C   LIG    1       20.945  32.789  55.617  0.00  0.00    +0.013 C 
ATOM      8  C   LIG    1       22.032  31.207  57.203  0.00  0.00    -0.010 C 
ATOM      9  C   LIG    1       22.342  30.746  58.576  0.00  0.00    -0.004 A 
ATOM     10  C   LIG    1       22.550  31.667  59.599  0.00  0.00    +0.009 A 
ATOM     11  C   LIG    1       22.848  31.223  60.871  0.00  0.00    +0.001 A 
ATOM     12  C   LIG    1       22.944  29.867  61.136  0.00  0.00    +0.001 A 
ATOM     13  C   LIG    1       22.738  28.942  60.131  0.00  0.00    +0.015 A 
ATOM     14  C   LIG    1       22.432  29.374  58.848  0.00  0.00    +0.020 A 
ATOM     15  S   LIG    1       22.145  28.208  57.558  0.00  0.00    -0.088 S 
ATOM     16  C   LIG    1       22.663  29.058  56.104  0.00  0.00    +0.020 A 
ATOM     17  C   LIG    1       23.169  28.353  55.021  0.00  0.00    +0.015 A 
ATOM     18  C   LIG    1       23.553  29.022  53.885  0.00  0.00    +0.001 A 
ATOM     19  C   LIG    1       23.449  30.401  53.817  0.00  0.00    +0.001 A 
ATOM     20  C   LIG    1       22.954  31.118  54.887  0.00  0.00    +0.009 A 
ATOM     21  C   LIG    1       22.556  30.450  56.043  0.00  0.00    -0.004 A 
ATOM     22  C   LIG    1       19.437  33.055  55.548  0.00  0.00    -0.075 C 
ENDROOT
TORSDOF 0
ENDMDL
