MODEL 1
REMARK VINA RESULT:      -5.6      0.000      0.000
REMARK  Name = ZINC00000504
REMARK                            x       y       z     vdW  Elec       q    Type
REMARK                         _______ _______ _______ _____ _____    ______ ____
ROOT
ATOM      1  C   LIG    1       16.253  31.861  56.334  0.00  0.00    -0.096 C 
ATOM      2  N   LIG    1       17.675  31.708  55.998  0.00  0.00    +0.380 N 
ATOM      3  H   LIG    1       17.769  31.288  55.085  0.00  0.00    -0.082 HD
ATOM      4  C   LIG    1       18.341  30.864  57.010  0.00  0.00    -0.060 C 
ATOM      5  C   LIG    1       19.685  30.438  56.422  0.00  0.00    +0.087 C 
ATOM      6  N   LIG    1       20.394  31.601  55.872  0.00  0.00    -0.326 N 
ATOM      7  C   LIG    1       21.690  31.362  55.398  0.00  0.00    +0.034 A 
ATOM      8  C   LIG    1       21.868  30.513  54.309  0.00  0.00    +0.023 A 
ATOM      9  C   LIG    1       23.133  30.320  53.791  0.00  0.00    +0.002 A 
ATOM     10  C   LIG    1       24.219  30.971  54.347  0.00  0.00    +0.000 A 
ATOM     11  C   LIG    1       24.045  31.796  55.445  0.00  0.00    +0.006 A 
ATOM     12  C   LIG    1       22.783  31.964  55.984  0.00  0.00    -0.022 A 
ATOM     13  C   LIG    1       22.597  32.725  57.258  0.00  0.00    +0.072 C 
ATOM     14  C   LIG    1       21.734  33.939  57.127  0.00  0.00    -0.038 A 
ATOM     15  C   LIG    1       22.267  35.094  57.713  0.00  0.00    +0.004 A 
ATOM     16  C   LIG    1       21.582  36.286  57.708  0.00  0.00    +0.000 A 
ATOM     17  C   LIG    1       20.335  36.348  57.113  0.00  0.00    +0.000 A 
ATOM     18  C   LIG    1       19.814  35.220  56.525  0.00  0.00    +0.005 A 
ATOM     19  C   LIG    1       20.517  34.010  56.511  0.00  0.00    -0.025 A 
ATOM     20  C   LIG    1       19.828  32.911  55.748  0.00  0.00    +0.087 C 
ATOM     21  C   LIG    1       18.333  33.014  56.015  0.00  0.00    -0.052 C 
ENDROOT
TORSDOF 0
ENDMDL
MODEL 2
REMARK VINA RESULT:      -5.5      2.916      5.445
REMARK  Name = ZINC00000504
REMARK                            x       y       z     vdW  Elec       q    Type
REMARK                         _______ _______ _______ _____ _____    ______ ____
ROOT
ATOM      1  C   LIG    1       20.801  32.619  59.581  0.00  0.00    -0.096 C 
ATOM      2  N   LIG    1       21.967  32.688  58.689  0.00  0.00    +0.380 N 
ATOM      3  H   LIG    1       22.701  33.224  59.126  0.00  0.00    -0.082 HD
ATOM      4  C   LIG    1       21.583  33.312  57.408  0.00  0.00    -0.060 C 
ATOM      5  C   LIG    1       22.878  33.693  56.691  0.00  0.00    +0.087 C 
ATOM      6  N   LIG    1       23.813  32.561  56.691  0.00  0.00    -0.326 N 
ATOM      7  C   LIG    1       25.000  32.745  55.968  0.00  0.00    +0.034 A 
ATOM      8  C   LIG    1       25.901  33.722  56.383  0.00  0.00    +0.023 A 
ATOM      9  C   LIG    1       27.103  33.870  55.720  0.00  0.00    +0.002 A 
ATOM     10  C   LIG    1       27.413  33.049  54.652  0.00  0.00    +0.000 A 
ATOM     11  C   LIG    1       26.507  32.094  54.224  0.00  0.00    +0.006 A 
ATOM     12  C   LIG    1       25.289  31.968  54.868  0.00  0.00    -0.022 A 
ATOM     13  C   LIG    1       24.237  31.051  54.328  0.00  0.00    +0.072 C 
ATOM     14  C   LIG    1       23.842  29.953  55.264  0.00  0.00    -0.038 A 
ATOM     15  C   LIG    1       23.799  28.682  54.678  0.00  0.00    +0.004 A 
ATOM     16  C   LIG    1       23.421  27.571  55.395  0.00  0.00    +0.000 A 
ATOM     17  C   LIG    1       23.072  27.710  56.725  0.00  0.00    +0.000 A 
ATOM     18  C   LIG    1       23.125  28.955  57.308  0.00  0.00    +0.005 A 
ATOM     19  C   LIG    1       23.529  30.084  56.586  0.00  0.00    -0.025 A 
ATOM     20  C   LIG    1       23.609  31.340  57.412  0.00  0.00    +0.087 C 
ATOM     21  C   LIG    1       22.446  31.338  58.393  0.00  0.00    -0.052 C 
ENDROOT
TORSDOF 0
ENDMDL
MODEL 3
REMARK VINA RESULT:      -5.4      1.920      4.657
REMARK  Name = ZINC00000504
REMARK                            x       y       z     vdW  Elec       q    Type
REMARK                         _______ _______ _______ _____ _____    ______ ____
ROOT
ATOM      1  C   LIG    1       26.719  32.477  55.534  0.00  0.00    -0.096 C 
ATOM      2  N   LIG    1       25.441  31.755  55.604  0.00  0.00    +0.380 N 
ATOM      3  H   LIG    1       25.575  30.865  56.058  0.00  0.00    -0.082 HD
ATOM      4  C   LIG    1       24.906  31.550  54.243  0.00  0.00    -0.060 C 
ATOM      5  C   LIG    1       23.807  30.495  54.350  0.00  0.00    +0.087 C 
ATOM      6  N   LIG    1       22.886  30.826  55.445  0.00  0.00    -0.326 N 
ATOM      7  C   LIG    1       21.768  29.992  55.580  0.00  0.00    +0.034 A 
ATOM      8  C   LIG    1       21.957  28.651  55.904  0.00  0.00    +0.023 A 
ATOM      9  C   LIG    1       20.862  27.834  56.104  0.00  0.00    +0.002 A 
ATOM     10  C   LIG    1       19.583  28.346  55.989  0.00  0.00    +0.000 A 
ATOM     11  C   LIG    1       19.395  29.672  55.643  0.00  0.00    +0.006 A 
ATOM     12  C   LIG    1       20.491  30.483  55.411  0.00  0.00    -0.022 A 
ATOM     13  C   LIG    1       20.310  31.873  54.888  0.00  0.00    +0.072 C 
ATOM     14  C   LIG    1       20.828  32.942  55.797  0.00  0.00    -0.038 A 
ATOM     15  C   LIG    1       19.938  34.003  56.006  0.00  0.00    +0.004 A 
ATOM     16  C   LIG    1       20.276  35.082  56.790  0.00  0.00    +0.000 A 
ATOM     17  C   LIG    1       21.524  35.123  57.383  0.00  0.00    +0.000 A 
ATOM     18  C   LIG    1       22.396  34.077  57.191  0.00  0.00    +0.005 A 
ATOM     19  C   LIG    1       22.047  32.968  56.411  0.00  0.00    -0.025 A 
ATOM     20  C   LIG    1       23.093  31.886  56.386  0.00  0.00    +0.087 C 
ATOM     21  C   LIG    1       24.462  32.549  56.345  0.00  0.00    -0.052 C 
ENDROOT
TORSDOF 0
ENDMDL
MODEL 4
REMARK VINA RESULT:      -5.4      2.179      5.278
REMARK  Name = ZINC00000504
REMARK                            x       y       z     vdW  Elec       q    Type
REMARK                         _______ _______ _______ _____ _____    ______ ____
ROOT
ATOM      1  C   LIG    1       20.294  34.292  57.764  0.00  0.00    -0.096 C 
ATOM      2  N   LIG    1       19.738  33.031  57.256  0.00  0.00    +0.380 N 
ATOM      3  H   LIG    1       18.795  33.180  56.927  0.00  0.00    -0.082 HD
ATOM      4  C   LIG    1       19.743  32.014  58.325  0.00  0.00    -0.060 C 
ATOM      5  C   LIG    1       18.830  30.878  57.866  0.00  0.00    +0.087 C 
ATOM      6  N   LIG    1       19.162  30.481  56.491  0.00  0.00    -0.326 N 
ATOM      7  C   LIG    1       18.468  29.373  55.988  0.00  0.00    +0.034 A 
ATOM      8  C   LIG    1       17.088  29.455  55.822  0.00  0.00    +0.023 A 
ATOM      9  C   LIG    1       16.401  28.394  55.267  0.00  0.00    +0.002 A 
ATOM     10  C   LIG    1       17.081  27.257  54.871  0.00  0.00    +0.000 A 
ATOM     11  C   LIG    1       18.449  27.166  55.058  0.00  0.00    +0.006 A 
ATOM     12  C   LIG    1       19.132  28.215  55.644  0.00  0.00    -0.022 A 
ATOM     13  C   LIG    1       20.580  28.076  55.994  0.00  0.00    +0.072 C 
ATOM     14  C   LIG    1       21.476  29.048  55.295  0.00  0.00    -0.038 A 
ATOM     15  C   LIG    1       22.615  28.473  54.718  0.00  0.00    +0.004 A 
ATOM     16  C   LIG    1       23.556  29.236  54.067  0.00  0.00    +0.000 A 
ATOM     17  C   LIG    1       23.377  30.604  53.982  0.00  0.00    +0.000 A 
ATOM     18  C   LIG    1       22.254  31.172  54.536  0.00  0.00    +0.005 A 
ATOM     19  C   LIG    1       21.284  30.396  55.181  0.00  0.00    -0.025 A 
ATOM     20  C   LIG    1       20.086  31.178  55.647  0.00  0.00    +0.087 C 
ATOM     21  C   LIG    1       20.570  32.524  56.165  0.00  0.00    -0.052 C 
ENDROOT
TORSDOF 0
ENDMDL
MODEL 5
REMARK VINA RESULT:      -5.3      3.267      5.491
REMARK  Name = ZINC00000504
REMARK                            x       y       z     vdW  Elec       q    Type
REMARK                         _______ _______ _______ _____ _____    ______ ____
ROOT
ATOM      1  C   LIG    1       19.182  23.964  56.842  0.00  0.00    -0.096 C 
ATOM      2  N   LIG    1       19.833  25.203  56.395  0.00  0.00    +0.380 N 
ATOM      3  H   LIG    1       20.516  24.993  55.682  0.00  0.00    -0.082 HD
ATOM      4  C   LIG    1       20.487  25.868  57.539  0.00  0.00    -0.060 C 
ATOM      5  C   LIG    1       21.439  26.915  56.963  0.00  0.00    +0.087 C 
ATOM      6  N   LIG    1       20.751  27.729  55.952  0.00  0.00    -0.326 N 
ATOM      7  C   LIG    1       21.485  28.798  55.422  0.00  0.00    +0.034 A 
ATOM      8  C   LIG    1       22.636  28.532  54.685  0.00  0.00    +0.023 A 
ATOM      9  C   LIG    1       23.332  29.573  54.104  0.00  0.00    +0.002 A 
ATOM     10  C   LIG    1       22.885  30.873  54.247  0.00  0.00    +0.000 A 
ATOM     11  C   LIG    1       21.755  31.140  55.000  0.00  0.00    +0.006 A 
ATOM     12  C   LIG    1       21.077  30.101  55.609  0.00  0.00    -0.022 A 
ATOM     13  C   LIG    1       19.947  30.381  56.550  0.00  0.00    +0.072 C 
ATOM     14  C   LIG    1       18.634  29.809  56.118  0.00  0.00    -0.038 A 
ATOM     15  C   LIG    1       17.562  30.707  56.187  0.00  0.00    +0.004 A 
ATOM     16  C   LIG    1       16.282  30.327  55.856  0.00  0.00    +0.000 A 
ATOM     17  C   LIG    1       16.046  29.026  55.450  0.00  0.00    +0.000 A 
ATOM     18  C   LIG    1       17.098  28.145  55.370  0.00  0.00    +0.005 A 
ATOM     19  C   LIG    1       18.405  28.534  55.685  0.00  0.00    -0.025 A 
ATOM     20  C   LIG    1       19.434  27.462  55.454  0.00  0.00    +0.087 C 
ATOM     21  C   LIG    1       18.830  26.127  55.865  0.00  0.00    -0.052 C 
ENDROOT
TORSDOF 0
ENDMDL
