REMARK VINA RESULT:      -5.1      1.866      2.380
REMARK  Name = ZINC00000381
REMARK                            x       y       z     vdW  Elec       q    Type
REMARK                         _______ _______ _______ _____ _____    ______ ____
ROOT
ATOM      1  C   LIG    1       23.169  30.526  56.629  0.00  0.00    -0.036 A 
ATOM      2  C   LIG    1       24.283  30.983  57.308  0.00  0.00    +0.004 A 
ATOM      3  C   LIG    1       25.325  31.565  56.611  0.00  0.00    +0.004 A 
ATOM      4  C   LIG    1       25.253  31.689  55.237  0.00  0.00    -0.047 A 
ATOM      5  C   LIG    1       24.140  31.231  54.559  0.00  0.00    +0.004 A 
ATOM      6  C   LIG    1       23.099  30.645  55.255  0.00  0.00    +0.004 A 
ENDROOT
BRANCH   1   8
ATOM      7  C   LIG    1       22.287  30.023  58.892  0.00  0.00    +0.022 C 
ATOM      8  C   LIG    1       22.032  29.891  57.389  0.00  0.00    +0.104 C 
BRANCH   8   9
ATOM      9  C   LIG    1       21.935  28.433  57.022  0.00  0.00    +0.243 C 
ATOM     10  N   LIG    1       20.760  27.918  56.609  0.00  0.00    -0.197 N 
ATOM     11  H   LIG    1       19.976  28.487  56.548  0.00  0.00    +0.182 HD
ATOM     12  O   LIG    1       22.914  27.722  57.099  0.00  0.00    -0.273 OA
BRANCH  10  13
ATOM     13  O   LIG    1       20.668  26.548  56.263  0.00  0.00    -0.295 OA
ATOM     14  H   LIG    1       20.139  26.377  55.472  0.00  0.00    +0.241 HD
ENDBRANCH  10  13
ENDBRANCH   8   9
ENDBRANCH   1   8
BRANCH   4  15
ATOM     15  C   LIG    1       26.390  32.324  54.477  0.00  0.00    +0.038 C 
BRANCH  15  16
ATOM     16  C   LIG    1       27.268  33.119  55.445  0.00  0.00    -0.013 C 
ATOM     17  C   LIG    1       27.325  34.582  54.998  0.00  0.00    +0.007 C 
ATOM     18  C   LIG    1       28.682  32.533  55.449  0.00  0.00    +0.007 C 
ENDBRANCH  15  16
ENDBRANCH   4  15
TORSDOF 5
