REMARK VINA RESULT:      -5.3      4.092      6.536
REMARK  Name = ZINC00000381
REMARK                            x       y       z     vdW  Elec       q    Type
REMARK                         _______ _______ _______ _____ _____    ______ ____
ROOT
ATOM      1  C   LIG    1       25.722  31.877  55.264  0.00  0.00    -0.036 A 
ATOM      2  C   LIG    1       25.537  31.568  56.599  0.00  0.00    +0.004 A 
ATOM      3  C   LIG    1       24.396  30.899  57.001  0.00  0.00    +0.004 A 
ATOM      4  C   LIG    1       23.441  30.540  56.069  0.00  0.00    -0.047 A 
ATOM      5  C   LIG    1       23.627  30.850  54.735  0.00  0.00    +0.004 A 
ATOM      6  C   LIG    1       24.765  31.523  54.333  0.00  0.00    +0.004 A 
ENDROOT
BRANCH   1   8
ATOM      7  C   LIG    1       28.181  31.693  54.999  0.00  0.00    +0.022 C 
ATOM      8  C   LIG    1       26.967  32.607  54.826  0.00  0.00    +0.104 C 
BRANCH   8   9
ATOM      9  C   LIG    1       27.146  33.844  55.668  0.00  0.00    +0.243 C 
ATOM     10  N   LIG    1       26.433  34.955  55.394  0.00  0.00    -0.197 N 
ATOM     11  H   LIG    1       25.804  34.958  54.655  0.00  0.00    +0.182 HD
ATOM     12  O   LIG    1       27.931  33.841  56.592  0.00  0.00    -0.273 OA
BRANCH  10  13
ATOM     13  O   LIG    1       26.600  36.117  56.185  0.00  0.00    -0.295 OA
ATOM     14  H   LIG    1       27.381  36.095  56.756  0.00  0.00    +0.241 HD
ENDBRANCH  10  13
ENDBRANCH   8   9
ENDBRANCH   1   8
BRANCH   4  15
ATOM     15  C   LIG    1       22.198  29.810  56.507  0.00  0.00    +0.038 C 
BRANCH  15  16
ATOM     16  C   LIG    1       21.155  29.863  55.389  0.00  0.00    -0.013 C 
ATOM     17  C   LIG    1       20.041  30.838  55.776  0.00  0.00    +0.007 C 
ATOM     18  C   LIG    1       20.560  28.468  55.180  0.00  0.00    +0.007 C 
ENDBRANCH  15  16
ENDBRANCH   4  15
TORSDOF 5
