REMARK VINA RESULT:      -5.3      3.152      3.783
REMARK  Name = ZINC00000381
REMARK                            x       y       z     vdW  Elec       q    Type
REMARK                         _______ _______ _______ _____ _____    ______ ____
ROOT
ATOM      1  C   LIG    1       23.291  30.768  57.372  0.00  0.00    -0.036 A 
ATOM      2  C   LIG    1       24.257  29.934  56.840  0.00  0.00    +0.004 A 
ATOM      3  C   LIG    1       25.211  30.444  55.980  0.00  0.00    +0.004 A 
ATOM      4  C   LIG    1       25.200  31.787  55.653  0.00  0.00    -0.047 A 
ATOM      5  C   LIG    1       24.234  32.620  56.185  0.00  0.00    +0.004 A 
ATOM      6  C   LIG    1       23.277  32.110  57.041  0.00  0.00    +0.004 A 
ENDROOT
BRANCH   1   8
ATOM      7  C   LIG    1       21.169  31.267  58.555  0.00  0.00    +0.022 C 
ATOM      8  C   LIG    1       22.249  30.212  58.309  0.00  0.00    +0.104 C 
BRANCH   8   9
ATOM      9  C   LIG    1       22.898  29.843  59.619  0.00  0.00    +0.243 C 
ATOM     10  N   LIG    1       23.367  30.808  60.434  0.00  0.00    -0.197 N 
ATOM     11  H   LIG    1       23.288  31.741  60.178  0.00  0.00    +0.182 HD
ATOM     12  O   LIG    1       22.997  28.678  59.939  0.00  0.00    -0.273 OA
BRANCH  10  13
ATOM     13  O   LIG    1       23.976  30.461  61.665  0.00  0.00    -0.295 OA
ATOM     14  H   LIG    1       23.611  29.664  62.073  0.00  0.00    +0.241 HD
ENDBRANCH  10  13
ENDBRANCH   8   9
ENDBRANCH   1   8
BRANCH   4  15
ATOM     15  C   LIG    1       26.242  32.343  54.717  0.00  0.00    +0.038 C 
BRANCH  15  16
ATOM     16  C   LIG    1       27.256  33.166  55.513  0.00  0.00    -0.013 C 
ATOM     17  C   LIG    1       27.399  34.552  54.878  0.00  0.00    +0.007 C 
ATOM     18  C   LIG    1       28.612  32.458  55.498  0.00  0.00    +0.007 C 
ENDBRANCH  15  16
ENDBRANCH   4  15
TORSDOF 5
