REMARK VINA RESULT:      -5.4      2.054      2.528
REMARK  Name = ZINC00000381
REMARK                            x       y       z     vdW  Elec       q    Type
REMARK                         _______ _______ _______ _____ _____    ______ ____
ROOT
ATOM      1  C   LIG    1       23.319  29.987  55.730  0.00  0.00    -0.036 A 
ATOM      2  C   LIG    1       23.784  30.670  54.621  0.00  0.00    +0.004 A 
ATOM      3  C   LIG    1       24.803  31.593  54.755  0.00  0.00    +0.004 A 
ATOM      4  C   LIG    1       25.359  31.833  55.998  0.00  0.00    -0.047 A 
ATOM      5  C   LIG    1       24.895  31.151  57.106  0.00  0.00    +0.004 A 
ATOM      6  C   LIG    1       23.872  30.231  56.973  0.00  0.00    +0.004 A 
ENDROOT
BRANCH   1   8
ATOM      7  C   LIG    1       21.013  29.413  56.438  0.00  0.00    +0.022 C 
ATOM      8  C   LIG    1       22.207  28.981  55.583  0.00  0.00    +0.104 C 
BRANCH   8   9
ATOM      9  C   LIG    1       22.689  27.629  56.042  0.00  0.00    +0.243 C 
ATOM     10  N   LIG    1       23.669  26.998  55.365  0.00  0.00    -0.197 N 
ATOM     11  H   LIG    1       24.064  27.414  54.582  0.00  0.00    +0.182 HD
ATOM     12  O   LIG    1       22.196  27.108  57.019  0.00  0.00    -0.273 OA
BRANCH  10  13
ATOM     13  O   LIG    1       24.123  25.728  55.795  0.00  0.00    -0.295 OA
ATOM     14  H   LIG    1       24.792  25.765  56.493  0.00  0.00    +0.241 HD
ENDBRANCH  10  13
ENDBRANCH   8   9
ENDBRANCH   1   8
BRANCH   4  15
ATOM     15  C   LIG    1       26.472  32.839  56.144  0.00  0.00    +0.038 C 
BRANCH  15  16
ATOM     16  C   LIG    1       27.366  32.794  54.903  0.00  0.00    -0.013 C 
ATOM     17  C   LIG    1       28.651  32.028  55.227  0.00  0.00    +0.007 C 
ATOM     18  C   LIG    1       27.718  34.220  54.476  0.00  0.00    +0.007 C 
ENDBRANCH  15  16
ENDBRANCH   4  15
TORSDOF 5
