REMARK VINA RESULT:      -5.4      0.000      0.000
REMARK  Name = ZINC00000381
REMARK                            x       y       z     vdW  Elec       q    Type
REMARK                         _______ _______ _______ _____ _____    ______ ____
ROOT
ATOM      1  C   LIG    1       22.377  31.560  55.157  0.00  0.00    -0.036 A 
ATOM      2  C   LIG    1       22.655  32.412  56.210  0.00  0.00    +0.004 A 
ATOM      3  C   LIG    1       23.966  32.702  56.537  0.00  0.00    +0.004 A 
ATOM      4  C   LIG    1       24.999  32.142  55.810  0.00  0.00    -0.047 A 
ATOM      5  C   LIG    1       24.721  31.290  54.757  0.00  0.00    +0.004 A 
ATOM      6  C   LIG    1       23.410  30.996  54.434  0.00  0.00    +0.004 A 
ENDROOT
BRANCH   1   8
ATOM      7  C   LIG    1       20.037  32.372  55.292  0.00  0.00    +0.022 C 
ATOM      8  C   LIG    1       20.947  31.243  54.801  0.00  0.00    +0.104 C 
BRANCH   8   9
ATOM      9  C   LIG    1       20.541  29.949  55.458  0.00  0.00    +0.243 C 
ATOM     10  N   LIG    1       20.568  28.799  54.755  0.00  0.00    -0.197 N 
ATOM     11  H   LIG    1       20.847  28.805  53.826  0.00  0.00    +0.182 HD
ATOM     12  O   LIG    1       20.191  29.942  56.619  0.00  0.00    -0.273 OA
BRANCH  10  13
ATOM     13  O   LIG    1       20.187  27.583  55.373  0.00  0.00    -0.295 OA
ATOM     14  H   LIG    1       20.072  27.648  56.331  0.00  0.00    +0.241 HD
ENDBRANCH  10  13
ENDBRANCH   8   9
ENDBRANCH   1   8
BRANCH   4  15
ATOM     15  C   LIG    1       26.429  32.459  56.165  0.00  0.00    +0.038 C 
BRANCH  15  16
ATOM     16  C   LIG    1       27.260  32.567  54.886  0.00  0.00    -0.013 C 
ATOM     17  C   LIG    1       28.584  31.823  55.073  0.00  0.00    +0.007 C 
ATOM     18  C   LIG    1       27.543  34.041  54.584  0.00  0.00    +0.007 C 
ENDBRANCH  15  16
ENDBRANCH   4  15
TORSDOF 5
