REMARK VINA RESULT:      -5.3      2.294      3.279
REMARK  Name = ZINC00000802
REMARK                            x       y       z     vdW  Elec       q    Type
REMARK                         _______ _______ _______ _____ _____    ______ ____
ROOT
ATOM      1  C   LIG    1       22.233  35.396  56.773  0.00  0.00    -0.036 C 
ATOM      2  N   LIG    1       23.456  36.076  57.222  0.00  0.00    +0.384 N 
ATOM      3  H   LIG    1       23.455  36.138  58.247  0.00  0.00    -0.085 HD
ATOM      4  H   LIG    1       24.275  35.539  56.913  0.00  0.00    -0.085 HD
ATOM      5  C   LIG    1       23.516  37.433  56.649  0.00  0.00    -0.077 C 
ATOM      6  C   LIG    1       22.457  38.298  57.335  0.00  0.00    +0.016 C 
ATOM      7  C   LIG    1       21.124  37.597  57.309  0.00  0.00    -0.044 A 
ATOM      8  C   LIG    1       19.981  38.344  57.556  0.00  0.00    +0.053 A 
ATOM      9  C   LIG    1       18.736  37.741  57.553  0.00  0.00    +0.158 A 
ATOM     10  C   LIG    1       18.633  36.376  57.299  0.00  0.00    +0.158 A 
ATOM     11  C   LIG    1       19.775  35.635  57.058  0.00  0.00    +0.051 A 
ATOM     12  C   LIG    1       21.021  36.245  57.054  0.00  0.00    -0.054 A 
ENDROOT
BRANCH   9  13
ATOM     13  O   LIG    1       17.619  38.478  57.796  0.00  0.00    -0.503 OA
ATOM     14  H   LIG    1       16.845  37.950  58.040  0.00  0.00    +0.292 HD
ENDBRANCH   9  13
BRANCH  10  15
ATOM     15  O   LIG    1       17.414  35.773  57.296  0.00  0.00    -0.503 OA
ATOM     16  H   LIG    1       16.682  36.367  57.078  0.00  0.00    +0.292 HD
ENDBRANCH  10  15
BRANCH   1  17
ATOM     17  C   LIG    1       22.099  34.065  57.515  0.00  0.00    +0.024 C 
BRANCH  17  20
ATOM     18  C   LIG    1       24.015  31.588  55.399  0.00  0.00    +0.165 A 
ATOM     19  C   LIG    1       23.725  32.630  56.266  0.00  0.00    +0.053 A 
ATOM     20  C   LIG    1       22.411  32.931  56.572  0.00  0.00    -0.041 A 
ATOM     21  C   LIG    1       21.382  32.190  56.021  0.00  0.00    +0.053 A 
ATOM     22  C   LIG    1       21.664  31.150  55.149  0.00  0.00    +0.165 A 
ATOM     23  C   LIG    1       22.984  30.845  54.838  0.00  0.00    +0.204 A 
BRANCH  18  25
ATOM     24  C   LIG    1       26.213  32.394  54.973  0.00  0.00    +0.277 C 
ATOM     25  O   LIG    1       25.309  31.294  55.097  0.00  0.00    -0.491 OA
ENDBRANCH  18  25
BRANCH  22  26
ATOM     26  O   LIG    1       20.650  30.426  54.604  0.00  0.00    -0.491 OA
ATOM     27  C   LIG    1       19.946  29.538  55.472  0.00  0.00    +0.277 C 
ENDBRANCH  22  26
BRANCH  23  28
ATOM     28  O   LIG    1       23.265  29.821  53.987  0.00  0.00    -0.488 OA
ATOM     29  C   LIG    1       23.448  28.527  54.566  0.00  0.00    +0.277 C 
ENDBRANCH  23  28
ENDBRANCH  17  20
ENDBRANCH   1  17
TORSDOF 7
