REMARK VINA RESULT:      -5.3      0.000      0.000
REMARK  Name = ZINC00000802
REMARK                            x       y       z     vdW  Elec       q    Type
REMARK                         _______ _______ _______ _____ _____    ______ ____
ROOT
ATOM      1  C   LIG    1       19.138  33.376  56.161  0.00  0.00    -0.036 C 
ATOM      2  N   LIG    1       17.793  33.100  55.640  0.00  0.00    +0.384 N 
ATOM      3  H   LIG    1       17.646  33.632  54.774  0.00  0.00    -0.085 HD
ATOM      4  H   LIG    1       17.705  32.096  55.443  0.00  0.00    -0.085 HD
ATOM      5  C   LIG    1       16.777  33.494  56.634  0.00  0.00    -0.077 C 
ATOM      6  C   LIG    1       16.732  35.020  56.703  0.00  0.00    +0.016 C 
ATOM      7  C   LIG    1       18.123  35.569  56.885  0.00  0.00    -0.044 A 
ATOM      8  C   LIG    1       18.264  36.880  57.319  0.00  0.00    +0.053 A 
ATOM      9  C   LIG    1       19.522  37.429  57.490  0.00  0.00    +0.158 A 
ATOM     10  C   LIG    1       20.651  36.659  57.225  0.00  0.00    +0.158 A 
ATOM     11  C   LIG    1       20.506  35.355  56.790  0.00  0.00    +0.051 A 
ATOM     12  C   LIG    1       19.242  34.805  56.627  0.00  0.00    -0.054 A 
ENDROOT
BRANCH   9  13
ATOM     13  O   LIG    1       19.655  38.714  57.915  0.00  0.00    -0.503 OA
ATOM     14  H   LIG    1       19.015  39.326  57.524  0.00  0.00    +0.292 HD
ENDBRANCH   9  13
BRANCH  10  15
ATOM     15  O   LIG    1       21.893  37.190  57.389  0.00  0.00    -0.503 OA
ATOM     16  H   LIG    1       21.915  37.967  57.965  0.00  0.00    +0.292 HD
ENDBRANCH  10  15
BRANCH   1  17
ATOM     17  C   LIG    1       20.165  33.130  55.055  0.00  0.00    +0.024 C 
BRANCH  17  20
ATOM     18  C   LIG    1       23.080  31.079  56.311  0.00  0.00    +0.165 A 
ATOM     19  C   LIG    1       22.283  32.160  55.969  0.00  0.00    +0.053 A 
ATOM     20  C   LIG    1       21.029  31.951  55.425  0.00  0.00    -0.041 A 
ATOM     21  C   LIG    1       20.563  30.665  55.226  0.00  0.00    +0.053 A 
ATOM     22  C   LIG    1       21.357  29.579  55.560  0.00  0.00    +0.165 A 
ATOM     23  C   LIG    1       22.618  29.784  56.107  0.00  0.00    +0.204 A 
BRANCH  18  25
ATOM     24  C   LIG    1       25.297  31.882  55.996  0.00  0.00    +0.277 C 
ATOM     25  O   LIG    1       24.314  31.285  56.845  0.00  0.00    -0.491 OA
ENDBRANCH  18  25
BRANCH  22  26
ATOM     26  O   LIG    1       20.899  28.314  55.359  0.00  0.00    -0.491 OA
ATOM     27  C   LIG    1       19.487  28.148  55.229  0.00  0.00    +0.277 C 
ENDBRANCH  22  26
BRANCH  23  28
ATOM     28  O   LIG    1       23.398  28.721  56.441  0.00  0.00    -0.488 OA
ATOM     29  C   LIG    1       24.270  28.212  55.429  0.00  0.00    +0.277 C 
ENDBRANCH  23  28
ENDBRANCH  17  20
ENDBRANCH   1  17
TORSDOF 7
