REMARK VINA RESULT:      -5.3      0.047      2.567
REMARK  Name = ZINC00000802
REMARK                            x       y       z     vdW  Elec       q    Type
REMARK                         _______ _______ _______ _____ _____    ______ ____
ROOT
ATOM      1  C   LIG    1       19.109  33.359  56.162  0.00  0.00    -0.036 C 
ATOM      2  N   LIG    1       17.758  33.085  55.653  0.00  0.00    +0.384 N 
ATOM      3  H   LIG    1       17.605  33.615  54.788  0.00  0.00    -0.085 HD
ATOM      4  H   LIG    1       17.666  32.081  55.460  0.00  0.00    -0.085 HD
ATOM      5  C   LIG    1       16.753  33.485  56.656  0.00  0.00    -0.077 C 
ATOM      6  C   LIG    1       16.713  35.012  56.722  0.00  0.00    +0.016 C 
ATOM      7  C   LIG    1       18.107  35.557  56.889  0.00  0.00    -0.044 A 
ATOM      8  C   LIG    1       18.256  36.869  57.317  0.00  0.00    +0.053 A 
ATOM      9  C   LIG    1       19.517  37.415  57.475  0.00  0.00    +0.158 A 
ATOM     10  C   LIG    1       20.642  36.641  57.202  0.00  0.00    +0.158 A 
ATOM     11  C   LIG    1       20.489  35.336  56.772  0.00  0.00    +0.051 A 
ATOM     12  C   LIG    1       19.221  34.790  56.622  0.00  0.00    -0.054 A 
ENDROOT
BRANCH   9  13
ATOM     13  O   LIG    1       19.657  38.701  57.896  0.00  0.00    -0.503 OA
ATOM     14  H   LIG    1       20.195  38.797  58.695  0.00  0.00    +0.292 HD
ENDBRANCH   9  13
BRANCH  10  15
ATOM     15  O   LIG    1       21.886  37.169  57.353  0.00  0.00    -0.503 OA
ATOM     16  H   LIG    1       22.440  36.696  57.988  0.00  0.00    +0.292 HD
ENDBRANCH  10  15
BRANCH   1  17
ATOM     17  C   LIG    1       20.125  33.107  55.046  0.00  0.00    +0.024 C 
BRANCH  17  20
ATOM     18  C   LIG    1       21.344  29.573  55.603  0.00  0.00    +0.165 A 
ATOM     19  C   LIG    1       20.539  30.649  55.260  0.00  0.00    +0.053 A 
ATOM     20  C   LIG    1       21.003  31.941  55.421  0.00  0.00    -0.041 A 
ATOM     21  C   LIG    1       22.272  32.166  55.920  0.00  0.00    +0.053 A 
ATOM     22  C   LIG    1       23.081  31.097  56.271  0.00  0.00    +0.165 A 
ATOM     23  C   LIG    1       22.619  29.796  56.111  0.00  0.00    +0.204 A 
BRANCH  18  25
ATOM     24  C   LIG    1       19.485  28.141  55.217  0.00  0.00    +0.277 C 
ATOM     25  O   LIG    1       20.886  28.302  55.445  0.00  0.00    -0.491 OA
ENDBRANCH  18  25
BRANCH  22  26
ATOM     26  O   LIG    1       24.328  31.320  56.767  0.00  0.00    -0.491 OA
ATOM     27  C   LIG    1       25.297  31.858  55.867  0.00  0.00    +0.277 C 
ENDBRANCH  22  26
BRANCH  23  28
ATOM     28  O   LIG    1       23.411  28.743  56.449  0.00  0.00    -0.488 OA
ATOM     29  C   LIG    1       24.243  28.200  55.421  0.00  0.00    +0.277 C 
ENDBRANCH  23  28
ENDBRANCH  17  20
ENDBRANCH   1  17
TORSDOF 7
