REMARK VINA RESULT:      -5.2      2.594      3.850
REMARK  Name = ZINC00000802
REMARK                            x       y       z     vdW  Elec       q    Type
REMARK                         _______ _______ _______ _____ _____    ______ ____
ROOT
ATOM      1  C   LIG    1       21.797  34.690  57.262  0.00  0.00    -0.036 C 
ATOM      2  N   LIG    1       22.850  35.530  57.849  0.00  0.00    +0.384 N 
ATOM      3  H   LIG    1       22.630  35.714  58.835  0.00  0.00    -0.085 HD
ATOM      4  H   LIG    1       23.750  35.039  57.786  0.00  0.00    -0.085 HD
ATOM      5  C   LIG    1       22.939  36.809  57.120  0.00  0.00    -0.077 C 
ATOM      6  C   LIG    1       21.705  37.647  57.458  0.00  0.00    +0.016 C 
ATOM      7  C   LIG    1       20.456  36.826  57.262  0.00  0.00    -0.044 A 
ATOM      8  C   LIG    1       19.239  37.488  57.172  0.00  0.00    +0.053 A 
ATOM      9  C   LIG    1       18.066  36.775  57.002  0.00  0.00    +0.158 A 
ATOM     10  C   LIG    1       18.110  35.386  56.921  0.00  0.00    +0.158 A 
ATOM     11  C   LIG    1       19.324  34.731  57.015  0.00  0.00    +0.051 A 
ATOM     12  C   LIG    1       20.500  35.451  57.177  0.00  0.00    -0.054 A 
ENDROOT
BRANCH   9  13
ATOM     13  O   LIG    1       16.876  37.429  56.914  0.00  0.00    -0.503 OA
ATOM     14  H   LIG    1       16.843  38.093  56.211  0.00  0.00    +0.292 HD
ENDBRANCH   9  13
BRANCH  10  15
ATOM     15  O   LIG    1       16.961  34.676  56.755  0.00  0.00    -0.503 OA
ATOM     16  H   LIG    1       16.659  34.225  57.555  0.00  0.00    +0.292 HD
ENDBRANCH  10  15
BRANCH   1  17
ATOM     17  C   LIG    1       21.600  33.450  58.136  0.00  0.00    +0.024 C 
BRANCH  17  20
ATOM     18  C   LIG    1       23.325  30.101  57.838  0.00  0.00    +0.165 A 
ATOM     19  C   LIG    1       22.536  31.137  58.315  0.00  0.00    +0.053 A 
ATOM     20  C   LIG    1       22.458  32.326  57.615  0.00  0.00    -0.041 A 
ATOM     21  C   LIG    1       23.161  32.486  56.435  0.00  0.00    +0.053 A 
ATOM     22  C   LIG    1       23.956  31.457  55.954  0.00  0.00    +0.165 A 
ATOM     23  C   LIG    1       24.037  30.259  56.655  0.00  0.00    +0.204 A 
BRANCH  18  25
ATOM     24  C   LIG    1       22.907  28.934  59.868  0.00  0.00    +0.277 C 
ATOM     25  O   LIG    1       23.402  28.931  58.527  0.00  0.00    -0.491 OA
ENDBRANCH  18  25
BRANCH  22  26
ATOM     26  O   LIG    1       24.650  31.618  54.797  0.00  0.00    -0.491 OA
ATOM     27  C   LIG    1       25.942  32.219  54.893  0.00  0.00    +0.277 C 
ENDBRANCH  22  26
BRANCH  23  28
ATOM     28  O   LIG    1       24.812  29.245  56.184  0.00  0.00    -0.488 OA
ATOM     29  C   LIG    1       24.164  28.248  55.391  0.00  0.00    +0.277 C 
ENDBRANCH  23  28
ENDBRANCH  17  20
ENDBRANCH   1  17
TORSDOF 7
