REMARK VINA RESULT:      -5.3      2.130      3.836
REMARK  Name = ZINC00000802
REMARK                            x       y       z     vdW  Elec       q    Type
REMARK                         _______ _______ _______ _____ _____    ______ ____
ROOT
ATOM      1  C   LIG    1       21.452  34.556  56.873  0.00  0.00    -0.036 C 
ATOM      2  N   LIG    1       22.485  35.288  57.618  0.00  0.00    +0.384 N 
ATOM      3  H   LIG    1       22.264  35.265  58.620  0.00  0.00    -0.085 HD
ATOM      4  H   LIG    1       23.398  34.845  57.459  0.00  0.00    -0.085 HD
ATOM      5  C   LIG    1       22.536  36.690  57.161  0.00  0.00    -0.077 C 
ATOM      6  C   LIG    1       21.282  37.409  57.658  0.00  0.00    +0.016 C 
ATOM      7  C   LIG    1       20.055  36.612  57.300  0.00  0.00    -0.044 A 
ATOM      8  C   LIG    1       18.821  37.245  57.343  0.00  0.00    +0.053 A 
ATOM      9  C   LIG    1       17.666  36.550  57.032  0.00  0.00    +0.158 A 
ATOM     10  C   LIG    1       17.746  35.207  56.674  0.00  0.00    +0.158 A 
ATOM     11  C   LIG    1       18.977  34.580  56.636  0.00  0.00    +0.051 A 
ATOM     12  C   LIG    1       20.135  35.283  56.941  0.00  0.00    -0.054 A 
ENDROOT
BRANCH   9  13
ATOM     13  O   LIG    1       16.459  37.175  57.076  0.00  0.00    -0.503 OA
ATOM     14  H   LIG    1       16.512  38.118  57.290  0.00  0.00    +0.292 HD
ENDBRANCH   9  13
BRANCH  10  15
ATOM     15  O   LIG    1       16.616  34.514  56.368  0.00  0.00    -0.503 OA
ATOM     16  H   LIG    1       16.030  34.365  57.122  0.00  0.00    +0.292 HD
ENDBRANCH  10  15
BRANCH   1  17
ATOM     17  C   LIG    1       21.291  33.161  57.480  0.00  0.00    +0.024 C 
BRANCH  17  20
ATOM     18  C   LIG    1       21.317  30.113  55.245  0.00  0.00    +0.165 A 
ATOM     19  C   LIG    1       20.907  31.068  56.163  0.00  0.00    +0.053 A 
ATOM     20  C   LIG    1       21.740  32.124  56.481  0.00  0.00    -0.041 A 
ATOM     21  C   LIG    1       22.981  32.237  55.882  0.00  0.00    +0.053 A 
ATOM     22  C   LIG    1       23.400  31.283  54.967  0.00  0.00    +0.165 A 
ATOM     23  C   LIG    1       22.566  30.219  54.645  0.00  0.00    +0.204 A 
BRANCH  18  25
ATOM     24  C   LIG    1       20.343  28.050  55.920  0.00  0.00    +0.277 C 
ATOM     25  O   LIG    1       20.497  29.073  54.933  0.00  0.00    -0.491 OA
ENDBRANCH  18  25
BRANCH  22  26
ATOM     26  O   LIG    1       24.623  31.392  54.383  0.00  0.00    -0.491 OA
ATOM     27  C   LIG    1       25.654  32.018  55.147  0.00  0.00    +0.277 C 
ENDBRANCH  22  26
BRANCH  23  28
ATOM     28  O   LIG    1       22.971  29.283  53.744  0.00  0.00    -0.488 OA
ATOM     29  C   LIG    1       23.700  28.164  54.253  0.00  0.00    +0.277 C 
ENDBRANCH  23  28
ENDBRANCH  17  20
ENDBRANCH   1  17
TORSDOF 7
