REMARK VINA RESULT:      -5.6      0.000      0.000
REMARK  Name = ZINC00000075
REMARK                            x       y       z     vdW  Elec       q    Type
REMARK                         _______ _______ _______ _____ _____    ______ ____
ROOT
ATOM      1  O   LIG    1       24.047  30.917  54.724  0.00  0.00    -0.459 OA
ENDROOT
BRANCH   1   2
ATOM      2  C   LIG    1       23.016  30.151  55.347  0.00  0.00    +0.163 C 
ATOM      3  C   LIG    1       21.997  29.710  54.293  0.00  0.00    -0.033 C 
ATOM      4  N   LIG    1       20.673  30.244  54.621  0.00  0.00    +0.382 N 
ATOM      5  H   LIG    1       20.023  29.944  53.912  0.00  0.00    -0.082 HD
ATOM      6  C   LIG    1       20.695  31.710  54.627  0.00  0.00    -0.078 C 
ATOM      7  C   LIG    1       21.670  32.216  55.691  0.00  0.00    -0.012 C 
ATOM      8  C   LIG    1       20.217  29.730  55.915  0.00  0.00    -0.078 C 
ATOM      9  C   LIG    1       21.179  30.171  57.025  0.00  0.00    -0.012 C 
ATOM     10  C   LIG    1       22.303  31.008  56.401  0.00  0.00    +0.024 C 
ENDBRANCH   1   2
BRANCH   1  11
ATOM     11  C   LIG    1       25.195  31.073  55.413  0.00  0.00    +0.339 C 
ATOM     12  O   LIG    1       25.594  30.183  56.137  0.00  0.00    -0.245 OA
BRANCH  11  16
ATOM     13  C   LIG    1       27.420  34.672  55.048  0.00  0.00    +0.000 A 
ATOM     14  C   LIG    1       26.519  34.522  56.087  0.00  0.00    +0.001 A 
ATOM     15  C   LIG    1       25.793  33.356  56.212  0.00  0.00    +0.015 A 
ATOM     16  C   LIG    1       25.969  32.325  55.286  0.00  0.00    +0.059 A 
ATOM     17  C   LIG    1       26.880  32.483  54.239  0.00  0.00    +0.015 A 
ATOM     18  C   LIG    1       27.599  33.655  54.127  0.00  0.00    +0.001 A 
ENDBRANCH  11  16
ENDBRANCH   1  11
TORSDOF 3
