REMARK VINA RESULT:      -5.5      1.040      1.620
REMARK  Name = ZINC00000075
REMARK                            x       y       z     vdW  Elec       q    Type
REMARK                         _______ _______ _______ _____ _____    ______ ____
ROOT
ATOM      1  O   LIG    1       23.471  31.497  54.770  0.00  0.00    -0.459 OA
ENDROOT
BRANCH   1   2
ATOM      2  C   LIG    1       22.374  31.022  55.552  0.00  0.00    +0.163 C 
ATOM      3  C   LIG    1       21.089  31.083  54.724  0.00  0.00    -0.033 C 
ATOM      4  N   LIG    1       20.114  31.963  55.374  0.00  0.00    +0.382 N 
ATOM      5  H   LIG    1       19.281  31.989  54.808  0.00  0.00    -0.082 HD
ATOM      6  C   LIG    1       20.638  33.327  55.475  0.00  0.00    -0.078 C 
ATOM      7  C   LIG    1       21.907  33.340  56.328  0.00  0.00    -0.012 C 
ATOM      8  C   LIG    1       19.758  31.447  56.698  0.00  0.00    -0.078 C 
ATOM      9  C   LIG    1       21.002  31.396  57.594  0.00  0.00    -0.012 C 
ATOM     10  C   LIG    1       22.208  31.907  56.795  0.00  0.00    +0.024 C 
ENDBRANCH   1   2
BRANCH   1  11
ATOM     11  C   LIG    1       24.708  31.281  55.258  0.00  0.00    +0.339 C 
ATOM     12  O   LIG    1       24.989  30.207  55.750  0.00  0.00    -0.245 OA
BRANCH  11  16
ATOM     13  C   LIG    1       27.631  34.357  55.071  0.00  0.00    +0.000 A 
ATOM     14  C   LIG    1       27.615  33.363  54.107  0.00  0.00    +0.001 A 
ATOM     15  C   LIG    1       26.668  32.362  54.162  0.00  0.00    +0.015 A 
ATOM     16  C   LIG    1       25.725  32.351  55.192  0.00  0.00    +0.059 A 
ATOM     17  C   LIG    1       25.748  33.357  56.161  0.00  0.00    +0.015 A 
ATOM     18  C   LIG    1       26.700  34.353  56.094  0.00  0.00    +0.001 A 
ENDBRANCH  11  16
ENDBRANCH   1  11
TORSDOF 3
