REMARK VINA RESULT:      -5.1      2.517      6.070
REMARK  Name = ZINC00000075
REMARK                            x       y       z     vdW  Elec       q    Type
REMARK                         _______ _______ _______ _____ _____    ______ ____
ROOT
ATOM      1  O   LIG    1       24.908  31.879  54.589  0.00  0.00    -0.459 OA
ENDROOT
BRANCH   1   2
ATOM      2  C   LIG    1       26.102  31.831  55.372  0.00  0.00    +0.163 C 
ATOM      3  C   LIG    1       26.126  33.013  56.343  0.00  0.00    -0.033 C 
ATOM      4  N   LIG    1       27.301  33.850  56.085  0.00  0.00    +0.382 N 
ATOM      5  H   LIG    1       27.291  34.622  56.733  0.00  0.00    -0.082 HD
ATOM      6  C   LIG    1       27.257  34.396  54.727  0.00  0.00    -0.078 C 
ATOM      7  C   LIG    1       27.270  33.259  53.703  0.00  0.00    -0.012 C 
ATOM      8  C   LIG    1       28.533  33.085  56.295  0.00  0.00    -0.078 C 
ATOM      9  C   LIG    1       28.588  31.901  55.322  0.00  0.00    -0.012 C 
ATOM     10  C   LIG    1       27.325  31.917  54.451  0.00  0.00    +0.024 C 
ENDBRANCH   1   2
BRANCH   1  11
ATOM     11  C   LIG    1       23.764  31.502  55.193  0.00  0.00    +0.339 C 
ATOM     12  O   LIG    1       22.890  32.319  55.404  0.00  0.00    -0.245 OA
BRANCH  11  16
ATOM     13  C   LIG    1       23.208  27.456  56.359  0.00  0.00    +0.000 A 
ATOM     14  C   LIG    1       23.573  27.754  55.057  0.00  0.00    +0.001 A 
ATOM     15  C   LIG    1       23.755  29.066  54.672  0.00  0.00    +0.015 A 
ATOM     16  C   LIG    1       23.571  30.094  55.598  0.00  0.00    +0.059 A 
ATOM     17  C   LIG    1       23.203  29.786  56.910  0.00  0.00    +0.015 A 
ATOM     18  C   LIG    1       23.024  28.470  57.281  0.00  0.00    +0.001 A 
ENDBRANCH  11  16
ENDBRANCH   1  11
TORSDOF 3
