REMARK VINA RESULT:      -5.3      1.357      2.380
REMARK  Name = ZINC00000075
REMARK                            x       y       z     vdW  Elec       q    Type
REMARK                         _______ _______ _______ _____ _____    ______ ____
ROOT
ATOM      1  O   LIG    1       23.834  31.911  56.917  0.00  0.00    -0.459 OA
ENDROOT
BRANCH   1   2
ATOM      2  C   LIG    1       22.819  32.298  55.988  0.00  0.00    +0.163 C 
ATOM      3  C   LIG    1       21.946  33.391  56.608  0.00  0.00    -0.033 C 
ATOM      4  N   LIG    1       20.555  32.937  56.688  0.00  0.00    +0.382 N 
ATOM      5  H   LIG    1       20.003  33.671  57.103  0.00  0.00    -0.082 HD
ATOM      6  C   LIG    1       20.449  31.751  57.542  0.00  0.00    -0.078 C 
ATOM      7  C   LIG    1       21.272  30.604  56.954  0.00  0.00    -0.012 C 
ATOM      8  C   LIG    1       20.027  32.658  55.350  0.00  0.00    -0.078 C 
ATOM      9  C   LIG    1       20.839  31.540  54.687  0.00  0.00    -0.012 C 
ATOM     10  C   LIG    1       21.939  31.086  55.655  0.00  0.00    +0.024 C 
ENDBRANCH   1   2
BRANCH   1  11
ATOM     11  C   LIG    1       24.995  31.462  56.402  0.00  0.00    +0.339 C 
ATOM     12  O   LIG    1       25.286  30.285  56.495  0.00  0.00    -0.245 OA
BRANCH  11  16
ATOM     13  C   LIG    1       27.639  34.153  54.452  0.00  0.00    +0.000 A 
ATOM     14  C   LIG    1       27.392  32.909  53.899  0.00  0.00    +0.001 A 
ATOM     15  C   LIG    1       26.534  32.030  54.527  0.00  0.00    +0.015 A 
ATOM     16  C   LIG    1       25.914  32.398  55.723  0.00  0.00    +0.059 A 
ATOM     17  C   LIG    1       26.169  33.655  56.276  0.00  0.00    +0.015 A 
ATOM     18  C   LIG    1       27.029  34.524  55.637  0.00  0.00    +0.001 A 
ENDBRANCH  11  16
ENDBRANCH   1  11
TORSDOF 3
