REMARK VINA RESULT:      -5.6      1.034      2.080
REMARK  Name = ZINC00000075
REMARK                            x       y       z     vdW  Elec       q    Type
REMARK                         _______ _______ _______ _____ _____    ______ ____
ROOT
ATOM      1  O   LIG    1       24.280  30.575  55.931  0.00  0.00    -0.459 OA
ENDROOT
BRANCH   1   2
ATOM      2  C   LIG    1       22.925  31.025  55.974  0.00  0.00    +0.163 C 
ATOM      3  C   LIG    1       22.105  30.098  56.873  0.00  0.00    -0.033 C 
ATOM      4  N   LIG    1       21.020  29.483  56.104  0.00  0.00    +0.382 N 
ATOM      5  H   LIG    1       20.499  28.875  56.717  0.00  0.00    -0.082 HD
ATOM      6  C   LIG    1       21.560  28.671  55.010  0.00  0.00    -0.078 C 
ATOM      7  C   LIG    1       22.362  29.550  54.050  0.00  0.00    -0.012 C 
ATOM      8  C   LIG    1       20.112  30.508  55.585  0.00  0.00    -0.078 C 
ATOM      9  C   LIG    1       20.867  31.452  54.642  0.00  0.00    -0.012 C 
ATOM     10  C   LIG    1       22.331  31.000  54.559  0.00  0.00    +0.024 C 
ENDBRANCH   1   2
BRANCH   1  11
ATOM     11  C   LIG    1       25.192  31.317  56.590  0.00  0.00    +0.339 C 
ATOM     12  O   LIG    1       25.332  31.184  57.790  0.00  0.00    -0.245 OA
BRANCH  11  16
ATOM     13  C   LIG    1       27.582  34.119  54.475  0.00  0.00    +0.000 A 
ATOM     14  C   LIG    1       27.433  32.833  53.986  0.00  0.00    +0.001 A 
ATOM     15  C   LIG    1       26.659  31.918  54.668  0.00  0.00    +0.015 A 
ATOM     16  C   LIG    1       26.023  32.291  55.854  0.00  0.00    +0.059 A 
ATOM     17  C   LIG    1       26.177  33.591  56.342  0.00  0.00    +0.015 A 
ATOM     18  C   LIG    1       26.955  34.496  55.649  0.00  0.00    +0.001 A 
ENDBRANCH  11  16
ENDBRANCH   1  11
TORSDOF 3
