REMARK VINA RESULT:      -5.7      4.610      8.504
REMARK  Name = ZINC00000103
REMARK                            x       y       z     vdW  Elec       q    Type
REMARK                         _______ _______ _______ _____ _____    ______ ____
ROOT
ATOM      1  C   LIG    1       16.368  32.202  56.686  0.00  0.00    -0.095 C 
ATOM      2  N   LIG    1       17.603  32.979  56.855  0.00  0.00    +0.383 N 
ATOM      3  H   LIG    1       18.001  32.784  57.762  0.00  0.00    -0.081 HD
ATOM      4  C   LIG    1       18.560  32.605  55.813  0.00  0.00    -0.074 C 
ATOM      5  C   LIG    1       19.915  33.245  56.067  0.00  0.00    +0.017 C 
ATOM      6  C   LIG    1       19.789  34.653  56.578  0.00  0.00    -0.043 A 
ATOM      7  C   LIG    1       20.947  35.409  56.708  0.00  0.00    +0.053 A 
ATOM      8  C   LIG    1       20.893  36.721  57.146  0.00  0.00    +0.167 A 
ATOM      9  C   LIG    1       19.665  37.290  57.466  0.00  0.00    +0.174 A 
ATOM     10  O   LIG    1       19.871  38.582  57.855  0.00  0.00    -0.452 OA
ATOM     11  C   LIG    1       21.273  38.669  58.170  0.00  0.00    +0.466 C 
ATOM     12  C   LIG    1       18.506  36.527  57.356  0.00  0.00    +0.033 A 
ATOM     13  C   LIG    1       17.188  37.114  57.694  0.00  0.00    +0.034 A 
ATOM     14  C   LIG    1       17.027  38.496  57.787  0.00  0.00    +0.167 A 
ATOM     15  C   LIG    1       15.776  39.023  58.089  0.00  0.00    +0.162 A 
ATOM     16  C   LIG    1       14.700  38.173  58.294  0.00  0.00    +0.050 A 
ATOM     17  C   LIG    1       14.865  36.802  58.209  0.00  0.00    +0.008 A 
ATOM     18  C   LIG    1       16.103  36.269  57.918  0.00  0.00    -0.037 A 
ATOM     19  C   LIG    1       16.294  34.779  57.845  0.00  0.00    +0.025 C 
ATOM     20  O   LIG    1       21.872  37.652  57.346  0.00  0.00    -0.453 OA
ATOM     21  C   LIG    1       18.569  35.206  56.902  0.00  0.00    -0.046 A 
ATOM     22  C   LIG    1       17.297  34.413  56.753  0.00  0.00    -0.033 C 
ENDROOT
BRANCH  14  23
ATOM     23  O   LIG    1       18.087  39.323  57.584  0.00  0.00    -0.503 OA
ATOM     24  H   LIG    1       18.286  39.487  56.653  0.00  0.00    +0.292 HD
ENDBRANCH  14  23
BRANCH  15  25
ATOM     25  O   LIG    1       15.608  40.368  58.184  0.00  0.00    -0.491 OA
ATOM     26  C   LIG    1       14.461  40.926  57.541  0.00  0.00    +0.277 C 
ENDBRANCH  15  25
TORSDOF 2
