REMARK VINA RESULT:      -5.8      1.707      2.843
REMARK  Name = ZINC00000103
REMARK                            x       y       z     vdW  Elec       q    Type
REMARK                         _______ _______ _______ _____ _____    ______ ____
ROOT
ATOM      1  C   LIG    1       23.571  37.489  57.907  0.00  0.00    -0.095 C 
ATOM      2  N   LIG    1       22.126  37.223  57.895  0.00  0.00    +0.383 N 
ATOM      3  H   LIG    1       21.820  36.984  58.827  0.00  0.00    -0.081 HD
ATOM      4  C   LIG    1       21.414  38.418  57.440  0.00  0.00    -0.074 C 
ATOM      5  C   LIG    1       19.911  38.244  57.596  0.00  0.00    +0.017 C 
ATOM      6  C   LIG    1       19.462  36.854  57.240  0.00  0.00    -0.043 A 
ATOM      7  C   LIG    1       18.097  36.599  57.191  0.00  0.00    +0.053 A 
ATOM      8  C   LIG    1       17.621  35.348  56.843  0.00  0.00    +0.167 A 
ATOM      9  C   LIG    1       18.519  34.328  56.544  0.00  0.00    +0.174 A 
ATOM     10  O   LIG    1       17.813  33.206  56.221  0.00  0.00    -0.452 OA
ATOM     11  C   LIG    1       16.485  33.428  56.729  0.00  0.00    +0.466 C 
ATOM     12  C   LIG    1       19.887  34.576  56.613  0.00  0.00    +0.033 A 
ATOM     13  C   LIG    1       20.860  33.503  56.301  0.00  0.00    +0.034 A 
ATOM     14  C   LIG    1       20.460  32.360  55.610  0.00  0.00    +0.167 A 
ATOM     15  C   LIG    1       21.397  31.375  55.314  0.00  0.00    +0.162 A 
ATOM     16  C   LIG    1       22.716  31.535  55.706  0.00  0.00    +0.050 A 
ATOM     17  C   LIG    1       23.108  32.668  56.398  0.00  0.00    +0.008 A 
ATOM     18  C   LIG    1       22.186  33.647  56.704  0.00  0.00    -0.037 A 
ATOM     19  C   LIG    1       22.600  34.870  57.475  0.00  0.00    +0.025 C 
ATOM     20  O   LIG    1       16.351  34.862  56.720  0.00  0.00    -0.453 OA
ATOM     21  C   LIG    1       20.359  35.848  56.955  0.00  0.00    -0.046 A 
ATOM     22  C   LIG    1       21.843  36.103  56.985  0.00  0.00    -0.033 C 
ENDROOT
BRANCH  14  23
ATOM     23  O   LIG    1       19.164  32.209  55.228  0.00  0.00    -0.503 OA
ATOM     24  H   LIG    1       18.571  31.950  55.946  0.00  0.00    +0.292 HD
ENDBRANCH  14  23
BRANCH  15  25
ATOM     25  O   LIG    1       21.018  30.255  54.642  0.00  0.00    -0.491 OA
ATOM     26  C   LIG    1       21.987  29.213  54.520  0.00  0.00    +0.277 C 
ENDBRANCH  15  25
TORSDOF 2
