REMARK VINA RESULT:      -5.7      3.146      5.009
REMARK  Name = ZINC00000103
REMARK                            x       y       z     vdW  Elec       q    Type
REMARK                         _______ _______ _______ _____ _____    ______ ____
ROOT
ATOM      1  C   LIG    1       15.884  33.802  56.712  0.00  0.00    -0.095 C 
ATOM      2  N   LIG    1       16.840  34.914  56.797  0.00  0.00    +0.383 N 
ATOM      3  H   LIG    1       16.832  35.432  55.931  0.00  0.00    -0.081 HD
ATOM      4  C   LIG    1       16.459  35.800  57.898  0.00  0.00    -0.074 C 
ATOM      5  C   LIG    1       17.311  37.060  57.897  0.00  0.00    +0.017 C 
ATOM      6  C   LIG    1       18.746  36.774  57.553  0.00  0.00    -0.043 A 
ATOM      7  C   LIG    1       19.666  37.809  57.664  0.00  0.00    +0.053 A 
ATOM      8  C   LIG    1       21.006  37.600  57.388  0.00  0.00    +0.167 A 
ATOM      9  C   LIG    1       21.438  36.340  56.989  0.00  0.00    +0.174 A 
ATOM     10  O   LIG    1       22.788  36.385  56.791  0.00  0.00    -0.452 OA
ATOM     11  C   LIG    1       23.112  37.782  56.669  0.00  0.00    +0.466 C 
ATOM     12  C   LIG    1       20.514  35.307  56.857  0.00  0.00    +0.033 A 
ATOM     13  C   LIG    1       20.955  33.958  56.430  0.00  0.00    +0.034 A 
ATOM     14  C   LIG    1       22.300  33.597  56.489  0.00  0.00    +0.167 A 
ATOM     15  C   LIG    1       22.685  32.319  56.099  0.00  0.00    +0.162 A 
ATOM     16  C   LIG    1       21.733  31.415  55.656  0.00  0.00    +0.050 A 
ATOM     17  C   LIG    1       20.399  31.779  55.592  0.00  0.00    +0.008 A 
ATOM     18  C   LIG    1       20.007  33.046  55.969  0.00  0.00    -0.037 A 
ATOM     19  C   LIG    1       18.563  33.456  55.880  0.00  0.00    +0.025 C 
ATOM     20  O   LIG    1       22.082  38.439  57.430  0.00  0.00    -0.453 OA
ATOM     21  C   LIG    1       19.164  35.525  57.149  0.00  0.00    -0.046 A 
ATOM     22  C   LIG    1       18.189  34.382  57.037  0.00  0.00    -0.033 C 
ENDROOT
BRANCH  14  23
ATOM     23  O   LIG    1       23.230  34.489  56.925  0.00  0.00    -0.503 OA
ATOM     24  H   LIG    1       23.213  34.639  57.879  0.00  0.00    +0.292 HD
ENDBRANCH  14  23
BRANCH  15  25
ATOM     25  O   LIG    1       23.995  31.957  56.151  0.00  0.00    -0.491 OA
ATOM     26  C   LIG    1       24.607  31.558  54.923  0.00  0.00    +0.277 C 
ENDBRANCH  15  25
TORSDOF 2
