REMARK VINA RESULT:      -5.8      2.230      4.991
REMARK  Name = ZINC00000103
REMARK                            x       y       z     vdW  Elec       q    Type
REMARK                         _______ _______ _______ _____ _____    ______ ____
ROOT
ATOM      1  C   LIG    1       15.498  32.911  56.904  0.00  0.00    -0.095 C 
ATOM      2  N   LIG    1       16.856  32.887  56.345  0.00  0.00    +0.383 N 
ATOM      3  H   LIG    1       16.818  33.096  55.359  0.00  0.00    -0.081 HD
ATOM      4  C   LIG    1       17.679  33.890  57.023  0.00  0.00    -0.074 C 
ATOM      5  C   LIG    1       19.033  34.027  56.345  0.00  0.00    +0.017 C 
ATOM      6  C   LIG    1       19.582  32.699  55.903  0.00  0.00    -0.043 A 
ATOM      7  C   LIG    1       20.878  32.658  55.406  0.00  0.00    +0.053 A 
ATOM      8  C   LIG    1       21.450  31.462  55.009  0.00  0.00    +0.167 A 
ATOM      9  C   LIG    1       20.715  30.285  55.103  0.00  0.00    +0.174 A 
ATOM     10  O   LIG    1       21.493  29.250  54.668  0.00  0.00    -0.452 OA
ATOM     11  C   LIG    1       22.559  29.861  53.918  0.00  0.00    +0.466 C 
ATOM     12  C   LIG    1       19.409  30.326  55.581  0.00  0.00    +0.033 A 
ATOM     13  C   LIG    1       18.609  29.083  55.686  0.00  0.00    +0.034 A 
ATOM     14  C   LIG    1       19.228  27.834  55.649  0.00  0.00    +0.167 A 
ATOM     15  C   LIG    1       18.457  26.683  55.767  0.00  0.00    +0.162 A 
ATOM     16  C   LIG    1       17.083  26.784  55.920  0.00  0.00    +0.050 A 
ATOM     17  C   LIG    1       16.471  28.025  55.948  0.00  0.00    +0.008 A 
ATOM     18  C   LIG    1       17.225  29.173  55.824  0.00  0.00    -0.037 A 
ATOM     19  C   LIG    1       16.565  30.524  55.831  0.00  0.00    +0.025 C 
ATOM     20  O   LIG    1       22.684  31.169  54.504  0.00  0.00    -0.453 OA
ATOM     21  C   LIG    1       18.844  31.539  55.990  0.00  0.00    -0.046 A 
ATOM     22  C   LIG    1       17.442  31.554  56.541  0.00  0.00    -0.033 C 
ENDROOT
BRANCH  14  23
ATOM     23  O   LIG    1       20.576  27.743  55.500  0.00  0.00    -0.503 OA
ATOM     24  H   LIG    1       20.934  26.864  55.686  0.00  0.00    +0.292 HD
ENDBRANCH  14  23
BRANCH  15  25
ATOM     25  O   LIG    1       19.049  25.460  55.732  0.00  0.00    -0.491 OA
ATOM     26  C   LIG    1       18.189  24.326  55.607  0.00  0.00    +0.277 C 
ENDBRANCH  15  25
TORSDOF 2
