REMARK VINA RESULT:      -5.9      0.000      0.000
REMARK  Name = ZINC00000103
REMARK                            x       y       z     vdW  Elec       q    Type
REMARK                         _______ _______ _______ _____ _____    ______ ____
ROOT
ATOM      1  C   LIG    1       21.984  36.375  57.437  0.00  0.00    -0.095 C 
ATOM      2  N   LIG    1       20.869  35.419  57.422  0.00  0.00    +0.383 N 
ATOM      3  H   LIG    1       20.757  35.018  58.342  0.00  0.00    -0.081 HD
ATOM      4  C   LIG    1       19.638  36.112  57.041  0.00  0.00    -0.074 C 
ATOM      5  C   LIG    1       18.432  35.200  57.199  0.00  0.00    +0.017 C 
ATOM      6  C   LIG    1       18.728  33.790  56.770  0.00  0.00    -0.043 A 
ATOM      7  C   LIG    1       17.675  32.886  56.718  0.00  0.00    +0.053 A 
ATOM      8  C   LIG    1       17.879  31.581  56.304  0.00  0.00    +0.167 A 
ATOM      9  C   LIG    1       19.156  31.166  55.941  0.00  0.00    +0.174 A 
ATOM     10  O   LIG    1       19.097  29.856  55.562  0.00  0.00    -0.452 OA
ATOM     11  C   LIG    1       17.855  29.358  56.093  0.00  0.00    +0.466 C 
ATOM     12  C   LIG    1       20.216  32.065  56.013  0.00  0.00    +0.033 A 
ATOM     13  C   LIG    1       21.584  31.641  55.633  0.00  0.00    +0.034 A 
ATOM     14  C   LIG    1       21.788  30.484  54.883  0.00  0.00    +0.167 A 
ATOM     15  C   LIG    1       23.081  30.118  54.524  0.00  0.00    +0.162 A 
ATOM     16  C   LIG    1       24.155  30.903  54.913  0.00  0.00    +0.050 A 
ATOM     17  C   LIG    1       23.950  32.047  55.665  0.00  0.00    +0.008 A 
ATOM     18  C   LIG    1       22.672  32.415  56.032  0.00  0.00    -0.037 A 
ATOM     19  C   LIG    1       22.444  33.645  56.868  0.00  0.00    +0.025 C 
ATOM     20  O   LIG    1       17.020  30.528  56.165  0.00  0.00    -0.453 OA
ATOM     21  C   LIG    1       19.998  33.384  56.421  0.00  0.00    -0.046 A 
ATOM     22  C   LIG    1       21.154  34.350  56.454  0.00  0.00    -0.033 C 
ENDROOT
BRANCH  14  23
ATOM     23  O   LIG    1       20.730  29.719  54.504  0.00  0.00    -0.503 OA
ATOM     24  H   LIG    1       20.312  29.238  55.231  0.00  0.00    +0.292 HD
ENDBRANCH  14  23
BRANCH  15  25
ATOM     25  O   LIG    1       23.292  28.991  53.794  0.00  0.00    -0.491 OA
ATOM     26  C   LIG    1       23.900  27.886  54.466  0.00  0.00    +0.277 C 
ENDBRANCH  15  25
TORSDOF 2
