REMARK VINA RESULT:      -5.5      2.239      5.832
REMARK  Name = ZINC00000346
REMARK                            x       y       z     vdW  Elec       q    Type
REMARK                         _______ _______ _______ _____ _____    ______ ____
ROOT
ATOM      1  C   LIG    1       21.841  31.297  55.350  0.00  0.00    +0.190 C 
ENDROOT
BRANCH   1   2
ATOM      2  C   LIG    1       21.628  32.522  56.203  0.00  0.00    -0.005 A 
ATOM      3  C   LIG    1       22.022  32.519  57.528  0.00  0.00    +0.007 A 
ATOM      4  C   LIG    1       21.826  33.641  58.310  0.00  0.00    +0.000 A 
ATOM      5  C   LIG    1       21.236  34.768  57.767  0.00  0.00    +0.000 A 
ATOM      6  C   LIG    1       20.843  34.771  56.442  0.00  0.00    +0.000 A 
ATOM      7  C   LIG    1       21.043  33.650  55.659  0.00  0.00    +0.007 A 
ENDBRANCH   1   2
BRANCH   1   8
ATOM      8  C   LIG    1       21.030  30.131  55.920  0.00  0.00    +0.036 C 
ATOM      9  C   LIG    1       21.004  28.944  54.926  0.00  0.00    +0.007 C 
ATOM     10  C   LIG    1       19.732  28.160  55.308  0.00  0.00    +0.000 C 
ATOM     11  C   LIG    1       18.797  29.156  56.015  0.00  0.00    +0.000 C 
ATOM     12  C   LIG    1       19.534  30.511  56.040  0.00  0.00    +0.007 C 
ENDBRANCH   1   8
BRANCH   1  13
ATOM     13  C   LIG    1       23.305  30.937  55.347  0.00  0.00    +0.344 C 
ATOM     14  O   LIG    1       23.729  30.123  56.134  0.00  0.00    -0.247 OA
BRANCH  13  15
ATOM     15  O   LIG    1       24.137  31.520  54.471  0.00  0.00    -0.461 OA
BRANCH  15  21
ATOM     16  C   LIG    1       27.654  33.197  56.787  0.00  0.00    -0.092 C 
ATOM     17  N   LIG    1       26.873  33.626  55.619  0.00  0.00    +0.379 N 
ATOM     18  C   LIG    1       26.872  35.092  55.535  0.00  0.00    -0.092 C 
ATOM     19  C   LIG    1       27.465  33.062  54.391  0.00  0.00    -0.072 C 
ATOM     20  C   LIG    1       26.394  32.160  53.740  0.00  0.00    +0.025 C 
ATOM     21  C   LIG    1       25.459  31.815  54.928  0.00  0.00    +0.159 C 
ATOM     22  C   LIG    1       25.484  33.134  55.741  0.00  0.00    -0.031 C 
ENDBRANCH  15  21
ENDBRANCH  13  15
ENDBRANCH   1  13
BRANCH   1  23
ATOM     23  O   LIG    1       21.415  31.567  54.014  0.00  0.00    -0.373 OA
ATOM     24  H   LIG    1       21.162  30.779  53.515  0.00  0.00    +0.211 HD
ENDBRANCH   1  23
TORSDOF 6
