REMARK VINA RESULT:      -5.4      2.634      5.854
REMARK  Name = ZINC00000346
REMARK                            x       y       z     vdW  Elec       q    Type
REMARK                         _______ _______ _______ _____ _____    ______ ____
ROOT
ATOM      1  C   LIG    1       22.435  30.642  57.727  0.00  0.00    +0.190 C 
ENDROOT
BRANCH   1   2
ATOM      2  C   LIG    1       21.854  31.841  57.021  0.00  0.00    -0.005 A 
ATOM      3  C   LIG    1       21.992  33.101  57.570  0.00  0.00    +0.007 A 
ATOM      4  C   LIG    1       21.459  34.200  56.923  0.00  0.00    +0.000 A 
ATOM      5  C   LIG    1       20.787  34.037  55.725  0.00  0.00    +0.000 A 
ATOM      6  C   LIG    1       20.649  32.777  55.175  0.00  0.00    +0.000 A 
ATOM      7  C   LIG    1       21.186  31.679  55.821  0.00  0.00    +0.007 A 
ENDBRANCH   1   2
BRANCH   1   8
ATOM      8  C   LIG    1       22.420  30.884  59.238  0.00  0.00    +0.036 C 
ATOM      9  C   LIG    1       23.420  29.943  59.953  0.00  0.00    +0.007 C 
ATOM     10  C   LIG    1       22.882  29.846  61.396  0.00  0.00    +0.000 C 
ATOM     11  C   LIG    1       21.381  30.177  61.328  0.00  0.00    +0.000 C 
ATOM     12  C   LIG    1       21.059  30.465  59.847  0.00  0.00    +0.007 C 
ENDBRANCH   1   8
BRANCH   1  13
ATOM     13  C   LIG    1       23.854  30.428  57.266  0.00  0.00    +0.344 C 
ATOM     14  O   LIG    1       24.206  29.339  56.878  0.00  0.00    -0.247 OA
BRANCH  13  15
ATOM     15  O   LIG    1       24.726  31.448  57.287  0.00  0.00    -0.461 OA
BRANCH  15  21
ATOM     16  C   LIG    1       28.643  32.104  55.102  0.00  0.00    -0.092 C 
ATOM     17  N   LIG    1       27.378  32.841  55.221  0.00  0.00    +0.379 N 
ATOM     18  C   LIG    1       27.625  34.279  55.061  0.00  0.00    -0.092 C 
ATOM     19  C   LIG    1       26.438  32.384  54.180  0.00  0.00    -0.072 C 
ATOM     20  C   LIG    1       25.207  31.795  54.902  0.00  0.00    +0.025 C 
ATOM     21  C   LIG    1       25.764  31.434  56.304  0.00  0.00    +0.159 C 
ATOM     22  C   LIG    1       26.774  32.583  56.545  0.00  0.00    -0.031 C 
ENDBRANCH  15  21
ENDBRANCH  13  15
ENDBRANCH   1  13
BRANCH   1  23
ATOM     23  O   LIG    1       21.656  29.484  57.421  0.00  0.00    -0.373 OA
ATOM     24  H   LIG    1       21.276  29.489  56.532  0.00  0.00    +0.211 HD
ENDBRANCH   1  23
TORSDOF 6
