REMARK VINA RESULT:      -5.7      2.085      4.845
REMARK  Name = ZINC00000346
REMARK                            x       y       z     vdW  Elec       q    Type
REMARK                         _______ _______ _______ _____ _____    ______ ____
ROOT
ATOM      1  C   LIG    1       24.921  30.939  56.014  0.00  0.00    +0.190 C 
ENDROOT
BRANCH   1   2
ATOM      2  C   LIG    1       26.028  31.894  55.646  0.00  0.00    -0.005 A 
ATOM      3  C   LIG    1       26.217  32.258  54.327  0.00  0.00    +0.007 A 
ATOM      4  C   LIG    1       27.233  33.134  53.990  0.00  0.00    +0.000 A 
ATOM      5  C   LIG    1       28.059  33.644  54.974  0.00  0.00    +0.000 A 
ATOM      6  C   LIG    1       27.870  33.281  56.294  0.00  0.00    +0.000 A 
ATOM      7  C   LIG    1       26.851  32.409  56.631  0.00  0.00    +0.007 A 
ENDBRANCH   1   2
BRANCH   1   8
ATOM      8  C   LIG    1       23.862  30.937  54.909  0.00  0.00    +0.036 C 
ATOM      9  C   LIG    1       22.528  31.528  55.427  0.00  0.00    +0.007 C 
ATOM     10  C   LIG    1       21.459  30.923  54.493  0.00  0.00    +0.000 C 
ATOM     11  C   LIG    1       22.057  29.626  53.922  0.00  0.00    +0.000 C 
ATOM     12  C   LIG    1       23.470  29.488  54.528  0.00  0.00    +0.007 C 
ENDBRANCH   1   8
BRANCH   1  13
ATOM     13  C   LIG    1       24.292  31.376  57.312  0.00  0.00    +0.344 C 
ATOM     14  O   LIG    1       23.621  32.381  57.350  0.00  0.00    -0.247 OA
BRANCH  13  15
ATOM     15  O   LIG    1       24.476  30.649  58.424  0.00  0.00    -0.461 OA
BRANCH  15  21
ATOM     16  C   LIG    1       21.554  29.236  61.588  0.00  0.00    -0.092 C 
ATOM     17  N   LIG    1       22.559  28.591  60.733  0.00  0.00    +0.379 N 
ATOM     18  C   LIG    1       23.090  27.398  61.405  0.00  0.00    -0.092 C 
ATOM     19  C   LIG    1       21.944  28.201  59.450  0.00  0.00    -0.072 C 
ATOM     20  C   LIG    1       22.689  28.966  58.334  0.00  0.00    +0.025 C 
ATOM     21  C   LIG    1       23.304  30.172  59.090  0.00  0.00    +0.159 C 
ATOM     22  C   LIG    1       23.660  29.538  60.457  0.00  0.00    -0.031 C 
ENDBRANCH  15  21
ENDBRANCH  13  15
ENDBRANCH   1  13
BRANCH   1  23
ATOM     23  O   LIG    1       25.456  29.623  56.164  0.00  0.00    -0.373 OA
ATOM     24  H   LIG    1       26.391  29.604  56.409  0.00  0.00    +0.211 HD
ENDBRANCH   1  23
TORSDOF 6
