REMARK VINA RESULT:      -5.9      0.000      0.000
REMARK  Name = ZINC00000346
REMARK                            x       y       z     vdW  Elec       q    Type
REMARK                         _______ _______ _______ _____ _____    ______ ____
ROOT
ATOM      1  C   LIG    1       24.607  31.076  55.836  0.00  0.00    +0.190 C 
ENDROOT
BRANCH   1   2
ATOM      2  C   LIG    1       23.734  31.378  57.027  0.00  0.00    -0.005 A 
ATOM      3  C   LIG    1       23.822  30.598  58.164  0.00  0.00    +0.007 A 
ATOM      4  C   LIG    1       23.022  30.875  59.257  0.00  0.00    +0.000 A 
ATOM      5  C   LIG    1       22.133  31.934  59.211  0.00  0.00    +0.000 A 
ATOM      6  C   LIG    1       22.046  32.714  58.074  0.00  0.00    +0.000 A 
ATOM      7  C   LIG    1       22.849  32.440  56.984  0.00  0.00    +0.007 A 
ENDBRANCH   1   2
BRANCH   1   8
ATOM      8  C   LIG    1       25.401  32.327  55.454  0.00  0.00    +0.036 C 
ATOM      9  C   LIG    1       26.270  32.064  54.200  0.00  0.00    +0.007 C 
ATOM     10  C   LIG    1       27.404  33.106  54.302  0.00  0.00    +0.000 C 
ATOM     11  C   LIG    1       27.522  33.484  55.788  0.00  0.00    +0.000 C 
ATOM     12  C   LIG    1       26.455  32.660  56.539  0.00  0.00    +0.007 C 
ENDBRANCH   1   8
BRANCH   1  13
ATOM     13  C   LIG    1       23.743  30.655  54.675  0.00  0.00    +0.344 C 
ATOM     14  O   LIG    1       23.096  31.480  54.073  0.00  0.00    -0.247 OA
BRANCH  13  15
ATOM     15  O   LIG    1       23.692  29.365  54.309  0.00  0.00    -0.461 OA
BRANCH  15  21
ATOM     16  C   LIG    1       19.429  28.144  55.246  0.00  0.00    -0.092 C 
ATOM     17  N   LIG    1       20.518  28.789  55.991  0.00  0.00    +0.379 N 
ATOM     18  C   LIG    1       19.957  29.679  57.016  0.00  0.00    -0.092 C 
ATOM     19  C   LIG    1       21.355  27.760  56.637  0.00  0.00    -0.072 C 
ATOM     20  C   LIG    1       22.779  27.900  56.058  0.00  0.00    +0.025 C 
ATOM     21  C   LIG    1       22.537  28.623  54.707  0.00  0.00    +0.159 C 
ATOM     22  C   LIG    1       21.364  29.569  55.063  0.00  0.00    -0.031 C 
ENDBRANCH  15  21
ENDBRANCH  13  15
ENDBRANCH   1  13
BRANCH   1  23
ATOM     23  O   LIG    1       25.511  30.019  56.163  0.00  0.00    -0.373 OA
ATOM     24  H   LIG    1       26.185  30.264  56.812  0.00  0.00    +0.211 HD
ENDBRANCH   1  23
TORSDOF 6
