REMARK VINA RESULT:      -5.5      2.527      5.581
REMARK  Name = ZINC00000346
REMARK                            x       y       z     vdW  Elec       q    Type
REMARK                         _______ _______ _______ _____ _____    ______ ____
ROOT
ATOM      1  C   LIG    1       24.412  31.450  56.196  0.00  0.00    +0.190 C 
ENDROOT
BRANCH   1   2
ATOM      2  C   LIG    1       25.508  32.310  55.621  0.00  0.00    -0.005 A 
ATOM      3  C   LIG    1       25.924  33.442  56.294  0.00  0.00    +0.007 A 
ATOM      4  C   LIG    1       26.930  34.231  55.767  0.00  0.00    +0.000 A 
ATOM      5  C   LIG    1       27.518  33.886  54.564  0.00  0.00    +0.000 A 
ATOM      6  C   LIG    1       27.103  32.754  53.890  0.00  0.00    +0.000 A 
ATOM      7  C   LIG    1       26.100  31.963  54.420  0.00  0.00    +0.007 A 
ENDBRANCH   1   2
BRANCH   1   8
ATOM      8  C   LIG    1       24.131  30.281  55.250  0.00  0.00    +0.036 C 
ATOM      9  C   LIG    1       22.644  29.858  55.327  0.00  0.00    +0.007 C 
ATOM     10  C   LIG    1       22.644  28.389  54.855  0.00  0.00    +0.000 C 
ATOM     11  C   LIG    1       24.062  27.847  55.105  0.00  0.00    +0.000 C 
ATOM     12  C   LIG    1       24.875  29.006  55.719  0.00  0.00    +0.007 C 
ENDBRANCH   1   8
BRANCH   1  13
ATOM     13  C   LIG    1       23.161  32.275  56.359  0.00  0.00    +0.344 C 
ATOM     14  O   LIG    1       22.519  32.599  55.388  0.00  0.00    -0.247 OA
BRANCH  13  15
ATOM     15  O   LIG    1       22.760  32.650  57.584  0.00  0.00    -0.461 OA
BRANCH  15  21
ATOM     16  C   LIG    1       20.543  36.593  57.298  0.00  0.00    -0.092 C 
ATOM     17  N   LIG    1       21.393  35.943  58.305  0.00  0.00    +0.379 N 
ATOM     18  C   LIG    1       22.085  36.964  59.101  0.00  0.00    -0.092 C 
ATOM     19  C   LIG    1       20.561  35.107  59.191  0.00  0.00    -0.072 C 
ATOM     20  C   LIG    1       21.052  33.651  59.039  0.00  0.00    +0.025 C 
ATOM     21  C   LIG    1       21.753  33.662  57.656  0.00  0.00    +0.159 C 
ATOM     22  C   LIG    1       22.385  35.076  57.635  0.00  0.00    -0.031 C 
ENDBRANCH  15  21
ENDBRANCH  13  15
ENDBRANCH   1  13
BRANCH   1  23
ATOM     23  O   LIG    1       24.819  30.947  57.469  0.00  0.00    -0.373 OA
ATOM     24  H   LIG    1       24.212  31.162  58.190  0.00  0.00    +0.211 HD
ENDBRANCH   1  23
TORSDOF 6
