MODEL 1
REMARK VINA RESULT:      -5.8      0.000      0.000
REMARK  Name = ZINC00000654
REMARK                            x       y       z     vdW  Elec       q    Type
REMARK                         _______ _______ _______ _____ _____    ______ ____
ROOT
ATOM      1  C   LIG    1       25.981  31.997  55.229  0.00  0.00    -0.033 A 
ATOM      2  C   LIG    1       25.131  31.665  54.189  0.00  0.00    +0.008 A 
ATOM      3  C   LIG    1       23.939  31.023  54.452  0.00  0.00    +0.047 A 
ATOM      4  C   LIG    1       23.589  30.707  55.760  0.00  0.00    +0.134 A 
ATOM      5  C   LIG    1       24.442  31.042  56.799  0.00  0.00    -0.000 A 
ATOM      6  C   LIG    1       24.085  30.713  58.223  0.00  0.00    +0.079 C 
ATOM      7  C   LIG    1       23.008  29.666  58.266  0.00  0.00    +0.019 A 
ATOM      8  C   LIG    1       22.791  28.956  59.435  0.00  0.00    +0.010 A 
ATOM      9  C   LIG    1       21.791  27.994  59.451  0.00  0.00    +0.020 A 
ATOM     10  C   LIG    1       21.050  27.776  58.307  0.00  0.00    +0.114 A 
ATOM     11  N   LIG    1       21.281  28.470  57.210  0.00  0.00    -0.221 NA
ATOM     12  C   LIG    1       22.226  29.398  57.153  0.00  0.00    +0.224 A 
ATOM     13  O   LIG    1       22.414  30.077  55.996  0.00  0.00    -0.437 OA
ATOM     14  C   LIG    1       25.639  31.681  56.530  0.00  0.00    +0.012 A 
ENDROOT
BRANCH   1  16
ATOM     15  C   LIG    1       28.428  31.683  54.970  0.00  0.00    +0.024 C 
ATOM     16  C   LIG    1       27.284  32.699  54.942  0.00  0.00    +0.124 C 
BRANCH  16  17
ATOM     17  C   LIG    1       27.526  33.757  55.988  0.00  0.00    +0.312 C 
ATOM     18  O   LIG    1       26.895  34.800  55.957  0.00  0.00    -0.250 OA
BRANCH  17  19
ATOM     19  O   LIG    1       28.354  33.570  56.863  0.00  0.00    -0.480 OA
ATOM     20  H   LIG    1       29.254  33.777  56.708  0.00  0.00    +0.295 HD
ENDBRANCH  17  19
ENDBRANCH  16  17
ENDBRANCH   1  16
TORSDOF 3
ENDMDL
MODEL 2
REMARK VINA RESULT:      -5.6      1.591      2.633
REMARK  Name = ZINC00000654
REMARK                            x       y       z     vdW  Elec       q    Type
REMARK                         _______ _______ _______ _____ _____    ______ ____
ROOT
ATOM      1  C   LIG    1       25.858  31.977  55.384  0.00  0.00    -0.033 A 
ATOM      2  C   LIG    1       25.856  31.903  56.766  0.00  0.00    +0.008 A 
ATOM      3  C   LIG    1       24.908  31.138  57.414  0.00  0.00    +0.047 A 
ATOM      4  C   LIG    1       23.954  30.439  56.681  0.00  0.00    +0.134 A 
ATOM      5  C   LIG    1       23.961  30.513  55.298  0.00  0.00    -0.000 A 
ATOM      6  C   LIG    1       22.942  29.765  54.483  0.00  0.00    +0.079 C 
ATOM      7  C   LIG    1       21.775  29.364  55.341  0.00  0.00    +0.019 A 
ATOM      8  C   LIG    1       20.578  29.005  54.743  0.00  0.00    +0.010 A 
ATOM      9  C   LIG    1       19.515  28.638  55.556  0.00  0.00    +0.020 A 
ATOM     10  C   LIG    1       19.684  28.644  56.927  0.00  0.00    +0.114 A 
ATOM     11  N   LIG    1       20.836  28.991  57.464  0.00  0.00    -0.221 NA
ATOM     12  C   LIG    1       21.876  29.348  56.723  0.00  0.00    +0.224 A 
ATOM     13  O   LIG    1       23.034  29.693  57.336  0.00  0.00    -0.437 OA
ATOM     14  C   LIG    1       24.910  31.287  54.653  0.00  0.00    +0.012 A 
ENDROOT
BRANCH   1  16
ATOM     15  C   LIG    1       26.928  32.437  53.194  0.00  0.00    +0.024 C 
ATOM     16  C   LIG    1       26.893  32.814  54.677  0.00  0.00    +0.124 C 
BRANCH  16  17
ATOM     17  C   LIG    1       28.247  32.563  55.290  0.00  0.00    +0.312 C 
ATOM     18  O   LIG    1       28.798  31.486  55.130  0.00  0.00    -0.250 OA
BRANCH  17  19
ATOM     19  O   LIG    1       28.790  33.434  55.947  0.00  0.00    -0.480 OA
ATOM     20  H   LIG    1       29.566  33.848  55.625  0.00  0.00    +0.295 HD
ENDBRANCH  17  19
ENDBRANCH  16  17
ENDBRANCH   1  16
TORSDOF 3
ENDMDL
MODEL 3
REMARK VINA RESULT:      -5.5      4.725      5.465
REMARK  Name = ZINC00000654
REMARK                            x       y       z     vdW  Elec       q    Type
REMARK                         _______ _______ _______ _____ _____    ______ ____
ROOT
ATOM      1  C   LIG    1       23.120  32.280  55.990  0.00  0.00    -0.033 A 
ATOM      2  C   LIG    1       22.344  31.414  55.241  0.00  0.00    +0.008 A 
ATOM      3  C   LIG    1       21.011  31.696  55.024  0.00  0.00    +0.047 A 
ATOM      4  C   LIG    1       20.445  32.849  55.557  0.00  0.00    +0.134 A 
ATOM      5  C   LIG    1       21.225  33.714  56.305  0.00  0.00    -0.000 A 
ATOM      6  C   LIG    1       20.638  34.969  56.891  0.00  0.00    +0.079 C 
ATOM      7  C   LIG    1       19.137  34.882  56.921  0.00  0.00    +0.019 A 
ATOM      8  C   LIG    1       18.419  35.738  57.739  0.00  0.00    +0.010 A 
ATOM      9  C   LIG    1       17.034  35.638  57.749  0.00  0.00    +0.020 A 
ATOM     10  C   LIG    1       16.422  34.694  56.949  0.00  0.00    +0.114 A 
ATOM     11  N   LIG    1       17.135  33.894  56.181  0.00  0.00    -0.221 NA
ATOM     12  C   LIG    1       18.459  33.957  56.142  0.00  0.00    +0.224 A 
ATOM     13  O   LIG    1       19.135  33.107  55.332  0.00  0.00    -0.437 OA
ATOM     14  C   LIG    1       22.560  33.424  56.526  0.00  0.00    +0.012 A 
ENDROOT
BRANCH   1  16
ATOM     15  C   LIG    1       25.289  31.807  54.884  0.00  0.00    +0.024 C 
ATOM     16  C   LIG    1       24.577  31.971  56.228  0.00  0.00    +0.124 C 
BRANCH  16  17
ATOM     17  C   LIG    1       24.696  30.694  57.019  0.00  0.00    +0.312 C 
ATOM     18  O   LIG    1       24.628  30.722  58.237  0.00  0.00    -0.250 OA
BRANCH  17  19
ATOM     19  O   LIG    1       24.863  29.633  56.442  0.00  0.00    -0.480 OA
ATOM     20  H   LIG    1       24.134  29.069  56.280  0.00  0.00    +0.295 HD
ENDBRANCH  17  19
ENDBRANCH  16  17
ENDBRANCH   1  16
TORSDOF 3
ENDMDL
MODEL 4
REMARK VINA RESULT:      -5.4      1.860      2.101
REMARK  Name = ZINC00000654
REMARK                            x       y       z     vdW  Elec       q    Type
REMARK                         _______ _______ _______ _____ _____    ______ ____
ROOT
ATOM      1  C   LIG    1       25.657  32.203  55.718  0.00  0.00    -0.033 A 
ATOM      2  C   LIG    1       25.812  30.828  55.686  0.00  0.00    +0.008 A 
ATOM      3  C   LIG    1       24.792  30.009  56.124  0.00  0.00    +0.047 A 
ATOM      4  C   LIG    1       23.606  30.562  56.598  0.00  0.00    +0.134 A 
ATOM      5  C   LIG    1       23.454  31.938  56.627  0.00  0.00    -0.000 A 
ATOM      6  C   LIG    1       22.182  32.561  57.133  0.00  0.00    +0.079 C 
ATOM      7  C   LIG    1       21.397  31.567  57.944  0.00  0.00    +0.019 A 
ATOM      8  C   LIG    1       20.404  32.015  58.799  0.00  0.00    +0.010 A 
ATOM      9  C   LIG    1       19.694  31.079  59.537  0.00  0.00    +0.020 A 
ATOM     10  C   LIG    1       19.999  29.740  59.397  0.00  0.00    +0.114 A 
ATOM     11  N   LIG    1       20.951  29.346  58.574  0.00  0.00    -0.221 NA
ATOM     12  C   LIG    1       21.653  30.208  57.851  0.00  0.00    +0.224 A 
ATOM     13  O   LIG    1       22.618  29.741  57.023  0.00  0.00    -0.437 OA
ATOM     14  C   LIG    1       24.483  32.756  56.193  0.00  0.00    +0.012 A 
ENDROOT
BRANCH   1  16
ATOM     15  C   LIG    1       27.214  32.659  53.842  0.00  0.00    +0.024 C 
ATOM     16  C   LIG    1       26.772  33.097  55.240  0.00  0.00    +0.124 C 
BRANCH  16  17
ATOM     17  C   LIG    1       27.938  32.997  56.189  0.00  0.00    +0.312 C 
ATOM     18  O   LIG    1       29.032  32.648  55.777  0.00  0.00    -0.250 OA
BRANCH  17  19
ATOM     19  O   LIG    1       27.788  33.263  57.370  0.00  0.00    -0.480 OA
ATOM     20  H   LIG    1       28.235  32.763  58.023  0.00  0.00    +0.295 HD
ENDBRANCH  17  19
ENDBRANCH  16  17
ENDBRANCH   1  16
TORSDOF 3
ENDMDL
MODEL 5
REMARK VINA RESULT:      -5.4      2.247      2.916
REMARK  Name = ZINC00000654
REMARK                            x       y       z     vdW  Elec       q    Type
REMARK                         _______ _______ _______ _____ _____    ______ ____
ROOT
ATOM      1  C   LIG    1       25.623  31.925  56.086  0.00  0.00    -0.033 A 
ATOM      2  C   LIG    1       25.680  30.548  55.963  0.00  0.00    +0.008 A 
ATOM      3  C   LIG    1       24.520  29.823  55.788  0.00  0.00    +0.047 A 
ATOM      4  C   LIG    1       23.291  30.473  55.735  0.00  0.00    +0.134 A 
ATOM      5  C   LIG    1       23.237  31.851  55.857  0.00  0.00    -0.000 A 
ATOM      6  C   LIG    1       21.921  32.578  55.802  0.00  0.00    +0.079 C 
ATOM      7  C   LIG    1       20.784  31.624  56.041  0.00  0.00    +0.019 A 
ATOM      8  C   LIG    1       19.541  32.119  56.399  0.00  0.00    +0.010 A 
ATOM      9  C   LIG    1       18.507  31.219  56.616  0.00  0.00    +0.020 A 
ATOM     10  C   LIG    1       18.750  29.868  56.469  0.00  0.00    +0.114 A 
ATOM     11  N   LIG    1       19.945  29.429  56.127  0.00  0.00    -0.221 NA
ATOM     12  C   LIG    1       20.960  30.256  55.911  0.00  0.00    +0.224 A 
ATOM     13  O   LIG    1       22.164  29.743  55.562  0.00  0.00    -0.437 OA
ATOM     14  C   LIG    1       24.404  32.574  56.039  0.00  0.00    +0.012 A 
ENDROOT
BRANCH   1  16
ATOM     15  C   LIG    1       26.588  34.209  56.128  0.00  0.00    +0.024 C 
ATOM     16  C   LIG    1       26.891  32.717  56.278  0.00  0.00    +0.124 C 
BRANCH  16  17
ATOM     17  C   LIG    1       27.903  32.303  55.242  0.00  0.00    +0.312 C 
ATOM     18  O   LIG    1       28.974  31.833  55.589  0.00  0.00    -0.250 OA
BRANCH  17  19
ATOM     19  O   LIG    1       27.653  32.439  54.056  0.00  0.00    -0.480 OA
ATOM     20  H   LIG    1       28.320  32.290  53.417  0.00  0.00    +0.295 HD
ENDBRANCH  17  19
ENDBRANCH  16  17
ENDBRANCH   1  16
TORSDOF 3
ENDMDL
