MODEL 1
REMARK VINA RESULT:      -5.6      0.000      0.000
REMARK  Name = ZINC00000746
REMARK                            x       y       z     vdW  Elec       q    Type
REMARK                         _______ _______ _______ _____ _____    ______ ____
ROOT
ATOM      1  C   LIG    1       24.625  31.372  57.102  0.00  0.00    +0.128 C 
ENDROOT
BRANCH   1   2
ATOM      2  C   LIG    1       23.885  30.508  56.113  0.00  0.00    -0.014 A 
ATOM      3  C   LIG    1       22.766  31.000  55.470  0.00  0.00    +0.051 A 
ATOM      4  C   LIG    1       22.083  30.207  54.559  0.00  0.00    +0.121 A 
ATOM      5  C   LIG    1       22.524  28.920  54.295  0.00  0.00    +0.090 A 
ATOM      6  C   LIG    1       23.648  28.427  54.942  0.00  0.00    +0.121 A 
ATOM      7  C   LIG    1       24.330  29.227  55.847  0.00  0.00    +0.051 A 
BRANCH   4   8
ATOM      8  O   LIG    1       20.981  30.691  53.927  0.00  0.00    -0.507 OA
ATOM      9  H   LIG    1       20.350  31.125  54.516  0.00  0.00    +0.292 HD
ENDBRANCH   4   8
BRANCH   6  10
ATOM     10  O   LIG    1       24.082  27.166  54.686  0.00  0.00    -0.507 OA
ATOM     11  H   LIG    1       23.485  26.650  54.129  0.00  0.00    +0.292 HD
ENDBRANCH   6  10
ENDBRANCH   1   2
BRANCH   1  12
ATOM     12  O   LIG    1       24.839  30.639  58.310  0.00  0.00    -0.389 OA
ATOM     13  H   LIG    1       25.295  31.142  58.999  0.00  0.00    +0.210 HD
ENDBRANCH   1  12
BRANCH   1  14
ATOM     14  C   LIG    1       25.975  31.781  56.508  0.00  0.00    -0.045 C 
BRANCH  14  15
ATOM     15  N   LIG    1       25.833  33.067  55.812  0.00  0.00    +0.384 N 
ATOM     16  H   LIG    1       25.135  32.983  55.089  0.00  0.00    -0.085 HD
ATOM     17  H   LIG    1       25.551  33.778  56.471  0.00  0.00    -0.085 HD
BRANCH  15  19
ATOM     18  C   LIG    1       28.261  33.006  56.131  0.00  0.00    -0.011 C 
ATOM     19  C   LIG    1       27.120  33.442  55.209  0.00  0.00    -0.077 C 
ATOM     20  C   LIG    1       27.267  32.752  53.852  0.00  0.00    -0.011 C 
ATOM     21  C   LIG    1       27.170  34.960  55.017  0.00  0.00    -0.011 C 
ENDBRANCH  15  19
ENDBRANCH  14  15
ENDBRANCH   1  14
TORSDOF 7
ENDMDL
MODEL 2
REMARK VINA RESULT:      -5.6      0.059      2.332
REMARK  Name = ZINC00000746
REMARK                            x       y       z     vdW  Elec       q    Type
REMARK                         _______ _______ _______ _____ _____    ______ ____
ROOT
ATOM      1  C   LIG    1       24.604  31.359  57.086  0.00  0.00    +0.128 C 
ENDROOT
BRANCH   1   2
ATOM      2  C   LIG    1       23.856  30.483  56.114  0.00  0.00    -0.014 A 
ATOM      3  C   LIG    1       24.275  29.187  55.889  0.00  0.00    +0.051 A 
ATOM      4  C   LIG    1       23.588  28.378  54.994  0.00  0.00    +0.121 A 
ATOM      5  C   LIG    1       22.479  28.873  54.327  0.00  0.00    +0.090 A 
ATOM      6  C   LIG    1       22.059  30.175  54.554  0.00  0.00    +0.121 A 
ATOM      7  C   LIG    1       22.746  30.977  55.454  0.00  0.00    +0.051 A 
BRANCH   4   8
ATOM      8  O   LIG    1       24.003  27.103  54.773  0.00  0.00    -0.507 OA
ATOM      9  H   LIG    1       24.398  26.964  53.901  0.00  0.00    +0.292 HD
ENDBRANCH   4   8
BRANCH   6  10
ATOM     10  O   LIG    1       20.972  30.663  53.901  0.00  0.00    -0.507 OA
ATOM     11  H   LIG    1       21.099  31.548  53.534  0.00  0.00    +0.292 HD
ENDBRANCH   6  10
ENDBRANCH   1   2
BRANCH   1  12
ATOM     12  O   LIG    1       24.825  30.641  58.302  0.00  0.00    -0.389 OA
ATOM     13  H   LIG    1       24.029  30.224  58.662  0.00  0.00    +0.210 HD
ENDBRANCH   1  12
BRANCH   1  14
ATOM     14  C   LIG    1       25.949  31.760  56.478  0.00  0.00    -0.045 C 
BRANCH  14  15
ATOM     15  N   LIG    1       25.833  33.092  55.870  0.00  0.00    +0.384 N 
ATOM     16  H   LIG    1       25.100  33.083  55.177  0.00  0.00    -0.085 HD
ATOM     17  H   LIG    1       25.612  33.771  56.583  0.00  0.00    -0.085 HD
BRANCH  15  19
ATOM     18  C   LIG    1       27.160  34.966  55.016  0.00  0.00    -0.011 C 
ATOM     19  C   LIG    1       27.106  33.452  55.231  0.00  0.00    -0.077 C 
ATOM     20  C   LIG    1       28.267  33.023  56.130  0.00  0.00    -0.011 C 
ATOM     21  C   LIG    1       27.218  32.741  53.880  0.00  0.00    -0.011 C 
ENDBRANCH  15  19
ENDBRANCH  14  15
ENDBRANCH   1  14
TORSDOF 7
ENDMDL
MODEL 3
REMARK VINA RESULT:      -5.3      1.493      2.165
REMARK  Name = ZINC00000746
REMARK                            x       y       z     vdW  Elec       q    Type
REMARK                         _______ _______ _______ _____ _____    ______ ____
ROOT
ATOM      1  C   LIG    1       24.584  31.487  56.821  0.00  0.00    +0.128 C 
ENDROOT
BRANCH   1   2
ATOM      2  C   LIG    1       23.280  31.530  56.066  0.00  0.00    -0.014 A 
ATOM      3  C   LIG    1       22.412  32.589  56.249  0.00  0.00    +0.051 A 
ATOM      4  C   LIG    1       21.211  32.633  55.555  0.00  0.00    +0.121 A 
ATOM      5  C   LIG    1       20.883  31.611  54.677  0.00  0.00    +0.090 A 
ATOM      6  C   LIG    1       21.756  30.549  54.495  0.00  0.00    +0.121 A 
ATOM      7  C   LIG    1       22.958  30.514  55.187  0.00  0.00    +0.051 A 
BRANCH   4   8
ATOM      8  O   LIG    1       20.357  33.674  55.736  0.00  0.00    -0.507 OA
ATOM      9  H   LIG    1       19.429  33.414  55.802  0.00  0.00    +0.292 HD
ENDBRANCH   4   8
BRANCH   6  10
ATOM     10  O   LIG    1       21.437  29.546  53.636  0.00  0.00    -0.507 OA
ATOM     11  H   LIG    1       22.160  29.284  53.051  0.00  0.00    +0.292 HD
ENDBRANCH   6  10
ENDBRANCH   1   2
BRANCH   1  12
ATOM     12  O   LIG    1       24.574  30.381  57.727  0.00  0.00    -0.389 OA
ATOM     13  H   LIG    1       25.312  30.380  58.353  0.00  0.00    +0.210 HD
ENDBRANCH   1  12
BRANCH   1  14
ATOM     14  C   LIG    1       25.740  31.326  55.831  0.00  0.00    -0.045 C 
BRANCH  14  15
ATOM     15  N   LIG    1       25.959  32.595  55.125  0.00  0.00    +0.384 N 
ATOM     16  H   LIG    1       25.725  32.483  54.151  0.00  0.00    -0.085 HD
ATOM     17  H   LIG    1       25.376  33.312  55.531  0.00  0.00    -0.085 HD
BRANCH  15  19
ATOM     18  C   LIG    1       28.260  31.839  54.763  0.00  0.00    -0.011 C 
ATOM     19  C   LIG    1       27.370  32.986  55.248  0.00  0.00    -0.077 C 
ATOM     20  C   LIG    1       27.631  34.229  54.396  0.00  0.00    -0.011 C 
ATOM     21  C   LIG    1       27.689  33.295  56.712  0.00  0.00    -0.011 C 
ENDBRANCH  15  19
ENDBRANCH  14  15
ENDBRANCH   1  14
TORSDOF 7
ENDMDL
MODEL 4
REMARK VINA RESULT:      -5.0      1.514      2.713
REMARK  Name = ZINC00000746
REMARK                            x       y       z     vdW  Elec       q    Type
REMARK                         _______ _______ _______ _____ _____    ______ ____
ROOT
ATOM      1  C   LIG    1       24.525  31.102  56.234  0.00  0.00    +0.128 C 
ENDROOT
BRANCH   1   2
ATOM      2  C   LIG    1       23.073  31.153  55.833  0.00  0.00    -0.014 A 
ATOM      3  C   LIG    1       22.435  30.006  55.402  0.00  0.00    +0.051 A 
ATOM      4  C   LIG    1       21.098  30.051  55.033  0.00  0.00    +0.121 A 
ATOM      5  C   LIG    1       20.402  31.248  55.098  0.00  0.00    +0.090 A 
ATOM      6  C   LIG    1       21.044  32.398  55.532  0.00  0.00    +0.121 A 
ATOM      7  C   LIG    1       22.380  32.346  55.905  0.00  0.00    +0.051 A 
BRANCH   4   8
ATOM      8  O   LIG    1       20.472  28.922  54.608  0.00  0.00    -0.507 OA
ATOM      9  H   LIG    1       21.071  28.183  54.432  0.00  0.00    +0.292 HD
ENDBRANCH   4   8
BRANCH   6  10
ATOM     10  O   LIG    1       20.365  33.572  55.597  0.00  0.00    -0.507 OA
ATOM     11  H   LIG    1       20.078  33.908  54.737  0.00  0.00    +0.292 HD
ENDBRANCH   6  10
ENDBRANCH   1   2
BRANCH   1  12
ATOM     12  O   LIG    1       24.950  29.740  56.311  0.00  0.00    -0.389 OA
ATOM     13  H   LIG    1       24.234  29.114  56.485  0.00  0.00    +0.210 HD
ENDBRANCH   1  12
BRANCH   1  14
ATOM     14  C   LIG    1       25.367  31.841  55.191  0.00  0.00    -0.045 C 
BRANCH  14  15
ATOM     15  N   LIG    1       25.811  33.128  55.745  0.00  0.00    +0.384 N 
ATOM     16  H   LIG    1       25.152  33.848  55.492  0.00  0.00    -0.085 HD
ATOM     17  H   LIG    1       25.867  33.061  56.750  0.00  0.00    -0.085 HD
BRANCH  15  19
ATOM     18  C   LIG    1       28.216  33.033  56.196  0.00  0.00    -0.011 C 
ATOM     19  C   LIG    1       27.135  33.463  55.203  0.00  0.00    -0.077 C 
ATOM     20  C   LIG    1       27.342  32.732  53.875  0.00  0.00    -0.011 C 
ATOM     21  C   LIG    1       27.224  34.973  54.972  0.00  0.00    -0.011 C 
ENDBRANCH  15  19
ENDBRANCH  14  15
ENDBRANCH   1  14
TORSDOF 7
ENDMDL
MODEL 5
REMARK VINA RESULT:      -4.9      1.754      3.080
REMARK  Name = ZINC00000746
REMARK                            x       y       z     vdW  Elec       q    Type
REMARK                         _______ _______ _______ _____ _____    ______ ____
ROOT
ATOM      1  C   LIG    1       24.690  30.956  55.491  0.00  0.00    +0.128 C 
ENDROOT
BRANCH   1   2
ATOM      2  C   LIG    1       23.957  30.045  56.441  0.00  0.00    -0.014 A 
ATOM      3  C   LIG    1       23.563  28.788  56.026  0.00  0.00    +0.051 A 
ATOM      4  C   LIG    1       22.887  27.947  56.900  0.00  0.00    +0.121 A 
ATOM      5  C   LIG    1       22.610  28.370  58.190  0.00  0.00    +0.090 A 
ATOM      6  C   LIG    1       23.007  29.632  58.606  0.00  0.00    +0.121 A 
ATOM      7  C   LIG    1       23.687  30.466  57.729  0.00  0.00    +0.051 A 
BRANCH   4   8
ATOM      8  O   LIG    1       22.499  26.711  56.490  0.00  0.00    -0.507 OA
ATOM      9  H   LIG    1       22.794  26.482  55.598  0.00  0.00    +0.292 HD
ENDBRANCH   4   8
BRANCH   6  10
ATOM     10  O   LIG    1       22.736  30.049  59.869  0.00  0.00    -0.507 OA
ATOM     11  H   LIG    1       22.039  30.716  59.922  0.00  0.00    +0.292 HD
ENDBRANCH   6  10
ENDBRANCH   1   2
BRANCH   1  12
ATOM     12  O   LIG    1       23.752  31.801  54.820  0.00  0.00    -0.389 OA
ATOM     13  H   LIG    1       24.146  32.595  54.432  0.00  0.00    +0.210 HD
ENDBRANCH   1  12
BRANCH   1  14
ATOM     14  C   LIG    1       25.683  31.818  56.275  0.00  0.00    -0.045 C 
BRANCH  14  15
ATOM     15  N   LIG    1       25.679  33.183  55.733  0.00  0.00    +0.384 N 
ATOM     16  H   LIG    1       25.028  33.239  54.964  0.00  0.00    -0.085 HD
ATOM     17  H   LIG    1       25.402  33.832  56.455  0.00  0.00    -0.085 HD
BRANCH  15  19
ATOM     18  C   LIG    1       27.282  32.846  53.912  0.00  0.00    -0.011 C 
ATOM     19  C   LIG    1       27.027  33.526  55.260  0.00  0.00    -0.077 C 
ATOM     20  C   LIG    1       27.140  35.043  55.095  0.00  0.00    -0.011 C 
ATOM     21  C   LIG    1       28.063  33.045  56.278  0.00  0.00    -0.011 C 
ENDBRANCH  15  19
ENDBRANCH  14  15
ENDBRANCH   1  14
TORSDOF 7
ENDMDL
