REMARK VINA RESULT:      -5.6      0.059      2.332
REMARK  Name = ZINC00000746
REMARK                            x       y       z     vdW  Elec       q    Type
REMARK                         _______ _______ _______ _____ _____    ______ ____
ROOT
ATOM      1  C   LIG    1       24.604  31.359  57.086  0.00  0.00    +0.128 C 
ENDROOT
BRANCH   1   2
ATOM      2  C   LIG    1       23.856  30.483  56.114  0.00  0.00    -0.014 A 
ATOM      3  C   LIG    1       24.275  29.187  55.889  0.00  0.00    +0.051 A 
ATOM      4  C   LIG    1       23.588  28.378  54.994  0.00  0.00    +0.121 A 
ATOM      5  C   LIG    1       22.479  28.873  54.327  0.00  0.00    +0.090 A 
ATOM      6  C   LIG    1       22.059  30.175  54.554  0.00  0.00    +0.121 A 
ATOM      7  C   LIG    1       22.746  30.977  55.454  0.00  0.00    +0.051 A 
BRANCH   4   8
ATOM      8  O   LIG    1       24.003  27.103  54.773  0.00  0.00    -0.507 OA
ATOM      9  H   LIG    1       24.398  26.964  53.901  0.00  0.00    +0.292 HD
ENDBRANCH   4   8
BRANCH   6  10
ATOM     10  O   LIG    1       20.972  30.663  53.901  0.00  0.00    -0.507 OA
ATOM     11  H   LIG    1       21.099  31.548  53.534  0.00  0.00    +0.292 HD
ENDBRANCH   6  10
ENDBRANCH   1   2
BRANCH   1  12
ATOM     12  O   LIG    1       24.825  30.641  58.302  0.00  0.00    -0.389 OA
ATOM     13  H   LIG    1       24.029  30.224  58.662  0.00  0.00    +0.210 HD
ENDBRANCH   1  12
BRANCH   1  14
ATOM     14  C   LIG    1       25.949  31.760  56.478  0.00  0.00    -0.045 C 
BRANCH  14  15
ATOM     15  N   LIG    1       25.833  33.092  55.870  0.00  0.00    +0.384 N 
ATOM     16  H   LIG    1       25.100  33.083  55.177  0.00  0.00    -0.085 HD
ATOM     17  H   LIG    1       25.612  33.771  56.583  0.00  0.00    -0.085 HD
BRANCH  15  19
ATOM     18  C   LIG    1       27.160  34.966  55.016  0.00  0.00    -0.011 C 
ATOM     19  C   LIG    1       27.106  33.452  55.231  0.00  0.00    -0.077 C 
ATOM     20  C   LIG    1       28.267  33.023  56.130  0.00  0.00    -0.011 C 
ATOM     21  C   LIG    1       27.218  32.741  53.880  0.00  0.00    -0.011 C 
ENDBRANCH  15  19
ENDBRANCH  14  15
ENDBRANCH   1  14
TORSDOF 7
