REMARK VINA RESULT:      -4.9      1.754      3.080
REMARK  Name = ZINC00000746
REMARK                            x       y       z     vdW  Elec       q    Type
REMARK                         _______ _______ _______ _____ _____    ______ ____
ROOT
ATOM      1  C   LIG    1       24.690  30.956  55.491  0.00  0.00    +0.128 C 
ENDROOT
BRANCH   1   2
ATOM      2  C   LIG    1       23.957  30.045  56.441  0.00  0.00    -0.014 A 
ATOM      3  C   LIG    1       23.563  28.788  56.026  0.00  0.00    +0.051 A 
ATOM      4  C   LIG    1       22.887  27.947  56.900  0.00  0.00    +0.121 A 
ATOM      5  C   LIG    1       22.610  28.370  58.190  0.00  0.00    +0.090 A 
ATOM      6  C   LIG    1       23.007  29.632  58.606  0.00  0.00    +0.121 A 
ATOM      7  C   LIG    1       23.687  30.466  57.729  0.00  0.00    +0.051 A 
BRANCH   4   8
ATOM      8  O   LIG    1       22.499  26.711  56.490  0.00  0.00    -0.507 OA
ATOM      9  H   LIG    1       22.794  26.482  55.598  0.00  0.00    +0.292 HD
ENDBRANCH   4   8
BRANCH   6  10
ATOM     10  O   LIG    1       22.736  30.049  59.869  0.00  0.00    -0.507 OA
ATOM     11  H   LIG    1       22.039  30.716  59.922  0.00  0.00    +0.292 HD
ENDBRANCH   6  10
ENDBRANCH   1   2
BRANCH   1  12
ATOM     12  O   LIG    1       23.752  31.801  54.820  0.00  0.00    -0.389 OA
ATOM     13  H   LIG    1       24.146  32.595  54.432  0.00  0.00    +0.210 HD
ENDBRANCH   1  12
BRANCH   1  14
ATOM     14  C   LIG    1       25.683  31.818  56.275  0.00  0.00    -0.045 C 
BRANCH  14  15
ATOM     15  N   LIG    1       25.679  33.183  55.733  0.00  0.00    +0.384 N 
ATOM     16  H   LIG    1       25.028  33.239  54.964  0.00  0.00    -0.085 HD
ATOM     17  H   LIG    1       25.402  33.832  56.455  0.00  0.00    -0.085 HD
BRANCH  15  19
ATOM     18  C   LIG    1       27.282  32.846  53.912  0.00  0.00    -0.011 C 
ATOM     19  C   LIG    1       27.027  33.526  55.260  0.00  0.00    -0.077 C 
ATOM     20  C   LIG    1       27.140  35.043  55.095  0.00  0.00    -0.011 C 
ATOM     21  C   LIG    1       28.063  33.045  56.278  0.00  0.00    -0.011 C 
ENDBRANCH  15  19
ENDBRANCH  14  15
ENDBRANCH   1  14
TORSDOF 7
