REMARK VINA RESULT:      -5.0      1.514      2.713
REMARK  Name = ZINC00000746
REMARK                            x       y       z     vdW  Elec       q    Type
REMARK                         _______ _______ _______ _____ _____    ______ ____
ROOT
ATOM      1  C   LIG    1       24.525  31.102  56.234  0.00  0.00    +0.128 C 
ENDROOT
BRANCH   1   2
ATOM      2  C   LIG    1       23.073  31.153  55.833  0.00  0.00    -0.014 A 
ATOM      3  C   LIG    1       22.435  30.006  55.402  0.00  0.00    +0.051 A 
ATOM      4  C   LIG    1       21.098  30.051  55.033  0.00  0.00    +0.121 A 
ATOM      5  C   LIG    1       20.402  31.248  55.098  0.00  0.00    +0.090 A 
ATOM      6  C   LIG    1       21.044  32.398  55.532  0.00  0.00    +0.121 A 
ATOM      7  C   LIG    1       22.380  32.346  55.905  0.00  0.00    +0.051 A 
BRANCH   4   8
ATOM      8  O   LIG    1       20.472  28.922  54.608  0.00  0.00    -0.507 OA
ATOM      9  H   LIG    1       21.071  28.183  54.432  0.00  0.00    +0.292 HD
ENDBRANCH   4   8
BRANCH   6  10
ATOM     10  O   LIG    1       20.365  33.572  55.597  0.00  0.00    -0.507 OA
ATOM     11  H   LIG    1       20.078  33.908  54.737  0.00  0.00    +0.292 HD
ENDBRANCH   6  10
ENDBRANCH   1   2
BRANCH   1  12
ATOM     12  O   LIG    1       24.950  29.740  56.311  0.00  0.00    -0.389 OA
ATOM     13  H   LIG    1       24.234  29.114  56.485  0.00  0.00    +0.210 HD
ENDBRANCH   1  12
BRANCH   1  14
ATOM     14  C   LIG    1       25.367  31.841  55.191  0.00  0.00    -0.045 C 
BRANCH  14  15
ATOM     15  N   LIG    1       25.811  33.128  55.745  0.00  0.00    +0.384 N 
ATOM     16  H   LIG    1       25.152  33.848  55.492  0.00  0.00    -0.085 HD
ATOM     17  H   LIG    1       25.867  33.061  56.750  0.00  0.00    -0.085 HD
BRANCH  15  19
ATOM     18  C   LIG    1       28.216  33.033  56.196  0.00  0.00    -0.011 C 
ATOM     19  C   LIG    1       27.135  33.463  55.203  0.00  0.00    -0.077 C 
ATOM     20  C   LIG    1       27.342  32.732  53.875  0.00  0.00    -0.011 C 
ATOM     21  C   LIG    1       27.224  34.973  54.972  0.00  0.00    -0.011 C 
ENDBRANCH  15  19
ENDBRANCH  14  15
ENDBRANCH   1  14
TORSDOF 7
