REMARK VINA RESULT:      -5.6      0.000      0.000
REMARK  Name = ZINC00000746
REMARK                            x       y       z     vdW  Elec       q    Type
REMARK                         _______ _______ _______ _____ _____    ______ ____
ROOT
ATOM      1  C   LIG    1       24.625  31.372  57.102  0.00  0.00    +0.128 C 
ENDROOT
BRANCH   1   2
ATOM      2  C   LIG    1       23.885  30.508  56.113  0.00  0.00    -0.014 A 
ATOM      3  C   LIG    1       22.766  31.000  55.470  0.00  0.00    +0.051 A 
ATOM      4  C   LIG    1       22.083  30.207  54.559  0.00  0.00    +0.121 A 
ATOM      5  C   LIG    1       22.524  28.920  54.295  0.00  0.00    +0.090 A 
ATOM      6  C   LIG    1       23.648  28.427  54.942  0.00  0.00    +0.121 A 
ATOM      7  C   LIG    1       24.330  29.227  55.847  0.00  0.00    +0.051 A 
BRANCH   4   8
ATOM      8  O   LIG    1       20.981  30.691  53.927  0.00  0.00    -0.507 OA
ATOM      9  H   LIG    1       20.350  31.125  54.516  0.00  0.00    +0.292 HD
ENDBRANCH   4   8
BRANCH   6  10
ATOM     10  O   LIG    1       24.082  27.166  54.686  0.00  0.00    -0.507 OA
ATOM     11  H   LIG    1       23.485  26.650  54.129  0.00  0.00    +0.292 HD
ENDBRANCH   6  10
ENDBRANCH   1   2
BRANCH   1  12
ATOM     12  O   LIG    1       24.839  30.639  58.310  0.00  0.00    -0.389 OA
ATOM     13  H   LIG    1       25.295  31.142  58.999  0.00  0.00    +0.210 HD
ENDBRANCH   1  12
BRANCH   1  14
ATOM     14  C   LIG    1       25.975  31.781  56.508  0.00  0.00    -0.045 C 
BRANCH  14  15
ATOM     15  N   LIG    1       25.833  33.067  55.812  0.00  0.00    +0.384 N 
ATOM     16  H   LIG    1       25.135  32.983  55.089  0.00  0.00    -0.085 HD
ATOM     17  H   LIG    1       25.551  33.778  56.471  0.00  0.00    -0.085 HD
BRANCH  15  19
ATOM     18  C   LIG    1       28.261  33.006  56.131  0.00  0.00    -0.011 C 
ATOM     19  C   LIG    1       27.120  33.442  55.209  0.00  0.00    -0.077 C 
ATOM     20  C   LIG    1       27.267  32.752  53.852  0.00  0.00    -0.011 C 
ATOM     21  C   LIG    1       27.170  34.960  55.017  0.00  0.00    -0.011 C 
ENDBRANCH  15  19
ENDBRANCH  14  15
ENDBRANCH   1  14
TORSDOF 7
