REMARK VINA RESULT:      -5.3      1.493      2.165
REMARK  Name = ZINC00000746
REMARK                            x       y       z     vdW  Elec       q    Type
REMARK                         _______ _______ _______ _____ _____    ______ ____
ROOT
ATOM      1  C   LIG    1       24.584  31.487  56.821  0.00  0.00    +0.128 C 
ENDROOT
BRANCH   1   2
ATOM      2  C   LIG    1       23.280  31.530  56.066  0.00  0.00    -0.014 A 
ATOM      3  C   LIG    1       22.412  32.589  56.249  0.00  0.00    +0.051 A 
ATOM      4  C   LIG    1       21.211  32.633  55.555  0.00  0.00    +0.121 A 
ATOM      5  C   LIG    1       20.883  31.611  54.677  0.00  0.00    +0.090 A 
ATOM      6  C   LIG    1       21.756  30.549  54.495  0.00  0.00    +0.121 A 
ATOM      7  C   LIG    1       22.958  30.514  55.187  0.00  0.00    +0.051 A 
BRANCH   4   8
ATOM      8  O   LIG    1       20.357  33.674  55.736  0.00  0.00    -0.507 OA
ATOM      9  H   LIG    1       19.429  33.414  55.802  0.00  0.00    +0.292 HD
ENDBRANCH   4   8
BRANCH   6  10
ATOM     10  O   LIG    1       21.437  29.546  53.636  0.00  0.00    -0.507 OA
ATOM     11  H   LIG    1       22.160  29.284  53.051  0.00  0.00    +0.292 HD
ENDBRANCH   6  10
ENDBRANCH   1   2
BRANCH   1  12
ATOM     12  O   LIG    1       24.574  30.381  57.727  0.00  0.00    -0.389 OA
ATOM     13  H   LIG    1       25.312  30.380  58.353  0.00  0.00    +0.210 HD
ENDBRANCH   1  12
BRANCH   1  14
ATOM     14  C   LIG    1       25.740  31.326  55.831  0.00  0.00    -0.045 C 
BRANCH  14  15
ATOM     15  N   LIG    1       25.959  32.595  55.125  0.00  0.00    +0.384 N 
ATOM     16  H   LIG    1       25.725  32.483  54.151  0.00  0.00    -0.085 HD
ATOM     17  H   LIG    1       25.376  33.312  55.531  0.00  0.00    -0.085 HD
BRANCH  15  19
ATOM     18  C   LIG    1       28.260  31.839  54.763  0.00  0.00    -0.011 C 
ATOM     19  C   LIG    1       27.370  32.986  55.248  0.00  0.00    -0.077 C 
ATOM     20  C   LIG    1       27.631  34.229  54.396  0.00  0.00    -0.011 C 
ATOM     21  C   LIG    1       27.689  33.295  56.712  0.00  0.00    -0.011 C 
ENDBRANCH  15  19
ENDBRANCH  14  15
ENDBRANCH   1  14
TORSDOF 7
