MODEL 1
REMARK VINA RESULT:      -6.0      0.000      0.000
REMARK  Name = ZINC00000071
REMARK                            x       y       z     vdW  Elec       q    Type
REMARK                         _______ _______ _______ _____ _____    ______ ____
ROOT
ATOM      1  C   LIG    1       22.692  30.989  54.662  0.00  0.00    +0.117 A 
ATOM      2  C   LIG    1       23.190  31.559  55.795  0.00  0.00    +0.071 A 
ATOM      3  C   LIG    1       22.197  32.575  56.200  0.00  0.00    +0.031 A 
ATOM      4  C   LIG    1       22.111  33.483  57.250  0.00  0.00    +0.012 A 
ATOM      5  C   LIG    1       21.017  34.318  57.341  0.00  0.00    +0.001 A 
ATOM      6  C   LIG    1       20.007  34.249  56.394  0.00  0.00    +0.004 A 
ATOM      7  C   LIG    1       20.084  33.356  55.347  0.00  0.00    +0.047 A 
ATOM      8  C   LIG    1       21.179  32.508  55.237  0.00  0.00    +0.136 A 
ATOM      9  O   LIG    1       21.520  31.553  54.347  0.00  0.00    -0.459 OA
ENDROOT
BRANCH   1  11
ATOM     10  C   LIG    1       23.070  28.542  54.538  0.00  0.00    +0.012 C 
ATOM     11  C   LIG    1       23.364  29.891  53.878  0.00  0.00    +0.072 C 
ENDBRANCH   1  11
BRANCH   2  12
ATOM     12  C   LIG    1       24.450  31.230  56.475  0.00  0.00    +0.197 C 
ATOM     13  O   LIG    1       24.462  30.408  57.372  0.00  0.00    -0.287 OA
BRANCH  12  14
ATOM     14  C   LIG    1       25.703  31.898  56.069  0.00  0.00    +0.023 A 
ATOM     15  C   LIG    1       26.758  31.147  55.543  0.00  0.00    +0.015 A 
ATOM     16  C   LIG    1       27.924  31.775  55.162  0.00  0.00    +0.046 A 
ATOM     17  C   LIG    1       28.055  33.150  55.311  0.00  0.00    +0.117 A 
ATOM     18  C   LIG    1       27.011  33.900  55.840  0.00  0.00    +0.046 A 
ATOM     19  C   LIG    1       25.840  33.281  56.218  0.00  0.00    +0.015 A 
BRANCH  17  20
ATOM     20  O   LIG    1       29.207  33.764  54.939  0.00  0.00    -0.507 OA
ATOM     21  H   LIG    1       29.856  33.850  55.651  0.00  0.00    +0.292 HD
ENDBRANCH  17  20
ENDBRANCH  12  14
ENDBRANCH   2  12
TORSDOF 4
ENDMDL
MODEL 2
REMARK VINA RESULT:      -5.8      2.044      5.357
REMARK  Name = ZINC00000071
REMARK                            x       y       z     vdW  Elec       q    Type
REMARK                         _______ _______ _______ _____ _____    ______ ____
ROOT
ATOM      1  C   LIG    1       24.240  31.183  54.699  0.00  0.00    +0.117 A 
ATOM      2  C   LIG    1       24.637  31.406  55.984  0.00  0.00    +0.071 A 
ATOM      3  C   LIG    1       25.923  32.126  55.885  0.00  0.00    +0.031 A 
ATOM      4  C   LIG    1       26.826  32.631  56.815  0.00  0.00    +0.012 A 
ATOM      5  C   LIG    1       27.968  33.268  56.380  0.00  0.00    +0.001 A 
ATOM      6  C   LIG    1       28.213  33.409  55.022  0.00  0.00    +0.004 A 
ATOM      7  C   LIG    1       27.328  32.908  54.092  0.00  0.00    +0.047 A 
ATOM      8  C   LIG    1       26.171  32.261  54.512  0.00  0.00    +0.136 A 
ATOM      9  O   LIG    1       25.145  31.686  53.851  0.00  0.00    -0.459 OA
ENDROOT
BRANCH   1  11
ATOM     10  C   LIG    1       23.243  28.970  54.194  0.00  0.00    +0.012 C 
ATOM     11  C   LIG    1       22.974  30.474  54.295  0.00  0.00    +0.072 C 
ENDBRANCH   1  11
BRANCH   2  12
ATOM     12  C   LIG    1       23.931  31.014  57.211  0.00  0.00    +0.197 C 
ATOM     13  O   LIG    1       24.178  29.948  57.742  0.00  0.00    -0.287 OA
BRANCH  12  14
ATOM     14  C   LIG    1       22.919  31.914  57.800  0.00  0.00    +0.023 A 
ATOM     15  C   LIG    1       22.354  31.615  59.043  0.00  0.00    +0.015 A 
ATOM     16  C   LIG    1       21.414  32.460  59.590  0.00  0.00    +0.046 A 
ATOM     17  C   LIG    1       21.019  33.602  58.904  0.00  0.00    +0.117 A 
ATOM     18  C   LIG    1       21.573  33.900  57.664  0.00  0.00    +0.046 A 
ATOM     19  C   LIG    1       22.517  33.064  57.112  0.00  0.00    +0.015 A 
BRANCH  17  20
ATOM     20  O   LIG    1       20.088  34.429  59.445  0.00  0.00    -0.507 OA
ATOM     21  H   LIG    1       19.642  34.995  58.800  0.00  0.00    +0.292 HD
ENDBRANCH  17  20
ENDBRANCH  12  14
ENDBRANCH   2  12
TORSDOF 4
ENDMDL
MODEL 3
REMARK VINA RESULT:      -5.7      2.103      5.498
REMARK  Name = ZINC00000071
REMARK                            x       y       z     vdW  Elec       q    Type
REMARK                         _______ _______ _______ _____ _____    ______ ____
ROOT
ATOM      1  C   LIG    1       24.877  30.357  55.836  0.00  0.00    +0.117 A 
ATOM      2  C   LIG    1       24.460  31.638  56.044  0.00  0.00    +0.071 A 
ATOM      3  C   LIG    1       25.655  32.483  55.843  0.00  0.00    +0.031 A 
ATOM      4  C   LIG    1       25.897  33.852  55.907  0.00  0.00    +0.012 A 
ATOM      5  C   LIG    1       27.166  34.332  55.659  0.00  0.00    +0.001 A 
ATOM      6  C   LIG    1       28.193  33.455  55.341  0.00  0.00    +0.004 A 
ATOM      7  C   LIG    1       27.964  32.097  55.280  0.00  0.00    +0.047 A 
ATOM      8  C   LIG    1       26.693  31.595  55.528  0.00  0.00    +0.136 A 
ATOM      9  O   LIG    1       26.181  30.347  55.537  0.00  0.00    -0.459 OA
ENDROOT
BRANCH   1  11
ATOM     10  C   LIG    1       23.426  28.811  54.550  0.00  0.00    +0.012 C 
ATOM     11  C   LIG    1       24.000  29.136  55.932  0.00  0.00    +0.072 C 
ENDBRANCH   1  11
BRANCH   2  12
ATOM     12  C   LIG    1       23.105  32.085  56.394  0.00  0.00    +0.197 C 
ATOM     13  O   LIG    1       22.305  32.350  55.515  0.00  0.00    -0.287 OA
BRANCH  12  14
ATOM     14  C   LIG    1       22.714  32.215  57.811  0.00  0.00    +0.023 A 
ATOM     15  C   LIG    1       23.064  31.220  58.728  0.00  0.00    +0.015 A 
ATOM     16  C   LIG    1       22.700  31.347  60.051  0.00  0.00    +0.046 A 
ATOM     17  C   LIG    1       21.978  32.457  60.471  0.00  0.00    +0.117 A 
ATOM     18  C   LIG    1       21.621  33.445  59.562  0.00  0.00    +0.046 A 
ATOM     19  C   LIG    1       21.985  33.329  58.239  0.00  0.00    +0.015 A 
BRANCH  17  20
ATOM     20  O   LIG    1       21.617  32.576  61.775  0.00  0.00    -0.507 OA
ATOM     21  H   LIG    1       20.889  31.996  62.036  0.00  0.00    +0.292 HD
ENDBRANCH  17  20
ENDBRANCH  12  14
ENDBRANCH   2  12
TORSDOF 4
ENDMDL
MODEL 4
REMARK VINA RESULT:      -5.6      2.340      3.362
REMARK  Name = ZINC00000071
REMARK                            x       y       z     vdW  Elec       q    Type
REMARK                         _______ _______ _______ _____ _____    ______ ____
ROOT
ATOM      1  C   LIG    1       23.595  28.920  56.200  0.00  0.00    +0.117 A 
ATOM      2  C   LIG    1       23.592  30.241  56.533  0.00  0.00    +0.071 A 
ATOM      3  C   LIG    1       23.216  30.292  57.961  0.00  0.00    +0.031 A 
ATOM      4  C   LIG    1       23.037  31.319  58.882  0.00  0.00    +0.012 A 
ATOM      5  C   LIG    1       22.671  31.018  60.176  0.00  0.00    +0.001 A 
ATOM      6  C   LIG    1       22.487  29.698  60.560  0.00  0.00    +0.004 A 
ATOM      7  C   LIG    1       22.657  28.673  59.654  0.00  0.00    +0.047 A 
ATOM      8  C   LIG    1       23.025  28.957  58.345  0.00  0.00    +0.136 A 
ATOM      9  O   LIG    1       23.262  28.182  57.265  0.00  0.00    -0.459 OA
ENDROOT
BRANCH   1  11
ATOM     10  C   LIG    1       24.629  27.023  54.984  0.00  0.00    +0.012 C 
ATOM     11  C   LIG    1       23.923  28.372  54.835  0.00  0.00    +0.072 C 
ENDBRANCH   1  11
BRANCH   2  12
ATOM     12  C   LIG    1       23.902  31.379  55.656  0.00  0.00    +0.197 C 
ATOM     13  O   LIG    1       23.024  31.886  54.984  0.00  0.00    -0.287 OA
BRANCH  12  14
ATOM     14  C   LIG    1       25.279  31.905  55.589  0.00  0.00    +0.023 A 
ATOM     15  C   LIG    1       25.940  32.290  56.759  0.00  0.00    +0.015 A 
ATOM     16  C   LIG    1       27.227  32.777  56.693  0.00  0.00    +0.046 A 
ATOM     17  C   LIG    1       27.864  32.896  55.464  0.00  0.00    +0.117 A 
ATOM     18  C   LIG    1       27.209  32.521  54.297  0.00  0.00    +0.046 A 
ATOM     19  C   LIG    1       25.924  32.028  54.355  0.00  0.00    +0.015 A 
BRANCH  17  20
ATOM     20  O   LIG    1       29.131  33.380  55.402  0.00  0.00    -0.507 OA
ATOM     21  H   LIG    1       29.675  33.158  56.169  0.00  0.00    +0.292 HD
ENDBRANCH  17  20
ENDBRANCH  12  14
ENDBRANCH   2  12
TORSDOF 4
ENDMDL
MODEL 5
REMARK VINA RESULT:      -5.5      2.233      3.751
REMARK  Name = ZINC00000071
REMARK                            x       y       z     vdW  Elec       q    Type
REMARK                         _______ _______ _______ _____ _____    ______ ____
ROOT
ATOM      1  C   LIG    1       21.909  33.281  57.327  0.00  0.00    +0.117 A 
ATOM      2  C   LIG    1       22.848  32.320  57.098  0.00  0.00    +0.071 A 
ATOM      3  C   LIG    1       22.935  31.542  58.351  0.00  0.00    +0.031 A 
ATOM      4  C   LIG    1       23.690  30.448  58.763  0.00  0.00    +0.012 A 
ATOM      5  C   LIG    1       23.527  29.950  60.038  0.00  0.00    +0.001 A 
ATOM      6  C   LIG    1       22.612  30.532  60.903  0.00  0.00    +0.004 A 
ATOM      7  C   LIG    1       21.863  31.618  60.506  0.00  0.00    +0.047 A 
ATOM      8  C   LIG    1       22.014  32.136  59.225  0.00  0.00    +0.136 A 
ATOM      9  O   LIG    1       21.431  33.162  58.571  0.00  0.00    -0.459 OA
ENDROOT
BRANCH   1  11
ATOM     10  C   LIG    1       21.881  35.710  56.830  0.00  0.00    +0.012 C 
ATOM     11  C   LIG    1       21.475  34.322  56.328  0.00  0.00    +0.072 C 
ENDBRANCH   1  11
BRANCH   2  12
ATOM     12  C   LIG    1       23.612  32.102  55.863  0.00  0.00    +0.197 C 
ATOM     13  O   LIG    1       23.059  31.659  54.874  0.00  0.00    -0.287 OA
BRANCH  12  14
ATOM     14  C   LIG    1       25.054  32.420  55.822  0.00  0.00    +0.023 A 
ATOM     15  C   LIG    1       25.979  31.431  55.474  0.00  0.00    +0.015 A 
ATOM     16  C   LIG    1       27.322  31.733  55.432  0.00  0.00    +0.046 A 
ATOM     17  C   LIG    1       27.759  33.014  55.746  0.00  0.00    +0.117 A 
ATOM     18  C   LIG    1       26.844  33.998  56.099  0.00  0.00    +0.046 A 
ATOM     19  C   LIG    1       25.498  33.707  56.138  0.00  0.00    +0.015 A 
BRANCH  17  20
ATOM     20  O   LIG    1       29.084  33.305  55.709  0.00  0.00    -0.507 OA
ATOM     21  H   LIG    1       29.304  34.182  56.052  0.00  0.00    +0.292 HD
ENDBRANCH  17  20
ENDBRANCH  12  14
ENDBRANCH   2  12
TORSDOF 4
ENDMDL
