REMARK VINA RESULT:      -4.3      2.871      5.021
REMARK  Name = ZINC00000870
REMARK                            x       y       z     vdW  Elec       q    Type
REMARK                         _______ _______ _______ _____ _____    ______ ____
ROOT
ATOM      1  C   LIG    1       23.352  30.104  58.456  0.00  0.00    +0.018 A 
ATOM      2  C   LIG    1       22.326  29.584  57.649  0.00  0.00    +0.013 A 
ATOM      3  C   LIG    1       22.341  29.774  56.300  0.00  0.00    +0.027 A 
ATOM      4  C   LIG    1       23.378  30.490  55.702  0.00  0.00    +0.047 A 
ATOM      5  C   LIG    1       24.415  31.012  56.499  0.00  0.00    +0.003 A 
ATOM      6  C   LIG    1       25.327  31.699  55.578  0.00  0.00    -0.024 A 
ATOM      7  C   LIG    1       24.817  31.553  54.345  0.00  0.00    +0.087 A 
ATOM      8  N   LIG    1       23.655  30.833  54.401  0.00  0.00    -0.360 N 
ATOM      9  H   LIG    1       23.107  30.600  53.636  0.00  0.00    +0.165 HD
ATOM     10  C   LIG    1       24.398  30.822  57.877  0.00  0.00    +0.021 A 
ENDROOT
BRANCH   1  12
ATOM     11  C   LIG    1       22.006  29.720  60.620  0.00  0.00    +0.091 C 
ATOM     12  C   LIG    1       23.323  29.890  59.909  0.00  0.00    +0.160 C 
ATOM     13  O   LIG    1       24.360  29.849  60.537  0.00  0.00    -0.292 OA
ENDBRANCH   1  12
BRANCH   6  14
ATOM     14  C   LIG    1       26.594  32.426  55.946  0.00  0.00    +0.018 C 
BRANCH  14  15
ATOM     15  C   LIG    1       26.985  33.374  54.810  0.00  0.00    -0.082 C 
BRANCH  15  16
ATOM     16  N   LIG    1       26.724  34.761  55.232  0.00  0.00    +0.378 N 
ATOM     17  H   LIG    1       25.924  34.774  55.874  0.00  0.00    -0.090 HD
ATOM     18  H   LIG    1       26.509  35.338  54.420  0.00  0.00    -0.090 HD
ATOM     19  H   LIG    1       27.540  35.141  55.710  0.00  0.00    -0.090 HD
ENDBRANCH  15  16
ENDBRANCH  14  15
ENDBRANCH   6  14
TORSDOF 4
