REMARK VINA RESULT:      -4.3      4.597      7.149
REMARK  Name = ZINC00000870
REMARK                            x       y       z     vdW  Elec       q    Type
REMARK                         _______ _______ _______ _____ _____    ______ ____
ROOT
ATOM      1  C   LIG    1       22.484  37.299  57.842  0.00  0.00    +0.018 A 
ATOM      2  C   LIG    1       22.404  38.630  57.400  0.00  0.00    +0.013 A 
ATOM      3  C   LIG    1       23.376  39.156  56.603  0.00  0.00    +0.027 A 
ATOM      4  C   LIG    1       24.467  38.377  56.217  0.00  0.00    +0.047 A 
ATOM      5  C   LIG    1       24.556  37.039  56.650  0.00  0.00    +0.003 A 
ATOM      6  C   LIG    1       25.801  36.512  56.080  0.00  0.00    -0.024 A 
ATOM      7  C   LIG    1       26.356  37.506  55.370  0.00  0.00    +0.087 A 
ATOM      8  N   LIG    1       25.571  38.625  55.440  0.00  0.00    -0.360 N 
ATOM      9  H   LIG    1       25.767  39.470  55.005  0.00  0.00    +0.165 HD
ATOM     10  C   LIG    1       23.566  36.503  57.467  0.00  0.00    +0.021 A 
ENDROOT
BRANCH   1  12
ATOM     11  C   LIG    1       20.513  37.670  59.462  0.00  0.00    +0.091 C 
ATOM     12  C   LIG    1       21.427  36.745  58.700  0.00  0.00    +0.160 C 
ATOM     13  O   LIG    1       21.290  35.544  58.794  0.00  0.00    -0.292 OA
ENDBRANCH   1  12
BRANCH   6  14
ATOM     14  C   LIG    1       26.349  35.119  56.256  0.00  0.00    +0.018 C 
BRANCH  14  15
ATOM     15  C   LIG    1       27.214  34.756  55.047  0.00  0.00    -0.082 C 
BRANCH  15  16
ATOM     16  N   LIG    1       28.232  33.776  55.463  0.00  0.00    +0.378 N 
ATOM     17  H   LIG    1       28.999  33.776  54.782  0.00  0.00    -0.090 HD
ATOM     18  H   LIG    1       27.823  32.843  55.502  0.00  0.00    -0.090 HD
ATOM     19  H   LIG    1       28.601  34.022  56.380  0.00  0.00    -0.090 HD
ENDBRANCH  15  16
ENDBRANCH  14  15
ENDBRANCH   6  14
TORSDOF 4
