REMARK VINA RESULT:      -4.4      2.270      2.657
REMARK  Name = ZINC00000870
REMARK                            x       y       z     vdW  Elec       q    Type
REMARK                         _______ _______ _______ _____ _____    ______ ____
ROOT
ATOM      1  C   LIG    1       25.878  32.154  55.693  0.00  0.00    +0.018 A 
ATOM      2  C   LIG    1       25.335  31.842  54.435  0.00  0.00    +0.013 A 
ATOM      3  C   LIG    1       24.238  31.041  54.332  0.00  0.00    +0.027 A 
ATOM      4  C   LIG    1       23.640  30.517  55.478  0.00  0.00    +0.047 A 
ATOM      5  C   LIG    1       24.172  30.826  56.745  0.00  0.00    +0.003 A 
ATOM      6  C   LIG    1       23.327  30.127  57.720  0.00  0.00    -0.024 A 
ATOM      7  C   LIG    1       22.382  29.479  57.022  0.00  0.00    +0.087 A 
ATOM      8  N   LIG    1       22.554  29.703  55.683  0.00  0.00    -0.360 N 
ATOM      9  H   LIG    1       21.992  29.338  54.981  0.00  0.00    +0.165 HD
ATOM     10  C   LIG    1       25.295  31.641  56.851  0.00  0.00    +0.021 A 
ENDROOT
BRANCH   1  12
ATOM     11  C   LIG    1       27.526  33.797  54.583  0.00  0.00    +0.091 C 
ATOM     12  C   LIG    1       27.061  33.021  55.788  0.00  0.00    +0.160 C 
ATOM     13  O   LIG    1       27.663  33.113  56.837  0.00  0.00    -0.292 OA
ENDBRANCH   1  12
BRANCH   6  14
ATOM     14  C   LIG    1       23.488  30.139  59.218  0.00  0.00    +0.018 C 
BRANCH  14  15
ATOM     15  C   LIG    1       22.633  31.260  59.813  0.00  0.00    -0.082 C 
BRANCH  15  16
ATOM     16  N   LIG    1       23.124  31.570  61.167  0.00  0.00    +0.378 N 
ATOM     17  H   LIG    1       22.326  31.656  61.806  0.00  0.00    -0.090 HD
ATOM     18  H   LIG    1       23.639  32.450  61.158  0.00  0.00    -0.090 HD
ATOM     19  H   LIG    1       23.735  30.825  61.497  0.00  0.00    -0.090 HD
ENDBRANCH  15  16
ENDBRANCH  14  15
ENDBRANCH   6  14
TORSDOF 4
