REMARK VINA RESULT:      -4.3      3.556      6.037
REMARK  Name = ZINC00000870
REMARK                            x       y       z     vdW  Elec       q    Type
REMARK                         _______ _______ _______ _____ _____    ______ ____
ROOT
ATOM      1  C   LIG    1       19.418  33.325  56.094  0.00  0.00    +0.018 A 
ATOM      2  C   LIG    1       20.183  34.257  56.815  0.00  0.00    +0.013 A 
ATOM      3  C   LIG    1       21.539  34.139  56.880  0.00  0.00    +0.027 A 
ATOM      4  C   LIG    1       22.185  33.088  56.230  0.00  0.00    +0.047 A 
ATOM      5  C   LIG    1       21.430  32.150  55.500  0.00  0.00    +0.003 A 
ATOM      6  C   LIG    1       22.395  31.191  54.953  0.00  0.00    -0.024 A 
ATOM      7  C   LIG    1       23.611  31.589  55.356  0.00  0.00    +0.087 A 
ATOM      8  N   LIG    1       23.504  32.721  56.118  0.00  0.00    -0.360 N 
ATOM      9  H   LIG    1       24.249  33.193  56.521  0.00  0.00    +0.165 HD
ATOM     10  C   LIG    1       20.045  32.267  55.438  0.00  0.00    +0.021 A 
ENDROOT
BRANCH   1  12
ATOM     11  C   LIG    1       17.322  34.822  56.197  0.00  0.00    +0.091 C 
ATOM     12  C   LIG    1       17.956  33.466  56.033  0.00  0.00    +0.160 C 
ATOM     13  O   LIG    1       17.260  32.490  55.849  0.00  0.00    -0.292 OA
ENDBRANCH   1  12
BRANCH   6  14
ATOM     14  C   LIG    1       22.081  29.990  54.098  0.00  0.00    +0.018 C 
BRANCH  14  15
ATOM     15  C   LIG    1       21.623  28.835  54.990  0.00  0.00    -0.082 C 
BRANCH  15  16
ATOM     16  N   LIG    1       20.165  28.672  54.852  0.00  0.00    +0.378 N 
ATOM     17  H   LIG    1       19.722  29.597  54.835  0.00  0.00    -0.090 HD
ATOM     18  H   LIG    1       19.797  28.141  55.641  0.00  0.00    -0.090 HD
ATOM     19  H   LIG    1       19.948  28.183  53.985  0.00  0.00    -0.090 HD
ENDBRANCH  15  16
ENDBRANCH  14  15
ENDBRANCH   6  14
TORSDOF 4
