REMARK VINA RESULT:      -4.4      0.000      0.000
REMARK  Name = ZINC00000870
REMARK                            x       y       z     vdW  Elec       q    Type
REMARK                         _______ _______ _______ _____ _____    ______ ____
ROOT
ATOM      1  C   LIG    1       25.846  32.835  55.884  0.00  0.00    +0.018 A 
ATOM      2  C   LIG    1       26.305  31.521  55.688  0.00  0.00    +0.013 A 
ATOM      3  C   LIG    1       25.483  30.459  55.918  0.00  0.00    +0.027 A 
ATOM      4  C   LIG    1       24.174  30.663  56.353  0.00  0.00    +0.047 A 
ATOM      5  C   LIG    1       23.701  31.975  56.548  0.00  0.00    +0.003 A 
ATOM      6  C   LIG    1       22.312  31.841  57.001  0.00  0.00    -0.024 A 
ATOM      7  C   LIG    1       22.041  30.528  57.043  0.00  0.00    +0.087 A 
ATOM      8  N   LIG    1       23.141  29.811  56.657  0.00  0.00    -0.360 N 
ATOM      9  H   LIG    1       23.185  28.843  56.608  0.00  0.00    +0.165 HD
ATOM     10  C   LIG    1       24.540  33.060  56.319  0.00  0.00    +0.021 A 
ENDROOT
BRANCH   1  12
ATOM     11  C   LIG    1       27.662  33.956  54.438  0.00  0.00    +0.091 C 
ATOM     12  C   LIG    1       26.743  33.971  55.632  0.00  0.00    +0.160 C 
ATOM     13  O   LIG    1       26.744  34.922  56.384  0.00  0.00    -0.292 OA
ENDBRANCH   1  12
BRANCH   6  14
ATOM     14  C   LIG    1       21.369  32.964  57.349  0.00  0.00    +0.018 C 
BRANCH  14  15
ATOM     15  C   LIG    1       20.850  33.610  56.063  0.00  0.00    -0.082 C 
BRANCH  15  16
ATOM     16  N   LIG    1       21.474  34.936  55.907  0.00  0.00    +0.378 N 
ATOM     17  H   LIG    1       22.280  34.859  55.277  0.00  0.00    -0.090 HD
ATOM     18  H   LIG    1       21.791  35.282  56.812  0.00  0.00    -0.090 HD
ATOM     19  H   LIG    1       20.804  35.593  55.510  0.00  0.00    -0.090 HD
ENDBRANCH  15  16
ENDBRANCH  14  15
ENDBRANCH   6  14
TORSDOF 4
