REMARK VINA RESULT:      -5.8      0.000      0.000
REMARK  Name = ZINC00001083
REMARK                            x       y       z     vdW  Elec       q    Type
REMARK                         _______ _______ _______ _____ _____    ______ ____
ROOT
ATOM      1  C   LIG    1       27.110  34.694  55.185  0.00  0.00    +0.092 C 
ATOM      2  C   LIG    1       26.364  35.029  56.261  0.00  0.00    +0.015 C 
ENDROOT
BRANCH   2   3
ATOM      3  C   LIG    1       25.749  36.361  56.343  0.00  0.00    -0.021 A 
ATOM      4  C   LIG    1       24.601  36.558  57.121  0.00  0.00    +0.012 A 
ATOM      5  C   LIG    1       24.027  37.808  57.196  0.00  0.00    +0.050 A 
ATOM      6  C   LIG    1       24.584  38.874  56.502  0.00  0.00    +0.158 A 
ATOM      7  C   LIG    1       25.727  38.686  55.726  0.00  0.00    +0.159 A 
ATOM      8  C   LIG    1       26.312  37.438  55.650  0.00  0.00    +0.057 A 
BRANCH   6   9
ATOM      9  O   LIG    1       24.013  40.104  56.579  0.00  0.00    -0.503 OA
ATOM     10  H   LIG    1       24.650  40.832  56.625  0.00  0.00    +0.292 HD
ENDBRANCH   6   9
BRANCH   7  11
ATOM     11  O   LIG    1       26.269  39.735  55.048  0.00  0.00    -0.503 OA
ATOM     12  H   LIG    1       26.038  39.758  54.110  0.00  0.00    +0.292 HD
ENDBRANCH   7  11
ENDBRANCH   2   3
BRANCH   1  13
ATOM     13  C   LIG    1       27.704  33.410  55.107  0.00  0.00    +0.332 C 
ATOM     14  O   LIG    1       28.702  33.160  55.757  0.00  0.00    -0.246 OA
BRANCH  13  15
ATOM     15  O   LIG    1       27.164  32.463  54.311  0.00  0.00    -0.461 OA
BRANCH  15  16
ATOM     16  C   LIG    1       25.821  32.065  54.595  0.00  0.00    +0.237 C 
BRANCH  16  17
ATOM     17  C   LIG    1       25.801  31.213  55.866  0.00  0.00    +0.076 C 
BRANCH  17  21
ATOM     18  C   LIG    1       22.277  32.098  58.113  0.00  0.00    +0.000 A 
ATOM     19  C   LIG    1       23.087  31.041  58.486  0.00  0.00    +0.000 A 
ATOM     20  C   LIG    1       24.227  30.755  57.758  0.00  0.00    +0.004 A 
ATOM     21  C   LIG    1       24.557  31.525  56.659  0.00  0.00    -0.044 A 
ATOM     22  C   LIG    1       23.747  32.582  56.286  0.00  0.00    +0.004 A 
ATOM     23  C   LIG    1       22.608  32.869  57.014  0.00  0.00    +0.000 A 
ENDBRANCH  17  21
ENDBRANCH  16  17
ENDBRANCH  15  16
ENDBRANCH  13  15
ENDBRANCH   1  13
TORSDOF 8
