REMARK VINA RESULT:      -5.7      1.725      2.004
REMARK  Name = ZINC00001083
REMARK                            x       y       z     vdW  Elec       q    Type
REMARK                         _______ _______ _______ _____ _____    ______ ____
ROOT
ATOM      1  C   LIG    1       26.932  35.279  55.254  0.00  0.00    +0.092 C 
ATOM      2  C   LIG    1       26.132  35.525  56.316  0.00  0.00    +0.015 C 
ENDROOT
BRANCH   2   3
ATOM      3  C   LIG    1       25.605  36.878  56.541  0.00  0.00    -0.021 A 
ATOM      4  C   LIG    1       24.675  37.107  57.563  0.00  0.00    +0.012 A 
ATOM      5  C   LIG    1       24.183  38.376  57.773  0.00  0.00    +0.050 A 
ATOM      6  C   LIG    1       24.607  39.430  56.973  0.00  0.00    +0.158 A 
ATOM      7  C   LIG    1       25.533  39.209  55.954  0.00  0.00    +0.159 A 
ATOM      8  C   LIG    1       26.036  37.942  55.741  0.00  0.00    +0.057 A 
BRANCH   6   9
ATOM      9  O   LIG    1       24.118  40.679  57.184  0.00  0.00    -0.503 OA
ATOM     10  H   LIG    1       24.163  40.969  58.106  0.00  0.00    +0.292 HD
ENDBRANCH   6   9
BRANCH   7  11
ATOM     11  O   LIG    1       25.945  40.245  55.175  0.00  0.00    -0.503 OA
ATOM     12  H   LIG    1       26.896  40.415  55.217  0.00  0.00    +0.292 HD
ENDBRANCH   7  11
ENDBRANCH   2   3
BRANCH   1  13
ATOM     13  C   LIG    1       27.441  33.975  55.037  0.00  0.00    +0.332 C 
ATOM     14  O   LIG    1       28.628  33.752  55.186  0.00  0.00    -0.246 OA
BRANCH  13  15
ATOM     15  O   LIG    1       26.611  32.979  54.664  0.00  0.00    -0.461 OA
BRANCH  15  16
ATOM     16  C   LIG    1       26.542  31.836  55.519  0.00  0.00    +0.237 C 
BRANCH  16  17
ATOM     17  C   LIG    1       25.155  31.764  56.163  0.00  0.00    +0.076 C 
BRANCH  17  21
ATOM     18  C   LIG    1       22.933  28.567  54.405  0.00  0.00    +0.000 A 
ATOM     19  C   LIG    1       23.863  28.301  55.393  0.00  0.00    +0.000 A 
ATOM     20  C   LIG    1       24.583  29.336  55.961  0.00  0.00    +0.004 A 
ATOM     21  C   LIG    1       24.372  30.636  55.542  0.00  0.00    -0.044 A 
ATOM     22  C   LIG    1       23.441  30.902  54.555  0.00  0.00    +0.004 A 
ATOM     23  C   LIG    1       22.721  29.868  53.987  0.00  0.00    +0.000 A 
ENDBRANCH  17  21
ENDBRANCH  16  17
ENDBRANCH  15  16
ENDBRANCH  13  15
ENDBRANCH   1  13
TORSDOF 8
