REMARK VINA RESULT:      -5.7      2.475      6.755
REMARK  Name = ZINC00001083
REMARK                            x       y       z     vdW  Elec       q    Type
REMARK                         _______ _______ _______ _____ _____    ______ ____
ROOT
ATOM      1  C   LIG    1       26.331  32.863  55.209  0.00  0.00    +0.092 C 
ATOM      2  C   LIG    1       26.041  31.769  55.947  0.00  0.00    +0.015 C 
ENDROOT
BRANCH   2   3
ATOM      3  C   LIG    1       24.866  30.950  55.619  0.00  0.00    -0.021 A 
ATOM      4  C   LIG    1       24.857  29.582  55.921  0.00  0.00    +0.012 A 
ATOM      5  C   LIG    1       23.754  28.817  55.612  0.00  0.00    +0.050 A 
ATOM      6  C   LIG    1       22.650  29.399  55.001  0.00  0.00    +0.158 A 
ATOM      7  C   LIG    1       22.652  30.760  54.697  0.00  0.00    +0.159 A 
ATOM      8  C   LIG    1       23.751  31.535  55.009  0.00  0.00    +0.057 A 
BRANCH   6   9
ATOM      9  O   LIG    1       21.566  28.640  54.698  0.00  0.00    -0.503 OA
ATOM     10  H   LIG    1       21.568  28.292  53.795  0.00  0.00    +0.292 HD
ENDBRANCH   6   9
BRANCH   7  11
ATOM     11  O   LIG    1       21.568  31.324  54.100  0.00  0.00    -0.503 OA
ATOM     12  H   LIG    1       21.784  32.057  53.507  0.00  0.00    +0.292 HD
ENDBRANCH   7  11
ENDBRANCH   2   3
BRANCH   1  13
ATOM     13  C   LIG    1       27.464  33.653  55.526  0.00  0.00    +0.332 C 
ATOM     14  O   LIG    1       28.501  33.118  55.870  0.00  0.00    -0.246 OA
BRANCH  13  15
ATOM     15  O   LIG    1       27.392  34.998  55.449  0.00  0.00    -0.461 OA
BRANCH  15  16
ATOM     16  C   LIG    1       26.282  35.627  56.093  0.00  0.00    +0.237 C 
BRANCH  16  17
ATOM     17  C   LIG    1       26.141  37.062  55.579  0.00  0.00    +0.076 C 
BRANCH  17  21
ATOM     18  C   LIG    1       22.705  38.876  57.353  0.00  0.00    +0.000 A 
ATOM     19  C   LIG    1       23.657  39.662  56.730  0.00  0.00    +0.000 A 
ATOM     20  C   LIG    1       24.769  39.075  56.156  0.00  0.00    +0.004 A 
ATOM     21  C   LIG    1       24.930  37.703  56.205  0.00  0.00    -0.044 A 
ATOM     22  C   LIG    1       23.977  36.917  56.829  0.00  0.00    +0.004 A 
ATOM     23  C   LIG    1       22.865  37.504  57.401  0.00  0.00    +0.000 A 
ENDBRANCH  17  21
ENDBRANCH  16  17
ENDBRANCH  15  16
ENDBRANCH  13  15
ENDBRANCH   1  13
TORSDOF 8
