REMARK VINA RESULT:      -5.5      2.645      4.405
REMARK  Name = ZINC00001083
REMARK                            x       y       z     vdW  Elec       q    Type
REMARK                         _______ _______ _______ _____ _____    ______ ____
ROOT
ATOM      1  C   LIG    1       22.364  33.902  56.868  0.00  0.00    +0.092 C 
ATOM      2  C   LIG    1       21.734  35.034  56.481  0.00  0.00    +0.015 C 
ENDROOT
BRANCH   2   3
ATOM      3  C   LIG    1       21.995  36.297  57.184  0.00  0.00    -0.021 A 
ATOM      4  C   LIG    1       20.969  37.237  57.343  0.00  0.00    +0.012 A 
ATOM      5  C   LIG    1       21.216  38.421  58.002  0.00  0.00    +0.050 A 
ATOM      6  C   LIG    1       22.481  38.685  58.511  0.00  0.00    +0.158 A 
ATOM      7  C   LIG    1       23.508  37.754  58.357  0.00  0.00    +0.159 A 
ATOM      8  C   LIG    1       23.267  36.563  57.703  0.00  0.00    +0.057 A 
BRANCH   6   9
ATOM      9  O   LIG    1       22.719  39.854  59.160  0.00  0.00    -0.503 OA
ATOM     10  H   LIG    1       22.394  40.636  58.693  0.00  0.00    +0.292 HD
ENDBRANCH   6   9
BRANCH   7  11
ATOM     11  O   LIG    1       24.745  38.018  58.857  0.00  0.00    -0.503 OA
ATOM     12  H   LIG    1       25.405  37.342  58.652  0.00  0.00    +0.292 HD
ENDBRANCH   7  11
ENDBRANCH   2   3
BRANCH   1  13
ATOM     13  C   LIG    1       22.112  32.683  56.191  0.00  0.00    +0.332 C 
ATOM     14  O   LIG    1       21.425  32.676  55.186  0.00  0.00    -0.246 OA
BRANCH  13  15
ATOM     15  O   LIG    1       22.633  31.530  56.659  0.00  0.00    -0.461 OA
BRANCH  15  16
ATOM     16  C   LIG    1       24.034  31.517  56.938  0.00  0.00    +0.237 C 
BRANCH  16  17
ATOM     17  C   LIG    1       24.808  31.237  55.648  0.00  0.00    +0.076 C 
BRANCH  17  21
ATOM     18  C   LIG    1       27.545  34.432  54.909  0.00  0.00    +0.000 A 
ATOM     19  C   LIG    1       26.719  34.472  56.017  0.00  0.00    +0.000 A 
ATOM     20  C   LIG    1       25.833  33.438  56.256  0.00  0.00    +0.004 A 
ATOM     21  C   LIG    1       25.773  32.365  55.387  0.00  0.00    -0.044 A 
ATOM     22  C   LIG    1       26.599  32.325  54.279  0.00  0.00    +0.004 A 
ATOM     23  C   LIG    1       27.486  33.358  54.041  0.00  0.00    +0.000 A 
ENDBRANCH  17  21
ENDBRANCH  16  17
ENDBRANCH  15  16
ENDBRANCH  13  15
ENDBRANCH   1  13
TORSDOF 8
