REMARK VINA RESULT:      -5.5      2.863      4.816
REMARK  Name = ZINC00001083
REMARK                            x       y       z     vdW  Elec       q    Type
REMARK                         _______ _______ _______ _____ _____    ______ ____
ROOT
ATOM      1  C   LIG    1       22.274  33.589  56.697  0.00  0.00    +0.092 C 
ATOM      2  C   LIG    1       21.297  34.491  56.457  0.00  0.00    +0.015 C 
ENDROOT
BRANCH   2   3
ATOM      3  C   LIG    1       21.345  35.814  57.095  0.00  0.00    -0.021 A 
ATOM      4  C   LIG    1       22.484  36.208  57.808  0.00  0.00    +0.012 A 
ATOM      5  C   LIG    1       22.527  37.449  58.405  0.00  0.00    +0.050 A 
ATOM      6  C   LIG    1       21.442  38.311  58.300  0.00  0.00    +0.158 A 
ATOM      7  C   LIG    1       20.305  37.926  57.592  0.00  0.00    +0.159 A 
ATOM      8  C   LIG    1       20.256  36.686  56.986  0.00  0.00    +0.057 A 
BRANCH   6   9
ATOM      9  O   LIG    1       21.490  39.533  58.891  0.00  0.00    -0.503 OA
ATOM     10  H   LIG    1       20.652  40.016  58.864  0.00  0.00    +0.292 HD
ENDBRANCH   6   9
BRANCH   7  11
ATOM     11  O   LIG    1       19.246  38.774  57.493  0.00  0.00    -0.503 OA
ATOM     12  H   LIG    1       18.756  38.889  58.318  0.00  0.00    +0.292 HD
ENDBRANCH   7  11
ENDBRANCH   2   3
BRANCH   1  13
ATOM     13  C   LIG    1       22.227  32.313  56.082  0.00  0.00    +0.332 C 
ATOM     14  O   LIG    1       21.424  31.483  56.465  0.00  0.00    -0.246 OA
BRANCH  13  15
ATOM     15  O   LIG    1       23.074  32.017  55.074  0.00  0.00    -0.461 OA
BRANCH  15  16
ATOM     16  C   LIG    1       23.991  30.943  55.290  0.00  0.00    +0.237 C 
BRANCH  16  17
ATOM     17  C   LIG    1       25.041  31.369  56.320  0.00  0.00    +0.076 C 
BRANCH  17  21
ATOM     18  C   LIG    1       27.545  34.388  54.628  0.00  0.00    +0.000 A 
ATOM     19  C   LIG    1       27.445  33.151  54.017  0.00  0.00    +0.000 A 
ATOM     20  C   LIG    1       26.635  32.174  54.565  0.00  0.00    +0.004 A 
ATOM     21  C   LIG    1       25.925  32.433  55.723  0.00  0.00    -0.044 A 
ATOM     22  C   LIG    1       26.025  33.670  56.333  0.00  0.00    +0.004 A 
ATOM     23  C   LIG    1       26.834  34.647  55.785  0.00  0.00    +0.000 A 
ENDBRANCH  17  21
ENDBRANCH  16  17
ENDBRANCH  15  16
ENDBRANCH  13  15
ENDBRANCH   1  13
TORSDOF 8
