MODEL 1
REMARK VINA RESULT:      -5.6      0.000      0.000
REMARK  Name = ZINC00000075
REMARK                            x       y       z     vdW  Elec       q    Type
REMARK                         _______ _______ _______ _____ _____    ______ ____
ROOT
ATOM      1  O   LIG    1       24.047  30.917  54.724  0.00  0.00    -0.459 OA
ENDROOT
BRANCH   1   2
ATOM      2  C   LIG    1       23.016  30.151  55.347  0.00  0.00    +0.163 C 
ATOM      3  C   LIG    1       21.997  29.710  54.293  0.00  0.00    -0.033 C 
ATOM      4  N   LIG    1       20.673  30.244  54.621  0.00  0.00    +0.382 N 
ATOM      5  H   LIG    1       20.023  29.944  53.912  0.00  0.00    -0.082 HD
ATOM      6  C   LIG    1       20.695  31.710  54.627  0.00  0.00    -0.078 C 
ATOM      7  C   LIG    1       21.670  32.216  55.691  0.00  0.00    -0.012 C 
ATOM      8  C   LIG    1       20.217  29.730  55.915  0.00  0.00    -0.078 C 
ATOM      9  C   LIG    1       21.179  30.171  57.025  0.00  0.00    -0.012 C 
ATOM     10  C   LIG    1       22.303  31.008  56.401  0.00  0.00    +0.024 C 
ENDBRANCH   1   2
BRANCH   1  11
ATOM     11  C   LIG    1       25.195  31.073  55.413  0.00  0.00    +0.339 C 
ATOM     12  O   LIG    1       25.594  30.183  56.137  0.00  0.00    -0.245 OA
BRANCH  11  16
ATOM     13  C   LIG    1       27.420  34.672  55.048  0.00  0.00    +0.000 A 
ATOM     14  C   LIG    1       26.519  34.522  56.087  0.00  0.00    +0.001 A 
ATOM     15  C   LIG    1       25.793  33.356  56.212  0.00  0.00    +0.015 A 
ATOM     16  C   LIG    1       25.969  32.325  55.286  0.00  0.00    +0.059 A 
ATOM     17  C   LIG    1       26.880  32.483  54.239  0.00  0.00    +0.015 A 
ATOM     18  C   LIG    1       27.599  33.655  54.127  0.00  0.00    +0.001 A 
ENDBRANCH  11  16
ENDBRANCH   1  11
TORSDOF 3
ENDMDL
MODEL 2
REMARK VINA RESULT:      -5.6      1.034      2.080
REMARK  Name = ZINC00000075
REMARK                            x       y       z     vdW  Elec       q    Type
REMARK                         _______ _______ _______ _____ _____    ______ ____
ROOT
ATOM      1  O   LIG    1       24.280  30.575  55.931  0.00  0.00    -0.459 OA
ENDROOT
BRANCH   1   2
ATOM      2  C   LIG    1       22.925  31.025  55.974  0.00  0.00    +0.163 C 
ATOM      3  C   LIG    1       22.105  30.098  56.873  0.00  0.00    -0.033 C 
ATOM      4  N   LIG    1       21.020  29.483  56.104  0.00  0.00    +0.382 N 
ATOM      5  H   LIG    1       20.499  28.875  56.717  0.00  0.00    -0.082 HD
ATOM      6  C   LIG    1       21.560  28.671  55.010  0.00  0.00    -0.078 C 
ATOM      7  C   LIG    1       22.362  29.550  54.050  0.00  0.00    -0.012 C 
ATOM      8  C   LIG    1       20.112  30.508  55.585  0.00  0.00    -0.078 C 
ATOM      9  C   LIG    1       20.867  31.452  54.642  0.00  0.00    -0.012 C 
ATOM     10  C   LIG    1       22.331  31.000  54.559  0.00  0.00    +0.024 C 
ENDBRANCH   1   2
BRANCH   1  11
ATOM     11  C   LIG    1       25.192  31.317  56.590  0.00  0.00    +0.339 C 
ATOM     12  O   LIG    1       25.332  31.184  57.790  0.00  0.00    -0.245 OA
BRANCH  11  16
ATOM     13  C   LIG    1       27.582  34.119  54.475  0.00  0.00    +0.000 A 
ATOM     14  C   LIG    1       27.433  32.833  53.986  0.00  0.00    +0.001 A 
ATOM     15  C   LIG    1       26.659  31.918  54.668  0.00  0.00    +0.015 A 
ATOM     16  C   LIG    1       26.023  32.291  55.854  0.00  0.00    +0.059 A 
ATOM     17  C   LIG    1       26.177  33.591  56.342  0.00  0.00    +0.015 A 
ATOM     18  C   LIG    1       26.955  34.496  55.649  0.00  0.00    +0.001 A 
ENDBRANCH  11  16
ENDBRANCH   1  11
TORSDOF 3
ENDMDL
MODEL 3
REMARK VINA RESULT:      -5.5      1.040      1.620
REMARK  Name = ZINC00000075
REMARK                            x       y       z     vdW  Elec       q    Type
REMARK                         _______ _______ _______ _____ _____    ______ ____
ROOT
ATOM      1  O   LIG    1       23.471  31.497  54.770  0.00  0.00    -0.459 OA
ENDROOT
BRANCH   1   2
ATOM      2  C   LIG    1       22.374  31.022  55.552  0.00  0.00    +0.163 C 
ATOM      3  C   LIG    1       21.089  31.083  54.724  0.00  0.00    -0.033 C 
ATOM      4  N   LIG    1       20.114  31.963  55.374  0.00  0.00    +0.382 N 
ATOM      5  H   LIG    1       19.281  31.989  54.808  0.00  0.00    -0.082 HD
ATOM      6  C   LIG    1       20.638  33.327  55.475  0.00  0.00    -0.078 C 
ATOM      7  C   LIG    1       21.907  33.340  56.328  0.00  0.00    -0.012 C 
ATOM      8  C   LIG    1       19.758  31.447  56.698  0.00  0.00    -0.078 C 
ATOM      9  C   LIG    1       21.002  31.396  57.594  0.00  0.00    -0.012 C 
ATOM     10  C   LIG    1       22.208  31.907  56.795  0.00  0.00    +0.024 C 
ENDBRANCH   1   2
BRANCH   1  11
ATOM     11  C   LIG    1       24.708  31.281  55.258  0.00  0.00    +0.339 C 
ATOM     12  O   LIG    1       24.989  30.207  55.750  0.00  0.00    -0.245 OA
BRANCH  11  16
ATOM     13  C   LIG    1       27.631  34.357  55.071  0.00  0.00    +0.000 A 
ATOM     14  C   LIG    1       27.615  33.363  54.107  0.00  0.00    +0.001 A 
ATOM     15  C   LIG    1       26.668  32.362  54.162  0.00  0.00    +0.015 A 
ATOM     16  C   LIG    1       25.725  32.351  55.192  0.00  0.00    +0.059 A 
ATOM     17  C   LIG    1       25.748  33.357  56.161  0.00  0.00    +0.015 A 
ATOM     18  C   LIG    1       26.700  34.353  56.094  0.00  0.00    +0.001 A 
ENDBRANCH  11  16
ENDBRANCH   1  11
TORSDOF 3
ENDMDL
MODEL 4
REMARK VINA RESULT:      -5.3      1.357      2.380
REMARK  Name = ZINC00000075
REMARK                            x       y       z     vdW  Elec       q    Type
REMARK                         _______ _______ _______ _____ _____    ______ ____
ROOT
ATOM      1  O   LIG    1       23.834  31.911  56.917  0.00  0.00    -0.459 OA
ENDROOT
BRANCH   1   2
ATOM      2  C   LIG    1       22.819  32.298  55.988  0.00  0.00    +0.163 C 
ATOM      3  C   LIG    1       21.946  33.391  56.608  0.00  0.00    -0.033 C 
ATOM      4  N   LIG    1       20.555  32.937  56.688  0.00  0.00    +0.382 N 
ATOM      5  H   LIG    1       20.003  33.671  57.103  0.00  0.00    -0.082 HD
ATOM      6  C   LIG    1       20.449  31.751  57.542  0.00  0.00    -0.078 C 
ATOM      7  C   LIG    1       21.272  30.604  56.954  0.00  0.00    -0.012 C 
ATOM      8  C   LIG    1       20.027  32.658  55.350  0.00  0.00    -0.078 C 
ATOM      9  C   LIG    1       20.839  31.540  54.687  0.00  0.00    -0.012 C 
ATOM     10  C   LIG    1       21.939  31.086  55.655  0.00  0.00    +0.024 C 
ENDBRANCH   1   2
BRANCH   1  11
ATOM     11  C   LIG    1       24.995  31.462  56.402  0.00  0.00    +0.339 C 
ATOM     12  O   LIG    1       25.286  30.285  56.495  0.00  0.00    -0.245 OA
BRANCH  11  16
ATOM     13  C   LIG    1       27.639  34.153  54.452  0.00  0.00    +0.000 A 
ATOM     14  C   LIG    1       27.392  32.909  53.899  0.00  0.00    +0.001 A 
ATOM     15  C   LIG    1       26.534  32.030  54.527  0.00  0.00    +0.015 A 
ATOM     16  C   LIG    1       25.914  32.398  55.723  0.00  0.00    +0.059 A 
ATOM     17  C   LIG    1       26.169  33.655  56.276  0.00  0.00    +0.015 A 
ATOM     18  C   LIG    1       27.029  34.524  55.637  0.00  0.00    +0.001 A 
ENDBRANCH  11  16
ENDBRANCH   1  11
TORSDOF 3
ENDMDL
MODEL 5
REMARK VINA RESULT:      -5.1      2.517      6.070
REMARK  Name = ZINC00000075
REMARK                            x       y       z     vdW  Elec       q    Type
REMARK                         _______ _______ _______ _____ _____    ______ ____
ROOT
ATOM      1  O   LIG    1       24.908  31.879  54.589  0.00  0.00    -0.459 OA
ENDROOT
BRANCH   1   2
ATOM      2  C   LIG    1       26.102  31.831  55.372  0.00  0.00    +0.163 C 
ATOM      3  C   LIG    1       26.126  33.013  56.343  0.00  0.00    -0.033 C 
ATOM      4  N   LIG    1       27.301  33.850  56.085  0.00  0.00    +0.382 N 
ATOM      5  H   LIG    1       27.291  34.622  56.733  0.00  0.00    -0.082 HD
ATOM      6  C   LIG    1       27.257  34.396  54.727  0.00  0.00    -0.078 C 
ATOM      7  C   LIG    1       27.270  33.259  53.703  0.00  0.00    -0.012 C 
ATOM      8  C   LIG    1       28.533  33.085  56.295  0.00  0.00    -0.078 C 
ATOM      9  C   LIG    1       28.588  31.901  55.322  0.00  0.00    -0.012 C 
ATOM     10  C   LIG    1       27.325  31.917  54.451  0.00  0.00    +0.024 C 
ENDBRANCH   1   2
BRANCH   1  11
ATOM     11  C   LIG    1       23.764  31.502  55.193  0.00  0.00    +0.339 C 
ATOM     12  O   LIG    1       22.890  32.319  55.404  0.00  0.00    -0.245 OA
BRANCH  11  16
ATOM     13  C   LIG    1       23.208  27.456  56.359  0.00  0.00    +0.000 A 
ATOM     14  C   LIG    1       23.573  27.754  55.057  0.00  0.00    +0.001 A 
ATOM     15  C   LIG    1       23.755  29.066  54.672  0.00  0.00    +0.015 A 
ATOM     16  C   LIG    1       23.571  30.094  55.598  0.00  0.00    +0.059 A 
ATOM     17  C   LIG    1       23.203  29.786  56.910  0.00  0.00    +0.015 A 
ATOM     18  C   LIG    1       23.024  28.470  57.281  0.00  0.00    +0.001 A 
ENDBRANCH  11  16
ENDBRANCH   1  11
TORSDOF 3
ENDMDL
