REMARK VINA RESULT:      -5.4      1.860      2.101
REMARK  Name = ZINC00000654
REMARK                            x       y       z     vdW  Elec       q    Type
REMARK                         _______ _______ _______ _____ _____    ______ ____
ROOT
ATOM      1  C   LIG    1       25.657  32.203  55.718  0.00  0.00    -0.033 A 
ATOM      2  C   LIG    1       25.812  30.828  55.686  0.00  0.00    +0.008 A 
ATOM      3  C   LIG    1       24.792  30.009  56.124  0.00  0.00    +0.047 A 
ATOM      4  C   LIG    1       23.606  30.562  56.598  0.00  0.00    +0.134 A 
ATOM      5  C   LIG    1       23.454  31.938  56.627  0.00  0.00    -0.000 A 
ATOM      6  C   LIG    1       22.182  32.561  57.133  0.00  0.00    +0.079 C 
ATOM      7  C   LIG    1       21.397  31.567  57.944  0.00  0.00    +0.019 A 
ATOM      8  C   LIG    1       20.404  32.015  58.799  0.00  0.00    +0.010 A 
ATOM      9  C   LIG    1       19.694  31.079  59.537  0.00  0.00    +0.020 A 
ATOM     10  C   LIG    1       19.999  29.740  59.397  0.00  0.00    +0.114 A 
ATOM     11  N   LIG    1       20.951  29.346  58.574  0.00  0.00    -0.221 NA
ATOM     12  C   LIG    1       21.653  30.208  57.851  0.00  0.00    +0.224 A 
ATOM     13  O   LIG    1       22.618  29.741  57.023  0.00  0.00    -0.437 OA
ATOM     14  C   LIG    1       24.483  32.756  56.193  0.00  0.00    +0.012 A 
ENDROOT
BRANCH   1  16
ATOM     15  C   LIG    1       27.214  32.659  53.842  0.00  0.00    +0.024 C 
ATOM     16  C   LIG    1       26.772  33.097  55.240  0.00  0.00    +0.124 C 
BRANCH  16  17
ATOM     17  C   LIG    1       27.938  32.997  56.189  0.00  0.00    +0.312 C 
ATOM     18  O   LIG    1       29.032  32.648  55.777  0.00  0.00    -0.250 OA
BRANCH  17  19
ATOM     19  O   LIG    1       27.788  33.263  57.370  0.00  0.00    -0.480 OA
ATOM     20  H   LIG    1       28.235  32.763  58.023  0.00  0.00    +0.295 HD
ENDBRANCH  17  19
ENDBRANCH  16  17
ENDBRANCH   1  16
TORSDOF 3
