REMARK VINA RESULT:      -5.5      4.725      5.465
REMARK  Name = ZINC00000654
REMARK                            x       y       z     vdW  Elec       q    Type
REMARK                         _______ _______ _______ _____ _____    ______ ____
ROOT
ATOM      1  C   LIG    1       23.120  32.280  55.990  0.00  0.00    -0.033 A 
ATOM      2  C   LIG    1       22.344  31.414  55.241  0.00  0.00    +0.008 A 
ATOM      3  C   LIG    1       21.011  31.696  55.024  0.00  0.00    +0.047 A 
ATOM      4  C   LIG    1       20.445  32.849  55.557  0.00  0.00    +0.134 A 
ATOM      5  C   LIG    1       21.225  33.714  56.305  0.00  0.00    -0.000 A 
ATOM      6  C   LIG    1       20.638  34.969  56.891  0.00  0.00    +0.079 C 
ATOM      7  C   LIG    1       19.137  34.882  56.921  0.00  0.00    +0.019 A 
ATOM      8  C   LIG    1       18.419  35.738  57.739  0.00  0.00    +0.010 A 
ATOM      9  C   LIG    1       17.034  35.638  57.749  0.00  0.00    +0.020 A 
ATOM     10  C   LIG    1       16.422  34.694  56.949  0.00  0.00    +0.114 A 
ATOM     11  N   LIG    1       17.135  33.894  56.181  0.00  0.00    -0.221 NA
ATOM     12  C   LIG    1       18.459  33.957  56.142  0.00  0.00    +0.224 A 
ATOM     13  O   LIG    1       19.135  33.107  55.332  0.00  0.00    -0.437 OA
ATOM     14  C   LIG    1       22.560  33.424  56.526  0.00  0.00    +0.012 A 
ENDROOT
BRANCH   1  16
ATOM     15  C   LIG    1       25.289  31.807  54.884  0.00  0.00    +0.024 C 
ATOM     16  C   LIG    1       24.577  31.971  56.228  0.00  0.00    +0.124 C 
BRANCH  16  17
ATOM     17  C   LIG    1       24.696  30.694  57.019  0.00  0.00    +0.312 C 
ATOM     18  O   LIG    1       24.628  30.722  58.237  0.00  0.00    -0.250 OA
BRANCH  17  19
ATOM     19  O   LIG    1       24.863  29.633  56.442  0.00  0.00    -0.480 OA
ATOM     20  H   LIG    1       24.134  29.069  56.280  0.00  0.00    +0.295 HD
ENDBRANCH  17  19
ENDBRANCH  16  17
ENDBRANCH   1  16
TORSDOF 3
