REMARK VINA RESULT:      -5.8      0.000      0.000
REMARK  Name = ZINC00000654
REMARK                            x       y       z     vdW  Elec       q    Type
REMARK                         _______ _______ _______ _____ _____    ______ ____
ROOT
ATOM      1  C   LIG    1       25.981  31.997  55.229  0.00  0.00    -0.033 A 
ATOM      2  C   LIG    1       25.131  31.665  54.189  0.00  0.00    +0.008 A 
ATOM      3  C   LIG    1       23.939  31.023  54.452  0.00  0.00    +0.047 A 
ATOM      4  C   LIG    1       23.589  30.707  55.760  0.00  0.00    +0.134 A 
ATOM      5  C   LIG    1       24.442  31.042  56.799  0.00  0.00    -0.000 A 
ATOM      6  C   LIG    1       24.085  30.713  58.223  0.00  0.00    +0.079 C 
ATOM      7  C   LIG    1       23.008  29.666  58.266  0.00  0.00    +0.019 A 
ATOM      8  C   LIG    1       22.791  28.956  59.435  0.00  0.00    +0.010 A 
ATOM      9  C   LIG    1       21.791  27.994  59.451  0.00  0.00    +0.020 A 
ATOM     10  C   LIG    1       21.050  27.776  58.307  0.00  0.00    +0.114 A 
ATOM     11  N   LIG    1       21.281  28.470  57.210  0.00  0.00    -0.221 NA
ATOM     12  C   LIG    1       22.226  29.398  57.153  0.00  0.00    +0.224 A 
ATOM     13  O   LIG    1       22.414  30.077  55.996  0.00  0.00    -0.437 OA
ATOM     14  C   LIG    1       25.639  31.681  56.530  0.00  0.00    +0.012 A 
ENDROOT
BRANCH   1  16
ATOM     15  C   LIG    1       28.428  31.683  54.970  0.00  0.00    +0.024 C 
ATOM     16  C   LIG    1       27.284  32.699  54.942  0.00  0.00    +0.124 C 
BRANCH  16  17
ATOM     17  C   LIG    1       27.526  33.757  55.988  0.00  0.00    +0.312 C 
ATOM     18  O   LIG    1       26.895  34.800  55.957  0.00  0.00    -0.250 OA
BRANCH  17  19
ATOM     19  O   LIG    1       28.354  33.570  56.863  0.00  0.00    -0.480 OA
ATOM     20  H   LIG    1       29.254  33.777  56.708  0.00  0.00    +0.295 HD
ENDBRANCH  17  19
ENDBRANCH  16  17
ENDBRANCH   1  16
TORSDOF 3
