REMARK VINA RESULT:      -5.4      2.247      2.916
REMARK  Name = ZINC00000654
REMARK                            x       y       z     vdW  Elec       q    Type
REMARK                         _______ _______ _______ _____ _____    ______ ____
ROOT
ATOM      1  C   LIG    1       25.623  31.925  56.086  0.00  0.00    -0.033 A 
ATOM      2  C   LIG    1       25.680  30.548  55.963  0.00  0.00    +0.008 A 
ATOM      3  C   LIG    1       24.520  29.823  55.788  0.00  0.00    +0.047 A 
ATOM      4  C   LIG    1       23.291  30.473  55.735  0.00  0.00    +0.134 A 
ATOM      5  C   LIG    1       23.237  31.851  55.857  0.00  0.00    -0.000 A 
ATOM      6  C   LIG    1       21.921  32.578  55.802  0.00  0.00    +0.079 C 
ATOM      7  C   LIG    1       20.784  31.624  56.041  0.00  0.00    +0.019 A 
ATOM      8  C   LIG    1       19.541  32.119  56.399  0.00  0.00    +0.010 A 
ATOM      9  C   LIG    1       18.507  31.219  56.616  0.00  0.00    +0.020 A 
ATOM     10  C   LIG    1       18.750  29.868  56.469  0.00  0.00    +0.114 A 
ATOM     11  N   LIG    1       19.945  29.429  56.127  0.00  0.00    -0.221 NA
ATOM     12  C   LIG    1       20.960  30.256  55.911  0.00  0.00    +0.224 A 
ATOM     13  O   LIG    1       22.164  29.743  55.562  0.00  0.00    -0.437 OA
ATOM     14  C   LIG    1       24.404  32.574  56.039  0.00  0.00    +0.012 A 
ENDROOT
BRANCH   1  16
ATOM     15  C   LIG    1       26.588  34.209  56.128  0.00  0.00    +0.024 C 
ATOM     16  C   LIG    1       26.891  32.717  56.278  0.00  0.00    +0.124 C 
BRANCH  16  17
ATOM     17  C   LIG    1       27.903  32.303  55.242  0.00  0.00    +0.312 C 
ATOM     18  O   LIG    1       28.974  31.833  55.589  0.00  0.00    -0.250 OA
BRANCH  17  19
ATOM     19  O   LIG    1       27.653  32.439  54.056  0.00  0.00    -0.480 OA
ATOM     20  H   LIG    1       28.320  32.290  53.417  0.00  0.00    +0.295 HD
ENDBRANCH  17  19
ENDBRANCH  16  17
ENDBRANCH   1  16
TORSDOF 3
