REMARK VINA RESULT:      -5.6      1.591      2.633
REMARK  Name = ZINC00000654
REMARK                            x       y       z     vdW  Elec       q    Type
REMARK                         _______ _______ _______ _____ _____    ______ ____
ROOT
ATOM      1  C   LIG    1       25.858  31.977  55.384  0.00  0.00    -0.033 A 
ATOM      2  C   LIG    1       25.856  31.903  56.766  0.00  0.00    +0.008 A 
ATOM      3  C   LIG    1       24.908  31.138  57.414  0.00  0.00    +0.047 A 
ATOM      4  C   LIG    1       23.954  30.439  56.681  0.00  0.00    +0.134 A 
ATOM      5  C   LIG    1       23.961  30.513  55.298  0.00  0.00    -0.000 A 
ATOM      6  C   LIG    1       22.942  29.765  54.483  0.00  0.00    +0.079 C 
ATOM      7  C   LIG    1       21.775  29.364  55.341  0.00  0.00    +0.019 A 
ATOM      8  C   LIG    1       20.578  29.005  54.743  0.00  0.00    +0.010 A 
ATOM      9  C   LIG    1       19.515  28.638  55.556  0.00  0.00    +0.020 A 
ATOM     10  C   LIG    1       19.684  28.644  56.927  0.00  0.00    +0.114 A 
ATOM     11  N   LIG    1       20.836  28.991  57.464  0.00  0.00    -0.221 NA
ATOM     12  C   LIG    1       21.876  29.348  56.723  0.00  0.00    +0.224 A 
ATOM     13  O   LIG    1       23.034  29.693  57.336  0.00  0.00    -0.437 OA
ATOM     14  C   LIG    1       24.910  31.287  54.653  0.00  0.00    +0.012 A 
ENDROOT
BRANCH   1  16
ATOM     15  C   LIG    1       26.928  32.437  53.194  0.00  0.00    +0.024 C 
ATOM     16  C   LIG    1       26.893  32.814  54.677  0.00  0.00    +0.124 C 
BRANCH  16  17
ATOM     17  C   LIG    1       28.247  32.563  55.290  0.00  0.00    +0.312 C 
ATOM     18  O   LIG    1       28.798  31.486  55.130  0.00  0.00    -0.250 OA
BRANCH  17  19
ATOM     19  O   LIG    1       28.790  33.434  55.947  0.00  0.00    -0.480 OA
ATOM     20  H   LIG    1       29.566  33.848  55.625  0.00  0.00    +0.295 HD
ENDBRANCH  17  19
ENDBRANCH  16  17
ENDBRANCH   1  16
TORSDOF 3
