REMARK VINA RESULT:      -7.2      1.762      3.032
REMARK  14 active torsions:
REMARK  status: ('A' for Active; 'I' for Inactive)
REMARK    1  A    between atoms: C11_1  and  O4_2 
REMARK    2  A    between atoms: C11_1  and  C10_4 
REMARK    3  A    between atoms: C11_1  and  C12_26 
REMARK    4  A    between atoms: C10_4  and  N3_10 
REMARK    5  A    between atoms: C6_5  and  C5_12 
REMARK    6  A    between atoms: N2_7  and  C31_19 
REMARK       I    between atoms: N1_11  and  C5_12 
REMARK    7  A    between atoms: N1_11  and  C2_16 
REMARK    8  A    between atoms: C31_19  and  C32_20 
REMARK    9  A    between atoms: C12_26  and  C13_27 
REMARK   10  A    between atoms: C13_27  and  C21_28 
REMARK   11  A    between atoms: C13_27  and  C14_43 
REMARK       I    between atoms: C21_28  and  N4_30 
REMARK   12  A    between atoms: N4_30  and  C22_32 
REMARK   13  A    between atoms: C30_40  and  O3_41 
REMARK   14  A    between atoms: C14_43  and  C15_44 
ROOT
HETATM    1  C11 UNK <   0      21.589  33.189  56.097  0.00  0.00     0.147 C 
ENDROOT
BRANCH   1   2
HETATM    2  O4  UNK <   0      21.474  32.554  54.822  0.00  0.00    -0.394 OA
HETATM    3  H41 UNK <   0      20.735  32.917  54.092  0.00  0.00     0.210 HD
ENDBRANCH   1   2
BRANCH   1   4
HETATM    4  C10 UNK <   0      21.127  34.643  55.985  0.00  0.00     0.305 C 
BRANCH   4   5
HETATM    5  N3  UNK <   0      20.206  34.950  57.087  0.00  0.00     0.108 N 
HETATM    6  C6  UNK <   0      20.278  36.372  57.453  0.00  0.00     0.342 C 
HETATM    7  C7  UNK <   0      19.366  36.635  58.653  0.00  0.00     0.318 C 
HETATM    8  N2  UNK <   0      17.989  36.251  58.312  0.00  0.00     0.097 N 
HETATM    9  C8  UNK <   0      17.917  34.829  57.946  0.00  0.00     0.303 C 
HETATM   10  C9  UNK <   0      18.829  34.567  56.746  0.00  0.00     0.303 C 
BRANCH   6  11
HETATM   11  C5  UNK <   0      21.698  36.728  57.812  0.00  0.00     0.253 C 
HETATM   12  N1  UNK <   0      22.331  37.719  57.152  0.00  0.00    -0.351 N 
HETATM   13  H15 UNK <   0      21.811  38.266  56.351  0.00  0.00     0.163 HD
HETATM   14  O1  UNK <   0      22.270  36.125  58.694  0.00  0.00    -0.271 OA
BRANCH  12  15
HETATM   15  C2  UNK <   0      23.711  38.066  57.501  0.00  0.00     0.022 C 
HETATM   16  C1  UNK <   0      23.792  38.397  58.993  0.00  0.00     0.037 C 
HETATM   17  C3  UNK <   0      24.629  36.882  57.190  0.00  0.00     0.037 C 
HETATM   18  C4  UNK <   0      24.153  39.281  56.682  0.00  0.00     0.037 C 
ENDBRANCH  12  15
ENDBRANCH   6  11
BRANCH   8  19
HETATM   19  C31 UNK <   0      17.068  36.558  59.414  0.00  0.00     0.312 C 
BRANCH  19  20
HETATM   20  C32 UNK <   0      16.137  37.668  58.995  0.00  0.00    -0.013 A 
HETATM   21  C33 UNK <   0      15.343  38.310  59.933  0.00  0.00     0.012 A 
HETATM   22  C34 UNK <   0      14.506  39.328  59.503  0.00  0.00     0.020 A 
HETATM   23  C35 UNK <   0      14.482  39.659  58.161  0.00  0.00     0.116 A 
HETATM   24  N5  UNK <   0      15.249  39.024  57.297  0.00  0.00    -0.273 NA
HETATM   25  C36 UNK <   0      16.060  38.054  57.671  0.00  0.00     0.125 A 
ENDBRANCH  19  20
ENDBRANCH   8  19
ENDBRANCH   4   5
ENDBRANCH   1   4
BRANCH   1  26
HETATM   26  C12 UNK <   0      23.048  33.151  56.556  0.00  0.00     0.047 C 
BRANCH  26  27
HETATM   27  C13 UNK <   0      23.616  31.748  56.332  0.00  0.00     0.084 C 
BRANCH  27  28
HETATM   28  C21 UNK <   0      22.766  30.739  57.061  0.00  0.00     0.222 C 
HETATM   29  O2  UNK <   0      22.857  30.629  58.267  0.00  0.00    -0.273 OA
HETATM   30  N4  UNK <   0      21.906  29.960  56.377  0.00  0.00    -0.350 N 
HETATM   31  H33 UNK <   0      21.878  30.005  55.278  0.00  0.00     0.163 HD
BRANCH  30  32
HETATM   32  C22 UNK <   0      21.007  29.055  57.097  0.00  0.00     0.147 C 
HETATM   33  C23 UNK <   0      19.588  29.578  57.051  0.00  0.00    -0.027 A 
HETATM   34  C24 UNK <   0      18.978  30.585  57.781  0.00  0.00     0.010 A 
HETATM   35  C28 UNK <   0      18.863  28.881  56.103  0.00  0.00    -0.047 A 
HETATM   36  C25 UNK <   0      17.650  30.894  57.565  0.00  0.00     0.001 A 
HETATM   37  C26 UNK <   0      16.925  30.197  56.616  0.00  0.00     0.001 A 
HETATM   38  C27 UNK <   0      17.530  29.192  55.887  0.00  0.00     0.008 A 
HETATM   39  C29 UNK <   0      19.744  27.842  55.446  0.00  0.00     0.073 C 
HETATM   40  C30 UNK <   0      20.954  27.682  56.392  0.00  0.00     0.149 C 
BRANCH  40  41
HETATM   41  O3  UNK <   0      22.153  27.445  55.651  0.00  0.00    -0.393 OA
HETATM   42  H40 UNK <   0      22.097  27.202  54.579  0.00  0.00     0.210 HD
ENDBRANCH  40  41
ENDBRANCH  30  32
ENDBRANCH  27  28
BRANCH  27  43
HETATM   43  C14 UNK <   0      25.049  31.687  56.862  0.00  0.00     0.052 C 
BRANCH  43  44
HETATM   44  C15 UNK <   0      25.954  32.484  55.959  0.00  0.00    -0.057 A 
HETATM   45  C16 UNK <   0      26.333  31.971  54.732  0.00  0.00     0.007 A 
HETATM   46  C17 UNK <   0      27.160  32.705  53.901  0.00  0.00     0.001 A 
HETATM   47  C18 UNK <   0      27.613  33.948  54.301  0.00  0.00     0.000 A 
HETATM   48  C19 UNK <   0      27.239  34.458  55.529  0.00  0.00     0.001 A 
HETATM   49  C20 UNK <   0      26.409  33.727  56.359  0.00  0.00     0.007 A 
ENDBRANCH  43  44
ENDBRANCH  27  43
ENDBRANCH  26  27
ENDBRANCH   1  26
TORSDOF 14
