REMARK VINA RESULT:      -7.0      1.619      2.267
REMARK  14 active torsions:
REMARK  status: ('A' for Active; 'I' for Inactive)
REMARK    1  A    between atoms: C11_1  and  O4_2 
REMARK    2  A    between atoms: C11_1  and  C10_4 
REMARK    3  A    between atoms: C11_1  and  C12_26 
REMARK    4  A    between atoms: C10_4  and  N3_10 
REMARK    5  A    between atoms: C6_5  and  C5_12 
REMARK    6  A    between atoms: N2_7  and  C31_19 
REMARK       I    between atoms: N1_11  and  C5_12 
REMARK    7  A    between atoms: N1_11  and  C2_16 
REMARK    8  A    between atoms: C31_19  and  C32_20 
REMARK    9  A    between atoms: C12_26  and  C13_27 
REMARK   10  A    between atoms: C13_27  and  C21_28 
REMARK   11  A    between atoms: C13_27  and  C14_43 
REMARK       I    between atoms: C21_28  and  N4_30 
REMARK   12  A    between atoms: N4_30  and  C22_32 
REMARK   13  A    between atoms: C30_40  and  O3_41 
REMARK   14  A    between atoms: C14_43  and  C15_44 
ROOT
HETATM    1  C11 UNK <   0      21.996  33.093  56.755  0.00  0.00     0.147 C 
ENDROOT
BRANCH   1   2
HETATM    2  O4  UNK <   0      22.100  32.847  55.351  0.00  0.00    -0.394 OA
HETATM    3  H41 UNK <   0      22.625  31.951  54.988  0.00  0.00     0.210 HD
ENDBRANCH   1   2
BRANCH   1   4
HETATM    4  C10 UNK <   0      22.357  34.552  57.044  0.00  0.00     0.305 C 
BRANCH   4   5
HETATM    5  N3  UNK <   0      21.436  35.093  58.052  0.00  0.00     0.108 N 
HETATM    6  C6  UNK <   0      21.343  36.556  57.949  0.00  0.00     0.342 C 
HETATM    7  C7  UNK <   0      20.440  37.088  59.064  0.00  0.00     0.318 C 
HETATM    8  N2  UNK <   0      19.112  36.469  58.951  0.00  0.00     0.097 N 
HETATM    9  C8  UNK <   0      19.205  35.006  59.055  0.00  0.00     0.303 C 
HETATM   10  C9  UNK <   0      20.108  34.474  57.940  0.00  0.00     0.303 C 
BRANCH   6  11
HETATM   11  C5  UNK <   0      22.718  37.159  58.085  0.00  0.00     0.253 C 
HETATM   12  N1  UNK <   0      23.174  38.013  57.147  0.00  0.00    -0.351 N 
HETATM   13  H15 UNK <   0      22.542  38.270  56.282  0.00  0.00     0.163 HD
HETATM   14  O1  UNK <   0      23.413  36.877  59.037  0.00  0.00    -0.271 OA
BRANCH  12  15
HETATM   15  C2  UNK <   0      24.510  38.600  57.278  0.00  0.00     0.022 C 
HETATM   16  C1  UNK <   0      25.567  37.512  57.076  0.00  0.00     0.037 C 
HETATM   17  C3  UNK <   0      24.694  39.693  56.224  0.00  0.00     0.037 C 
HETATM   18  C4  UNK <   0      24.663  39.209  58.674  0.00  0.00     0.037 C 
ENDBRANCH  12  15
ENDBRANCH   6  11
BRANCH   8  19
HETATM   19  C31 UNK <   0      18.190  37.011  59.959  0.00  0.00     0.312 C 
BRANCH  19  20
HETATM   20  C32 UNK <   0      16.955  37.540  59.277  0.00  0.00    -0.013 A 
HETATM   21  C33 UNK <   0      15.751  37.610  59.961  0.00  0.00     0.012 A 
HETATM   22  C34 UNK <   0      14.641  38.107  59.295  0.00  0.00     0.020 A 
HETATM   23  C35 UNK <   0      14.769  38.503  57.976  0.00  0.00     0.116 A 
HETATM   24  N5  UNK <   0      15.929  38.418  57.356  0.00  0.00    -0.273 NA
HETATM   25  C36 UNK <   0      17.006  37.954  57.961  0.00  0.00     0.125 A 
ENDBRANCH  19  20
ENDBRANCH   8  19
ENDBRANCH   4   5
ENDBRANCH   1   4
BRANCH   1  26
HETATM   26  C12 UNK <   0      22.958  32.171  57.506  0.00  0.00     0.047 C 
BRANCH  26  27
HETATM   27  C13 UNK <   0      23.903  31.499  56.509  0.00  0.00     0.084 C 
BRANCH  27  28
HETATM   28  C21 UNK <   0      23.548  30.039  56.386  0.00  0.00     0.222 C 
HETATM   29  O2  UNK <   0      24.427  29.205  56.314  0.00  0.00    -0.273 OA
HETATM   30  N4  UNK <   0      22.256  29.658  56.357  0.00  0.00    -0.350 N 
HETATM   31  H33 UNK <   0      21.459  30.417  56.345  0.00  0.00     0.163 HD
BRANCH  30  32
HETATM   32  C22 UNK <   0      21.912  28.234  56.343  0.00  0.00     0.147 C 
HETATM   33  C23 UNK <   0      21.602  27.755  57.744  0.00  0.00    -0.027 A 
HETATM   34  C24 UNK <   0      22.449  27.426  58.789  0.00  0.00     0.010 A 
HETATM   35  C28 UNK <   0      20.233  27.662  57.915  0.00  0.00    -0.047 A 
HETATM   36  C25 UNK <   0      21.933  27.006  59.998  0.00  0.00     0.001 A 
HETATM   37  C26 UNK <   0      20.563  26.914  60.169  0.00  0.00     0.001 A 
HETATM   38  C27 UNK <   0      19.716  27.241  59.129  0.00  0.00     0.008 A 
HETATM   39  C29 UNK <   0      19.530  28.072  56.640  0.00  0.00     0.073 C 
HETATM   40  C30 UNK <   0      20.612  28.006  55.541  0.00  0.00     0.149 C 
BRANCH  40  41
HETATM   41  O3  UNK <   0      20.423  29.042  54.576  0.00  0.00    -0.393 OA
HETATM   42  H40 UNK <   0      19.798  29.915  54.821  0.00  0.00     0.210 HD
ENDBRANCH  40  41
ENDBRANCH  30  32
ENDBRANCH  27  28
BRANCH  27  43
HETATM   43  C14 UNK <   0      25.345  31.633  57.001  0.00  0.00     0.052 C 
BRANCH  43  44
HETATM   44  C15 UNK <   0      26.128  32.482  56.035  0.00  0.00    -0.057 A 
HETATM   45  C16 UNK <   0      26.351  33.818  56.311  0.00  0.00     0.007 A 
HETATM   46  C17 UNK <   0      27.074  34.597  55.426  0.00  0.00     0.001 A 
HETATM   47  C18 UNK <   0      27.567  34.040  54.261  0.00  0.00     0.000 A 
HETATM   48  C19 UNK <   0      27.339  32.707  53.981  0.00  0.00     0.001 A 
HETATM   49  C20 UNK <   0      26.620  31.926  54.868  0.00  0.00     0.007 A 
ENDBRANCH  43  44
ENDBRANCH  27  43
ENDBRANCH  26  27
ENDBRANCH   1  26
TORSDOF 14
