REMARK VINA RESULT:      -6.9      4.172      8.222
REMARK  14 active torsions:
REMARK  status: ('A' for Active; 'I' for Inactive)
REMARK    1  A    between atoms: C11_1  and  O4_2 
REMARK    2  A    between atoms: C11_1  and  C10_4 
REMARK    3  A    between atoms: C11_1  and  C12_26 
REMARK    4  A    between atoms: C10_4  and  N3_10 
REMARK    5  A    between atoms: C6_5  and  C5_12 
REMARK    6  A    between atoms: N2_7  and  C31_19 
REMARK       I    between atoms: N1_11  and  C5_12 
REMARK    7  A    between atoms: N1_11  and  C2_16 
REMARK    8  A    between atoms: C31_19  and  C32_20 
REMARK    9  A    between atoms: C12_26  and  C13_27 
REMARK   10  A    between atoms: C13_27  and  C21_28 
REMARK   11  A    between atoms: C13_27  and  C14_43 
REMARK       I    between atoms: C21_28  and  N4_30 
REMARK   12  A    between atoms: N4_30  and  C22_32 
REMARK   13  A    between atoms: C30_40  and  O3_41 
REMARK   14  A    between atoms: C14_43  and  C15_44 
ROOT
HETATM    1  C11 UNK <   0      22.820  28.453  55.422  0.00  0.00     0.147 C 
ENDROOT
BRANCH   1   2
HETATM    2  O4  UNK <   0      23.672  27.728  54.533  0.00  0.00    -0.394 OA
HETATM    3  H41 UNK <   0      24.765  27.798  54.641  0.00  0.00     0.210 HD
ENDBRANCH   1   2
BRANCH   1   4
HETATM    4  C10 UNK <   0      23.633  29.530  56.143  0.00  0.00     0.305 C 
BRANCH   4   5
HETATM    5  N3  UNK <   0      22.763  30.670  56.459  0.00  0.00     0.108 N 
HETATM    6  C6  UNK <   0      23.269  31.412  57.623  0.00  0.00     0.342 C 
HETATM    7  C7  UNK <   0      22.296  32.541  57.968  0.00  0.00     0.318 C 
HETATM    8  N2  UNK <   0      22.147  33.428  56.807  0.00  0.00     0.097 N 
HETATM    9  C8  UNK <   0      21.641  32.687  55.643  0.00  0.00     0.303 C 
HETATM   10  C9  UNK <   0      22.615  31.558  55.297  0.00  0.00     0.303 C 
BRANCH   6  11
HETATM   11  C5  UNK <   0      23.394  30.478  58.799  0.00  0.00     0.253 C 
HETATM   12  N1  UNK <   0      22.288  29.933  59.346  0.00  0.00    -0.351 N 
HETATM   13  H15 UNK <   0      21.296  30.172  58.934  0.00  0.00     0.163 HD
HETATM   14  O1  UNK <   0      24.487  30.215  59.252  0.00  0.00    -0.271 OA
BRANCH  12  15
HETATM   15  C2  UNK <   0      22.408  29.024  60.489  0.00  0.00     0.022 C 
HETATM   16  C1  UNK <   0      22.971  27.682  60.016  0.00  0.00     0.037 C 
HETATM   17  C3  UNK <   0      23.349  29.635  61.530  0.00  0.00     0.037 C 
HETATM   18  C4  UNK <   0      21.028  28.808  61.115  0.00  0.00     0.037 C 
ENDBRANCH  12  15
ENDBRANCH   6  11
BRANCH   8  19
HETATM   19  C31 UNK <   0      21.277  34.569  57.123  0.00  0.00     0.312 C 
BRANCH  19  20
HETATM   20  C32 UNK <   0      22.078  35.626  57.840  0.00  0.00    -0.013 A 
HETATM   21  C33 UNK <   0      23.188  36.195  57.237  0.00  0.00     0.012 A 
HETATM   22  C34 UNK <   0      23.893  37.166  57.932  0.00  0.00     0.020 A 
HETATM   23  C35 UNK <   0      23.473  37.524  59.200  0.00  0.00     0.116 A 
HETATM   24  N5  UNK <   0      22.414  36.958  59.744  0.00  0.00    -0.273 NA
HETATM   25  C36 UNK <   0      21.718  36.035  59.110  0.00  0.00     0.125 A 
ENDBRANCH  19  20
ENDBRANCH   8  19
ENDBRANCH   4   5
ENDBRANCH   1   4
BRANCH   1  26
HETATM   26  C12 UNK <   0      22.220  27.492  56.451  0.00  0.00     0.047 C 
BRANCH  26  27
HETATM   27  C13 UNK <   0      20.743  27.828  56.662  0.00  0.00     0.084 C 
BRANCH  27  28
HETATM   28  C21 UNK <   0      20.051  26.661  57.318  0.00  0.00     0.222 C 
HETATM   29  O2  UNK <   0      19.834  26.678  58.512  0.00  0.00    -0.273 OA
HETATM   30  N4  UNK <   0      19.673  25.599  56.581  0.00  0.00    -0.350 N 
HETATM   31  H33 UNK <   0      19.937  25.547  55.514  0.00  0.00     0.163 HD
BRANCH  30  32
HETATM   32  C22 UNK <   0      18.908  24.512  57.199  0.00  0.00     0.147 C 
HETATM   33  C23 UNK <   0      17.431  24.840  57.193  0.00  0.00    -0.027 A 
HETATM   34  C24 UNK <   0      16.693  25.677  58.013  0.00  0.00     0.010 A 
HETATM   35  C28 UNK <   0      16.803  24.148  56.174  0.00  0.00    -0.047 A 
HETATM   36  C25 UNK <   0      15.334  25.823  57.816  0.00  0.00     0.001 A 
HETATM   37  C26 UNK <   0      14.706  25.131  56.796  0.00  0.00     0.001 A 
HETATM   38  C27 UNK <   0      15.440  24.295  55.978  0.00  0.00     0.008 A 
HETATM   39  C29 UNK <   0      17.815  23.308  55.426  0.00  0.00     0.073 C 
HETATM   40  C30 UNK <   0      19.039  23.222  56.363  0.00  0.00     0.149 C 
BRANCH  40  41
HETATM   41  O3  UNK <   0      20.256  23.224  55.613  0.00  0.00    -0.393 OA
HETATM   42  H40 UNK <   0      20.332  22.636  54.686  0.00  0.00     0.210 HD
ENDBRANCH  40  41
ENDBRANCH  30  32
ENDBRANCH  27  28
BRANCH  27  43
HETATM   43  C14 UNK <   0      20.087  28.116  55.311  0.00  0.00     0.052 C 
BRANCH  43  44
HETATM   44  C15 UNK <   0      18.644  28.492  55.523  0.00  0.00    -0.057 A 
HETATM   45  C16 UNK <   0      18.319  29.550  56.350  0.00  0.00     0.007 A 
HETATM   46  C17 UNK <   0      16.995  29.898  56.542  0.00  0.00     0.001 A 
HETATM   47  C18 UNK <   0      15.995  29.182  55.911  0.00  0.00     0.000 A 
HETATM   48  C19 UNK <   0      16.319  28.120  55.089  0.00  0.00     0.001 A 
HETATM   49  C20 UNK <   0      17.643  27.774  54.893  0.00  0.00     0.007 A 
ENDBRANCH  43  44
ENDBRANCH  27  43
ENDBRANCH  26  27
ENDBRANCH   1  26
TORSDOF 14
