REMARK VINA RESULT:      -7.0      3.729      5.055
REMARK  14 active torsions:
REMARK  status: ('A' for Active; 'I' for Inactive)
REMARK    1  A    between atoms: C11_1  and  O4_2 
REMARK    2  A    between atoms: C11_1  and  C10_4 
REMARK    3  A    between atoms: C11_1  and  C12_26 
REMARK    4  A    between atoms: C10_4  and  N3_10 
REMARK    5  A    between atoms: C6_5  and  C5_12 
REMARK    6  A    between atoms: N2_7  and  C31_19 
REMARK       I    between atoms: N1_11  and  C5_12 
REMARK    7  A    between atoms: N1_11  and  C2_16 
REMARK    8  A    between atoms: C31_19  and  C32_20 
REMARK    9  A    between atoms: C12_26  and  C13_27 
REMARK   10  A    between atoms: C13_27  and  C21_28 
REMARK   11  A    between atoms: C13_27  and  C14_43 
REMARK       I    between atoms: C21_28  and  N4_30 
REMARK   12  A    between atoms: N4_30  and  C22_32 
REMARK   13  A    between atoms: C30_40  and  O3_41 
REMARK   14  A    between atoms: C14_43  and  C15_44 
ROOT
HETATM    1  C11 UNK <   0      22.342  33.661  56.658  0.00  0.00     0.147 C 
ENDROOT
BRANCH   1   2
HETATM    2  O4  UNK <   0      23.408  34.611  56.699  0.00  0.00    -0.394 OA
HETATM    3  H41 UNK <   0      23.341  35.537  56.108  0.00  0.00     0.210 HD
ENDBRANCH   1   2
BRANCH   1   4
HETATM    4  C10 UNK <   0      21.224  34.110  57.602  0.00  0.00     0.305 C 
BRANCH   4   5
HETATM    5  N3  UNK <   0      20.009  33.331  57.327  0.00  0.00     0.108 N 
HETATM    6  C6  UNK <   0      19.209  33.154  58.548  0.00  0.00     0.342 C 
HETATM    7  C7  UNK <   0      17.997  32.273  58.238  0.00  0.00     0.318 C 
HETATM    8  N2  UNK <   0      17.199  32.898  57.175  0.00  0.00     0.097 N 
HETATM    9  C8  UNK <   0      17.999  33.075  55.954  0.00  0.00     0.303 C 
HETATM   10  C9  UNK <   0      19.211  33.956  56.264  0.00  0.00     0.303 C 
BRANCH   6  11
HETATM   11  C5  UNK <   0      20.051  32.496  59.610  0.00  0.00     0.253 C 
HETATM   12  N1  UNK <   0      20.547  31.259  59.406  0.00  0.00    -0.351 N 
HETATM   13  H15 UNK <   0      20.336  30.730  58.463  0.00  0.00     0.163 HD
HETATM   14  O1  UNK <   0      20.284  33.078  60.648  0.00  0.00    -0.271 OA
BRANCH  12  15
HETATM   15  C2  UNK <   0      21.366  30.618  60.437  0.00  0.00     0.022 C 
HETATM   16  C1  UNK <   0      20.510  30.357  61.679  0.00  0.00     0.037 C 
HETATM   17  C3  UNK <   0      21.913  29.292  59.906  0.00  0.00     0.037 C 
HETATM   18  C4  UNK <   0      22.533  31.538  60.805  0.00  0.00     0.037 C 
ENDBRANCH  12  15
ENDBRANCH   6  11
BRANCH   8  19
HETATM   19  C31 UNK <   0      15.984  32.120  56.900  0.00  0.00     0.312 C 
BRANCH  19  20
HETATM   20  C32 UNK <   0      14.784  32.855  57.440  0.00  0.00    -0.013 A 
HETATM   21  C33 UNK <   0      13.693  32.153  57.929  0.00  0.00     0.012 A 
HETATM   22  C34 UNK <   0      12.613  32.871  58.420  0.00  0.00     0.020 A 
HETATM   23  C35 UNK <   0      12.656  34.253  58.396  0.00  0.00     0.116 A 
HETATM   24  N5  UNK <   0      13.709  34.886  57.920  0.00  0.00    -0.273 NA
HETATM   25  C36 UNK <   0      14.755  34.236  57.449  0.00  0.00     0.125 A 
ENDBRANCH  19  20
ENDBRANCH   8  19
ENDBRANCH   4   5
ENDBRANCH   1   4
BRANCH   1  26
HETATM   26  C12 UNK <   0      22.861  32.291  57.098  0.00  0.00     0.047 C 
BRANCH  26  27
HETATM   27  C13 UNK <   0      23.742  31.702  55.994  0.00  0.00     0.084 C 
BRANCH  27  28
HETATM   28  C21 UNK <   0      23.059  30.500  55.394  0.00  0.00     0.222 C 
HETATM   29  O2  UNK <   0      23.173  30.267  54.208  0.00  0.00    -0.273 OA
HETATM   30  N4  UNK <   0      22.323  29.683  56.173  0.00  0.00    -0.350 N 
HETATM   31  H33 UNK <   0      22.155  29.935  57.231  0.00  0.00     0.163 HD
BRANCH  30  32
HETATM   32  C22 UNK <   0      21.746  28.459  55.611  0.00  0.00     0.147 C 
HETATM   33  C23 UNK <   0      21.687  27.375  56.665  0.00  0.00    -0.027 A 
HETATM   34  C24 UNK <   0      22.682  26.547  57.159  0.00  0.00     0.010 A 
HETATM   35  C28 UNK <   0      20.399  27.267  57.154  0.00  0.00    -0.047 A 
HETATM   36  C25 UNK <   0      22.391  25.616  58.136  0.00  0.00     0.001 A 
HETATM   37  C26 UNK <   0      21.102  25.509  58.625  0.00  0.00     0.001 A 
HETATM   38  C27 UNK <   0      20.108  26.333  58.134  0.00  0.00     0.008 A 
HETATM   39  C29 UNK <   0      19.503  28.271  56.461  0.00  0.00     0.073 C 
HETATM   40  C30 UNK <   0      20.279  28.699  55.197  0.00  0.00     0.149 C 
BRANCH  40  41
HETATM   41  O3  UNK <   0      20.054  30.081  54.905  0.00  0.00    -0.393 OA
HETATM   42  H40 UNK <   0      19.571  30.729  55.653  0.00  0.00     0.210 HD
ENDBRANCH  40  41
ENDBRANCH  30  32
ENDBRANCH  27  28
BRANCH  27  43
HETATM   43  C14 UNK <   0      25.089  31.283  56.585  0.00  0.00     0.052 C 
BRANCH  43  44
HETATM   44  C15 UNK <   0      26.187  32.107  55.966  0.00  0.00    -0.057 A 
HETATM   45  C16 UNK <   0      27.161  32.674  56.766  0.00  0.00     0.007 A 
HETATM   46  C17 UNK <   0      28.172  33.427  56.198  0.00  0.00     0.001 A 
HETATM   47  C18 UNK <   0      28.205  33.618  54.830  0.00  0.00     0.000 A 
HETATM   48  C19 UNK <   0      27.228  33.057  54.030  0.00  0.00     0.001 A 
HETATM   49  C20 UNK <   0      26.219  32.300  54.597  0.00  0.00     0.007 A 
ENDBRANCH  43  44
ENDBRANCH  27  43
ENDBRANCH  26  27
ENDBRANCH   1  26
TORSDOF 14
