REMARK VINA RESULT:      -7.3      0.000      0.000
REMARK  14 active torsions:
REMARK  status: ('A' for Active; 'I' for Inactive)
REMARK    1  A    between atoms: C11_1  and  O4_2 
REMARK    2  A    between atoms: C11_1  and  C10_4 
REMARK    3  A    between atoms: C11_1  and  C12_26 
REMARK    4  A    between atoms: C10_4  and  N3_10 
REMARK    5  A    between atoms: C6_5  and  C5_12 
REMARK    6  A    between atoms: N2_7  and  C31_19 
REMARK       I    between atoms: N1_11  and  C5_12 
REMARK    7  A    between atoms: N1_11  and  C2_16 
REMARK    8  A    between atoms: C31_19  and  C32_20 
REMARK    9  A    between atoms: C12_26  and  C13_27 
REMARK   10  A    between atoms: C13_27  and  C21_28 
REMARK   11  A    between atoms: C13_27  and  C14_43 
REMARK       I    between atoms: C21_28  and  N4_30 
REMARK   12  A    between atoms: N4_30  and  C22_32 
REMARK   13  A    between atoms: C30_40  and  O3_41 
REMARK   14  A    between atoms: C14_43  and  C15_44 
ROOT
HETATM    1  C11 UNK <   0      21.255  34.359  56.611  0.00  0.00     0.147 C 
ENDROOT
BRANCH   1   2
HETATM    2  O4  UNK <   0      21.173  34.162  55.199  0.00  0.00    -0.394 OA
HETATM    3  H41 UNK <   0      21.442  33.188  54.764  0.00  0.00     0.210 HD
ENDBRANCH   1   2
BRANCH   1   4
HETATM    4  C10 UNK <   0      21.767  35.772  56.900  0.00  0.00     0.305 C 
BRANCH   4   5
HETATM    5  N3  UNK <   0      20.777  36.495  57.710  0.00  0.00     0.108 N 
HETATM    6  C6  UNK <   0      20.850  37.942  57.463  0.00  0.00     0.342 C 
HETATM    7  C7  UNK <   0      19.862  38.665  58.381  0.00  0.00     0.318 C 
HETATM    8  N2  UNK <   0      18.506  38.159  58.132  0.00  0.00     0.097 N 
HETATM    9  C8  UNK <   0      18.433  36.712  58.379  0.00  0.00     0.303 C 
HETATM   10  C9  UNK <   0      19.420  35.989  57.461  0.00  0.00     0.303 C 
BRANCH   6  11
HETATM   11  C5  UNK <   0      22.248  38.430  57.744  0.00  0.00     0.253 C 
HETATM   12  N1  UNK <   0      22.948  39.059  56.778  0.00  0.00    -0.351 N 
HETATM   13  H15 UNK <   0      22.498  39.215  55.785  0.00  0.00     0.163 HD
HETATM   14  O1  UNK <   0      22.743  38.259  58.837  0.00  0.00    -0.271 OA
BRANCH  12  15
HETATM   15  C2  UNK <   0      24.307  39.534  57.050  0.00  0.00     0.022 C 
HETATM   16  C1  UNK <   0      25.280  38.354  57.000  0.00  0.00     0.037 C 
HETATM   17  C3  UNK <   0      24.706  40.570  55.997  0.00  0.00     0.037 C 
HETATM   18  C4  UNK <   0      24.353  40.177  58.439  0.00  0.00     0.037 C 
ENDBRANCH  12  15
ENDBRANCH   6  11
BRANCH   8  19
HETATM   19  C31 UNK <   0      17.516  38.882  58.942  0.00  0.00     0.312 C 
BRANCH  19  20
HETATM   20  C32 UNK <   0      16.394  39.359  58.054  0.00  0.00    -0.013 A 
HETATM   21  C33 UNK <   0      15.204  38.652  57.987  0.00  0.00     0.012 A 
HETATM   22  C34 UNK <   0      14.198  39.130  57.160  0.00  0.00     0.020 A 
HETATM   23  C35 UNK <   0      14.419  40.282  56.428  0.00  0.00     0.116 A 
HETATM   24  N5  UNK <   0      15.566  40.926  56.515  0.00  0.00    -0.273 NA
HETATM   25  C36 UNK <   0      16.542  40.502  57.294  0.00  0.00     0.125 A 
ENDBRANCH  19  20
ENDBRANCH   8  19
ENDBRANCH   4   5
ENDBRANCH   1   4
BRANCH   1  26
HETATM   26  C12 UNK <   0      22.218  33.334  57.215  0.00  0.00     0.047 C 
BRANCH  26  27
HETATM   27  C13 UNK <   0      23.130  32.785  56.117  0.00  0.00     0.084 C 
BRANCH  27  28
HETATM   28  C21 UNK <   0      22.479  31.587  55.475  0.00  0.00     0.222 C 
HETATM   29  O2  UNK <   0      22.388  31.522  54.266  0.00  0.00    -0.273 OA
HETATM   30  N4  UNK <   0      21.998  30.589  56.240  0.00  0.00    -0.350 N 
HETATM   31  H33 UNK <   0      22.010  30.681  57.337  0.00  0.00     0.163 HD
BRANCH  30  32
HETATM   32  C22 UNK <   0      21.460  29.379  55.613  0.00  0.00     0.147 C 
HETATM   33  C23 UNK <   0      22.518  28.298  55.564  0.00  0.00    -0.027 A 
HETATM   34  C24 UNK <   0      23.592  28.131  54.705  0.00  0.00     0.010 A 
HETATM   35  C28 UNK <   0      22.294  27.379  56.571  0.00  0.00    -0.047 A 
HETATM   36  C25 UNK <   0      24.439  27.051  54.853  0.00  0.00     0.001 A 
HETATM   37  C26 UNK <   0      24.216  26.131  55.861  0.00  0.00     0.001 A 
HETATM   38  C27 UNK <   0      23.145  26.295  56.718  0.00  0.00     0.008 A 
HETATM   39  C29 UNK <   0      21.071  27.778  57.367  0.00  0.00     0.073 C 
HETATM   40  C30 UNK <   0      20.322  28.790  56.474  0.00  0.00     0.149 C 
BRANCH  40  41
HETATM   41  O3  UNK <   0      19.706  29.809  57.266  0.00  0.00    -0.393 OA
HETATM   42  H40 UNK <   0      18.946  30.468  56.819  0.00  0.00     0.210 HD
ENDBRANCH  40  41
ENDBRANCH  30  32
ENDBRANCH  27  28
BRANCH  27  43
HETATM   43  C14 UNK <   0      24.470  32.372  56.726  0.00  0.00     0.052 C 
BRANCH  43  44
HETATM   44  C15 UNK <   0      25.595  32.920  55.887  0.00  0.00    -0.057 A 
HETATM   45  C16 UNK <   0      26.123  34.166  56.168  0.00  0.00     0.007 A 
HETATM   46  C17 UNK <   0      27.158  34.667  55.400  0.00  0.00     0.001 A 
HETATM   47  C18 UNK <   0      27.659  33.925  54.347  0.00  0.00     0.000 A 
HETATM   48  C19 UNK <   0      27.127  32.682  54.062  0.00  0.00     0.001 A 
HETATM   49  C20 UNK <   0      26.094  32.178  54.832  0.00  0.00     0.007 A 
ENDBRANCH  43  44
ENDBRANCH  27  43
ENDBRANCH  26  27
ENDBRANCH   1  26
TORSDOF 14
