REMARK VINA RESULT:      -6.8      2.536     10.292
REMARK  14 active torsions:
REMARK  status: ('A' for Active; 'I' for Inactive)
REMARK    1  A    between atoms: C11_1  and  O4_2 
REMARK    2  A    between atoms: C11_1  and  C10_4 
REMARK    3  A    between atoms: C11_1  and  C12_26 
REMARK    4  A    between atoms: C10_4  and  N3_10 
REMARK    5  A    between atoms: C6_5  and  C5_12 
REMARK    6  A    between atoms: N2_7  and  C31_19 
REMARK       I    between atoms: N1_11  and  C5_12 
REMARK    7  A    between atoms: N1_11  and  C2_16 
REMARK    8  A    between atoms: C31_19  and  C32_20 
REMARK    9  A    between atoms: C12_26  and  C13_27 
REMARK   10  A    between atoms: C13_27  and  C21_28 
REMARK   11  A    between atoms: C13_27  and  C14_43 
REMARK       I    between atoms: C21_28  and  N4_30 
REMARK   12  A    between atoms: N4_30  and  C22_32 
REMARK   13  A    between atoms: C30_40  and  O3_41 
REMARK   14  A    between atoms: C14_43  and  C15_44 
ROOT
HETATM    1  C11 UNK <   0      18.736  33.971  56.227  0.00  0.00     0.147 C 
ENDROOT
BRANCH   1   2
HETATM    2  O4  UNK <   0      17.485  34.238  55.591  0.00  0.00    -0.394 OA
HETATM    3  H41 UNK <   0      16.923  35.149  55.847  0.00  0.00     0.210 HD
ENDBRANCH   1   2
BRANCH   1   4
HETATM    4  C10 UNK <   0      19.241  32.592  55.798  0.00  0.00     0.305 C 
BRANCH   4   5
HETATM    5  N3  UNK <   0      20.592  32.377  56.334  0.00  0.00     0.108 N 
HETATM    6  C6  UNK <   0      21.126  31.075  55.909  0.00  0.00     0.342 C 
HETATM    7  C7  UNK <   0      22.498  30.855  56.552  0.00  0.00     0.318 C 
HETATM    8  N2  UNK <   0      23.401  31.944  56.157  0.00  0.00     0.097 N 
HETATM    9  C8  UNK <   0      22.867  33.247  56.581  0.00  0.00     0.303 C 
HETATM   10  C9  UNK <   0      21.496  33.467  55.939  0.00  0.00     0.303 C 
BRANCH   6  11
HETATM   11  C5  UNK <   0      20.186  29.980  56.344  0.00  0.00     0.253 C 
HETATM   12  N1  UNK <   0      19.630  29.166  55.424  0.00  0.00    -0.351 N 
HETATM   13  H15 UNK <   0      19.863  29.302  54.357  0.00  0.00     0.163 HD
HETATM   14  O1  UNK <   0      19.930  29.831  57.519  0.00  0.00    -0.271 OA
BRANCH  12  15
HETATM   15  C2  UNK <   0      18.716  28.101  55.845  0.00  0.00     0.022 C 
HETATM   16  C1  UNK <   0      19.424  27.189  56.849  0.00  0.00     0.037 C 
HETATM   17  C3  UNK <   0      17.480  28.719  56.501  0.00  0.00     0.037 C 
HETATM   18  C4  UNK <   0      18.289  27.284  54.623  0.00  0.00     0.037 C 
ENDBRANCH  12  15
ENDBRANCH   6  11
BRANCH   8  19
HETATM   19  C31 UNK <   0      24.752  31.730  56.692  0.00  0.00     0.312 C 
BRANCH  19  20
HETATM   20  C32 UNK <   0      25.746  32.515  55.875  0.00  0.00    -0.013 A 
HETATM   21  C33 UNK <   0      26.270  31.982  54.707  0.00  0.00     0.012 A 
HETATM   22  C34 UNK <   0      27.178  32.740  53.985  0.00  0.00     0.020 A 
HETATM   23  C35 UNK <   0      27.537  33.990  54.456  0.00  0.00     0.116 A 
HETATM   24  N5  UNK <   0      27.021  34.463  55.573  0.00  0.00    -0.273 NA
HETATM   25  C36 UNK <   0      26.151  33.770  56.283  0.00  0.00     0.125 A 
ENDBRANCH  19  20
ENDBRANCH   8  19
ENDBRANCH   4   5
ENDBRANCH   1   4
BRANCH   1  26
HETATM   26  C12 UNK <   0      18.552  33.996  57.746  0.00  0.00     0.047 C 
BRANCH  26  27
HETATM   27  C13 UNK <   0      19.202  35.258  58.316  0.00  0.00     0.084 C 
BRANCH  27  28
HETATM   28  C21 UNK <   0      18.181  36.036  59.107  0.00  0.00     0.222 C 
HETATM   29  O2  UNK <   0      18.415  36.351  60.255  0.00  0.00    -0.273 OA
HETATM   30  N4  UNK <   0      17.009  36.382  58.540  0.00  0.00    -0.350 N 
HETATM   31  H33 UNK <   0      16.763  36.031  57.526  0.00  0.00     0.163 HD
BRANCH  30  32
HETATM   32  C22 UNK <   0      16.062  37.226  59.272  0.00  0.00     0.147 C 
HETATM   33  C23 UNK <   0      15.723  38.460  58.464  0.00  0.00    -0.027 A 
HETATM   34  C24 UNK <   0      16.440  39.628  58.266  0.00  0.00     0.010 A 
HETATM   35  C28 UNK <   0      14.487  38.302  57.866  0.00  0.00    -0.047 A 
HETATM   36  C25 UNK <   0      15.925  40.635  57.474  0.00  0.00     0.001 A 
HETATM   37  C26 UNK <   0      14.688  40.477  56.876  0.00  0.00     0.001 A 
HETATM   38  C27 UNK <   0      13.971  39.313  57.072  0.00  0.00     0.008 A 
HETATM   39  C29 UNK <   0      13.909  36.953  58.232  0.00  0.00     0.073 C 
HETATM   40  C30 UNK <   0      14.720  36.486  59.460  0.00  0.00     0.149 C 
BRANCH  40  41
HETATM   41  O3  UNK <   0      14.913  35.070  59.435  0.00  0.00    -0.393 OA
HETATM   42  H40 UNK <   0      15.504  34.581  60.224  0.00  0.00     0.210 HD
ENDBRANCH  40  41
ENDBRANCH  30  32
ENDBRANCH  27  28
BRANCH  27  43
HETATM   43  C14 UNK <   0      19.728  36.124  57.171  0.00  0.00     0.052 C 
BRANCH  43  44
HETATM   44  C15 UNK <   0      20.968  36.853  57.620  0.00  0.00    -0.057 A 
HETATM   45  C16 UNK <   0      21.215  38.137  57.172  0.00  0.00     0.007 A 
HETATM   46  C17 UNK <   0      22.351  38.808  57.588  0.00  0.00     0.001 A 
HETATM   47  C18 UNK <   0      23.242  38.191  58.446  0.00  0.00     0.000 A 
HETATM   48  C19 UNK <   0      22.998  36.905  58.889  0.00  0.00     0.001 A 
HETATM   49  C20 UNK <   0      21.860  36.235  58.477  0.00  0.00     0.007 A 
ENDBRANCH  43  44
ENDBRANCH  27  43
ENDBRANCH  26  27
ENDBRANCH   1  26
TORSDOF 14
