REMARK VINA RESULT:      -7.1      3.601      7.140
REMARK  14 active torsions:
REMARK  status: ('A' for Active; 'I' for Inactive)
REMARK    1  A    between atoms: C11_1  and  O4_2 
REMARK    2  A    between atoms: C11_1  and  C10_4 
REMARK    3  A    between atoms: C11_1  and  C12_26 
REMARK    4  A    between atoms: C10_4  and  N3_10 
REMARK    5  A    between atoms: C6_5  and  C5_12 
REMARK    6  A    between atoms: N2_7  and  C31_19 
REMARK       I    between atoms: N1_11  and  C5_12 
REMARK    7  A    between atoms: N1_11  and  C2_16 
REMARK    8  A    between atoms: C31_19  and  C32_20 
REMARK    9  A    between atoms: C12_26  and  C13_27 
REMARK   10  A    between atoms: C13_27  and  C21_28 
REMARK   11  A    between atoms: C13_27  and  C14_43 
REMARK       I    between atoms: C21_28  and  N4_30 
REMARK   12  A    between atoms: N4_30  and  C22_32 
REMARK   13  A    between atoms: C30_40  and  O3_41 
REMARK   14  A    between atoms: C14_43  and  C15_44 
ROOT
HETATM    1  C11 UNK <   0      23.217  29.128  55.896  0.00  0.00     0.147 C 
ENDROOT
BRANCH   1   2
HETATM    2  O4  UNK <   0      23.926  28.746  54.716  0.00  0.00    -0.394 OA
HETATM    3  H41 UNK <   0      24.168  29.500  53.952  0.00  0.00     0.210 HD
ENDBRANCH   1   2
BRANCH   1   4
HETATM    4  C10 UNK <   0      24.177  29.824  56.863  0.00  0.00     0.305 C 
BRANCH   4   5
HETATM    5  N3  UNK <   0      23.596  31.104  57.292  0.00  0.00     0.108 N 
HETATM    6  C6  UNK <   0      23.463  32.029  56.158  0.00  0.00     0.342 C 
HETATM    7  C7  UNK <   0      22.932  33.374  56.658  0.00  0.00     0.318 C 
HETATM    8  N2  UNK <   0      21.636  33.169  57.321  0.00  0.00     0.097 N 
HETATM    9  C8  UNK <   0      21.769  32.244  58.455  0.00  0.00     0.303 C 
HETATM   10  C9  UNK <   0      22.301  30.899  57.955  0.00  0.00     0.303 C 
BRANCH   6  11
HETATM   11  C5  UNK <   0      24.811  32.230  55.512  0.00  0.00     0.253 C 
HETATM   12  N1  UNK <   0      25.629  33.208  55.952  0.00  0.00    -0.351 N 
HETATM   13  H15 UNK <   0      25.312  33.859  56.781  0.00  0.00     0.163 HD
HETATM   14  O1  UNK <   0      25.160  31.512  54.600  0.00  0.00    -0.271 OA
BRANCH  12  15
HETATM   15  C2  UNK <   0      26.938  33.403  55.326  0.00  0.00     0.022 C 
HETATM   16  C1  UNK <   0      27.166  34.896  55.076  0.00  0.00     0.037 C 
HETATM   17  C3  UNK <   0      28.032  32.867  56.251  0.00  0.00     0.037 C 
HETATM   18  C4  UNK <   0      26.984  32.649  53.994  0.00  0.00     0.037 C 
ENDBRANCH  12  15
ENDBRANCH   6  11
BRANCH   8  19
HETATM   19  C31 UNK <   0      21.055  34.448  57.750  0.00  0.00     0.312 C 
BRANCH  19  20
HETATM   20  C32 UNK <   0      19.674  34.593  57.163  0.00  0.00    -0.013 A 
HETATM   21  C33 UNK <   0      18.889  35.691  57.481  0.00  0.00     0.012 A 
HETATM   22  C34 UNK <   0      17.626  35.785  56.916  0.00  0.00     0.020 A 
HETATM   23  C35 UNK <   0      17.191  34.782  56.069  0.00  0.00     0.116 A 
HETATM   24  N5  UNK <   0      17.964  33.751  55.793  0.00  0.00    -0.273 NA
HETATM   25  C36 UNK <   0      19.172  33.631  56.309  0.00  0.00     0.125 A 
ENDBRANCH  19  20
ENDBRANCH   8  19
ENDBRANCH   4   5
ENDBRANCH   1   4
BRANCH   1  26
HETATM   26  C12 UNK <   0      22.632  27.883  56.566  0.00  0.00     0.047 C 
BRANCH  26  27
HETATM   27  C13 UNK <   0      21.116  28.037  56.692  0.00  0.00     0.084 C 
BRANCH  27  28
HETATM   28  C21 UNK <   0      20.544  26.830  57.390  0.00  0.00     0.222 C 
HETATM   29  O2  UNK <   0      20.245  26.894  58.564  0.00  0.00    -0.273 OA
HETATM   30  N4  UNK <   0      20.365  25.680  56.711  0.00  0.00    -0.350 N 
HETATM   31  H33 UNK <   0      20.707  25.597  55.669  0.00  0.00     0.163 HD
BRANCH  30  32
HETATM   32  C22 UNK <   0      19.714  24.540  57.361  0.00  0.00     0.147 C 
HETATM   33  C23 UNK <   0      18.222  24.575  57.110  0.00  0.00    -0.027 A 
HETATM   34  C24 UNK <   0      17.229  25.338  57.703  0.00  0.00     0.010 A 
HETATM   35  C28 UNK <   0      17.893  23.670  56.118  0.00  0.00    -0.047 A 
HETATM   36  C25 UNK <   0      15.914  25.198  57.307  0.00  0.00     0.001 A 
HETATM   37  C26 UNK <   0      15.586  24.293  56.314  0.00  0.00     0.001 A 
HETATM   38  C27 UNK <   0      16.573  23.531  55.721  0.00  0.00     0.008 A 
HETATM   39  C29 UNK <   0      19.141  22.965  55.634  0.00  0.00     0.073 C 
HETATM   40  C30 UNK <   0      20.198  23.216  56.731  0.00  0.00     0.149 C 
BRANCH  40  41
HETATM   41  O3  UNK <   0      21.499  23.372  56.159  0.00  0.00    -0.393 OA
HETATM   42  H40 UNK <   0      22.066  22.487  55.834  0.00  0.00     0.210 HD
ENDBRANCH  40  41
ENDBRANCH  30  32
ENDBRANCH  27  28
BRANCH  27  43
HETATM   43  C14 UNK <   0      20.498  28.162  55.299  0.00  0.00     0.052 C 
BRANCH  43  44
HETATM   44  C15 UNK <   0      19.038  28.512  55.426  0.00  0.00    -0.057 A 
HETATM   45  C16 UNK <   0      18.078  27.675  54.889  0.00  0.00     0.007 A 
HETATM   46  C17 UNK <   0      16.737  27.993  55.010  0.00  0.00     0.001 A 
HETATM   47  C18 UNK <   0      16.359  29.152  55.661  0.00  0.00     0.000 A 
HETATM   48  C19 UNK <   0      17.319  29.992  56.192  0.00  0.00     0.001 A 
HETATM   49  C20 UNK <   0      18.659  29.672  56.076  0.00  0.00     0.007 A 
ENDBRANCH  43  44
ENDBRANCH  27  43
ENDBRANCH  26  27
ENDBRANCH   1  26
TORSDOF 14
