REMARK VINA RESULT:      -7.0      2.134      4.751
REMARK  14 active torsions:
REMARK  status: ('A' for Active; 'I' for Inactive)
REMARK    1  A    between atoms: C11_1  and  O4_2 
REMARK    2  A    between atoms: C11_1  and  C10_4 
REMARK    3  A    between atoms: C11_1  and  C12_26 
REMARK    4  A    between atoms: C10_4  and  N3_10 
REMARK    5  A    between atoms: C6_5  and  C5_12 
REMARK    6  A    between atoms: N2_7  and  C31_19 
REMARK       I    between atoms: N1_11  and  C5_12 
REMARK    7  A    between atoms: N1_11  and  C2_16 
REMARK    8  A    between atoms: C31_19  and  C32_20 
REMARK    9  A    between atoms: C12_26  and  C13_27 
REMARK   10  A    between atoms: C13_27  and  C21_28 
REMARK   11  A    between atoms: C13_27  and  C14_43 
REMARK       I    between atoms: C21_28  and  N4_30 
REMARK   12  A    between atoms: N4_30  and  C22_32 
REMARK   13  A    between atoms: C30_40  and  O3_41 
REMARK   14  A    between atoms: C14_43  and  C15_44 
ROOT
HETATM    1  C11 UNK <   0      20.583  34.853  57.668  0.00  0.00     0.147 C 
ENDROOT
BRANCH   1   2
HETATM    2  O4  UNK <   0      21.634  34.968  56.707  0.00  0.00    -0.394 OA
HETATM    3  H41 UNK <   0      21.404  34.916  55.632  0.00  0.00     0.210 HD
ENDBRANCH   1   2
BRANCH   1   4
HETATM    4  C10 UNK <   0      21.031  35.478  58.990  0.00  0.00     0.305 C 
BRANCH   4   5
HETATM    5  N3  UNK <   0      20.108  36.560  59.357  0.00  0.00     0.108 N 
HETATM    6  C6  UNK <   0      20.188  37.669  58.396  0.00  0.00     0.342 C 
HETATM    7  C7  UNK <   0      19.274  38.807  58.855  0.00  0.00     0.318 C 
HETATM    8  N2  UNK <   0      17.896  38.310  58.968  0.00  0.00     0.097 N 
HETATM    9  C8  UNK <   0      17.816  37.201  59.929  0.00  0.00     0.303 C 
HETATM   10  C9  UNK <   0      18.730  36.063  59.469  0.00  0.00     0.303 C 
BRANCH   6  11
HETATM   11  C5  UNK <   0      21.609  38.166  58.317  0.00  0.00     0.253 C 
HETATM   12  N1  UNK <   0      22.362  37.885  57.234  0.00  0.00    -0.351 N 
HETATM   13  H15 UNK <   0      21.938  37.293  56.409  0.00  0.00     0.163 HD
HETATM   14  O1  UNK <   0      22.075  38.818  59.227  0.00  0.00    -0.271 OA
BRANCH  12  15
HETATM   15  C2  UNK <   0      23.742  38.367  57.157  0.00  0.00     0.022 C 
HETATM   16  C1  UNK <   0      23.745  39.895  57.081  0.00  0.00     0.037 C 
HETATM   17  C3  UNK <   0      24.511  37.916  58.401  0.00  0.00     0.037 C 
HETATM   18  C4  UNK <   0      24.414  37.791  55.908  0.00  0.00     0.037 C 
ENDBRANCH  12  15
ENDBRANCH   6  11
BRANCH   8  19
HETATM   19  C31 UNK <   0      16.973  39.393  59.335  0.00  0.00     0.312 C 
BRANCH  19  20
HETATM   20  C32 UNK <   0      15.950  39.572  58.241  0.00  0.00    -0.013 A 
HETATM   21  C33 UNK <   0      16.175  40.471  57.211  0.00  0.00     0.012 A 
HETATM   22  C34 UNK <   0      15.209  40.600  56.225  0.00  0.00     0.020 A 
HETATM   23  C35 UNK <   0      14.056  39.841  56.308  0.00  0.00     0.116 A 
HETATM   24  N5  UNK <   0      13.875  38.998  57.305  0.00  0.00    -0.273 NA
HETATM   25  C36 UNK <   0      14.775  38.847  58.258  0.00  0.00     0.125 A 
ENDBRANCH  19  20
ENDBRANCH   8  19
ENDBRANCH   4   5
ENDBRANCH   1   4
BRANCH   1  26
HETATM   26  C12 UNK <   0      20.253  33.375  57.888  0.00  0.00     0.047 C 
BRANCH  26  27
HETATM   27  C13 UNK <   0      19.320  32.890  56.777  0.00  0.00     0.084 C 
BRANCH  27  28
HETATM   28  C21 UNK <   0      20.138  32.332  55.641  0.00  0.00     0.222 C 
HETATM   29  O2  UNK <   0      20.375  33.020  54.670  0.00  0.00    -0.273 OA
HETATM   30  N4  UNK <   0      20.608  31.071  55.704  0.00  0.00    -0.350 N 
HETATM   31  H33 UNK <   0      20.330  30.421  56.547  0.00  0.00     0.163 HD
BRANCH  30  32
HETATM   32  C22 UNK <   0      21.489  30.564  54.648  0.00  0.00     0.147 C 
HETATM   33  C23 UNK <   0      22.937  30.678  55.074  0.00  0.00    -0.027 A 
HETATM   34  C24 UNK <   0      23.782  31.775  55.100  0.00  0.00     0.010 A 
HETATM   35  C28 UNK <   0      23.401  29.443  55.486  0.00  0.00    -0.047 A 
HETATM   36  C25 UNK <   0      25.085  31.639  55.535  0.00  0.00     0.001 A 
HETATM   37  C26 UNK <   0      25.550  30.403  55.948  0.00  0.00     0.001 A 
HETATM   38  C27 UNK <   0      24.709  29.307  55.922  0.00  0.00     0.008 A 
HETATM   39  C29 UNK <   0      22.298  28.414  55.364  0.00  0.00     0.073 C 
HETATM   40  C30 UNK <   0      21.250  29.055  54.429  0.00  0.00     0.149 C 
BRANCH  40  41
HETATM   41  O3  UNK <   0      19.925  28.689  54.823  0.00  0.00    -0.393 OA
HETATM   42  H40 UNK <   0      19.127  28.621  54.068  0.00  0.00     0.210 HD
ENDBRANCH  40  41
ENDBRANCH  30  32
ENDBRANCH  27  28
BRANCH  27  43
HETATM   43  C14 UNK <   0      18.476  34.061  56.271  0.00  0.00     0.052 C 
BRANCH  43  44
HETATM   44  C15 UNK <   0      17.055  33.897  56.742  0.00  0.00    -0.057 A 
HETATM   45  C16 UNK <   0      16.336  34.998  57.168  0.00  0.00     0.007 A 
HETATM   46  C17 UNK <   0      15.030  34.849  57.596  0.00  0.00     0.001 A 
HETATM   47  C18 UNK <   0      14.446  33.596  57.605  0.00  0.00     0.000 A 
HETATM   48  C19 UNK <   0      15.166  32.494  57.185  0.00  0.00     0.001 A 
HETATM   49  C20 UNK <   0      16.471  32.643  56.753  0.00  0.00     0.007 A 
ENDBRANCH  43  44
ENDBRANCH  27  43
ENDBRANCH  26  27
ENDBRANCH   1  26
TORSDOF 14
