MODEL 1
REMARK VINA RESULT:      -4.0      0.000      0.000
REMARK  Name = ZINC00000922
REMARK                            x       y       z     vdW  Elec       q    Type
REMARK                         _______ _______ _______ _____ _____    ______ ____
ROOT
ATOM      1  C   LIG    1       22.995  29.718  54.120  0.00  0.00    +0.024 A 
ATOM      2  C   LIG    1       23.859  30.774  54.104  0.00  0.00    +0.020 A 
ATOM      3  C   LIG    1       24.535  31.146  55.272  0.00  0.00    +0.100 A 
ATOM      4  C   LIG    1       24.320  30.426  56.461  0.00  0.00    +0.133 A 
ATOM      5  C   LIG    1       23.442  29.358  56.465  0.00  0.00    +0.069 A 
ATOM      6  C   LIG    1       22.779  29.002  55.296  0.00  0.00    +0.028 A 
ENDROOT
BRANCH   6   7
ATOM      7  N   LIG    1       21.897  27.929  55.300  0.00  0.00    -0.358 N 
ATOM      8  H   LIG    1       22.201  27.050  55.024  0.00  0.00    +0.142 HD
ATOM      9  H   LIG    1       20.976  28.058  55.580  0.00  0.00    +0.142 HD
ENDBRANCH   6   7
BRANCH   3  10
ATOM     10  C   LIG    1       25.464  32.282  55.257  0.00  0.00    +0.340 C 
ATOM     11  O   LIG    1       26.433  32.269  54.508  0.00  0.00    -0.245 OA
BRANCH  10  12
ATOM     12  O   LIG    1       25.272  33.241  55.992  0.00  0.00    -0.477 OA
ATOM     13  H   LIG    1       24.725  33.946  55.708  0.00  0.00    +0.295 HD
ENDBRANCH  10  12
ENDBRANCH   3  10
BRANCH   4  14
ATOM     14  O   LIG    1       24.970  30.778  57.599  0.00  0.00    -0.506 OA
ATOM     15  H   LIG    1       24.798  31.686  57.885  0.00  0.00    +0.292 HD
ENDBRANCH   4  14
TORSDOF 4
ENDMDL
MODEL 2
REMARK VINA RESULT:      -3.8      3.203      4.229
REMARK  Name = ZINC00000922
REMARK                            x       y       z     vdW  Elec       q    Type
REMARK                         _______ _______ _______ _____ _____    ______ ____
ROOT
ATOM      1  C   LIG    1       26.972  32.655  54.354  0.00  0.00    +0.024 A 
ATOM      2  C   LIG    1       25.780  32.032  54.122  0.00  0.00    +0.020 A 
ATOM      3  C   LIG    1       25.073  31.452  55.182  0.00  0.00    +0.100 A 
ATOM      4  C   LIG    1       25.595  31.514  56.486  0.00  0.00    +0.133 A 
ATOM      5  C   LIG    1       26.804  32.148  56.709  0.00  0.00    +0.069 A 
ATOM      6  C   LIG    1       27.494  32.719  55.646  0.00  0.00    +0.028 A 
ENDROOT
BRANCH   6   7
ATOM      7  N   LIG    1       28.708  33.355  55.871  0.00  0.00    -0.358 N 
ATOM      8  H   LIG    1       29.133  33.295  56.740  0.00  0.00    +0.142 HD
ATOM      9  H   LIG    1       29.131  33.859  55.158  0.00  0.00    +0.142 HD
ENDBRANCH   6   7
BRANCH   3  10
ATOM     10  C   LIG    1       23.791  30.782  54.933  0.00  0.00    +0.340 C 
ATOM     11  O   LIG    1       23.640  29.611  55.256  0.00  0.00    -0.245 OA
BRANCH  10  12
ATOM     12  O   LIG    1       22.873  31.394  54.402  0.00  0.00    -0.477 OA
ATOM     13  H   LIG    1       22.181  31.748  54.925  0.00  0.00    +0.295 HD
ENDBRANCH  10  12
ENDBRANCH   3  10
BRANCH   4  14
ATOM     14  O   LIG    1       24.917  30.956  57.520  0.00  0.00    -0.506 OA
ATOM     15  H   LIG    1       24.831  31.532  58.291  0.00  0.00    +0.292 HD
ENDBRANCH   4  14
TORSDOF 4
ENDMDL
MODEL 3
REMARK VINA RESULT:      -3.8      2.877      3.723
REMARK  Name = ZINC00000922
REMARK                            x       y       z     vdW  Elec       q    Type
REMARK                         _______ _______ _______ _____ _____    ______ ____
ROOT
ATOM      1  C   LIG    1       22.795  29.214  57.799  0.00  0.00    +0.024 A 
ATOM      2  C   LIG    1       22.486  28.980  56.490  0.00  0.00    +0.020 A 
ATOM      3  C   LIG    1       22.856  29.905  55.507  0.00  0.00    +0.100 A 
ATOM      4  C   LIG    1       23.548  31.073  55.872  0.00  0.00    +0.133 A 
ATOM      5  C   LIG    1       23.855  31.299  57.201  0.00  0.00    +0.069 A 
ATOM      6  C   LIG    1       23.481  30.371  58.166  0.00  0.00    +0.028 A 
ENDROOT
BRANCH   6   7
ATOM      7  N   LIG    1       23.790  30.598  59.501  0.00  0.00    -0.358 N 
ATOM      8  H   LIG    1       24.613  31.053  59.737  0.00  0.00    +0.142 HD
ATOM      9  H   LIG    1       23.183  30.301  60.197  0.00  0.00    +0.142 HD
ENDBRANCH   6   7
BRANCH   3  10
ATOM     10  C   LIG    1       22.524  29.655  54.099  0.00  0.00    +0.340 C 
ATOM     11  O   LIG    1       23.417  29.579  53.264  0.00  0.00    -0.245 OA
BRANCH  10  12
ATOM     12  O   LIG    1       21.356  29.525  53.758  0.00  0.00    -0.477 OA
ATOM     13  H   LIG    1       20.684  30.010  54.196  0.00  0.00    +0.295 HD
ENDBRANCH  10  12
ENDBRANCH   3  10
BRANCH   4  14
ATOM     14  O   LIG    1       23.911  31.975  54.926  0.00  0.00    -0.506 OA
ATOM     15  H   LIG    1       24.867  32.067  54.816  0.00  0.00    +0.292 HD
ENDBRANCH   4  14
TORSDOF 4
ENDMDL
MODEL 4
REMARK VINA RESULT:      -3.8      0.936      2.045
REMARK  Name = ZINC00000922
REMARK                            x       y       z     vdW  Elec       q    Type
REMARK                         _______ _______ _______ _____ _____    ______ ____
ROOT
ATOM      1  C   LIG    1       23.574  29.297  56.658  0.00  0.00    +0.024 A 
ATOM      2  C   LIG    1       24.394  30.385  56.571  0.00  0.00    +0.020 A 
ATOM      3  C   LIG    1       24.565  31.038  55.345  0.00  0.00    +0.100 A 
ATOM      4  C   LIG    1       23.890  30.568  54.204  0.00  0.00    +0.133 A 
ATOM      5  C   LIG    1       23.063  29.465  54.304  0.00  0.00    +0.069 A 
ATOM      6  C   LIG    1       22.903  28.828  55.529  0.00  0.00    +0.028 A 
ENDROOT
BRANCH   6   7
ATOM      7  N   LIG    1       22.072  27.720  55.630  0.00  0.00    -0.358 N 
ATOM      8  H   LIG    1       22.397  26.844  55.369  0.00  0.00    +0.142 HD
ATOM      9  H   LIG    1       21.165  27.821  55.961  0.00  0.00    +0.142 HD
ENDBRANCH   6   7
BRANCH   3  10
ATOM     10  C   LIG    1       25.446  32.208  55.250  0.00  0.00    +0.340 C 
ATOM     11  O   LIG    1       26.370  32.214  54.446  0.00  0.00    -0.245 OA
BRANCH  10  12
ATOM     12  O   LIG    1       25.259  33.176  55.975  0.00  0.00    -0.477 OA
ATOM     13  H   LIG    1       25.666  33.996  55.775  0.00  0.00    +0.295 HD
ENDBRANCH  10  12
ENDBRANCH   3  10
BRANCH   4  14
ATOM     14  O   LIG    1       24.050  31.195  53.011  0.00  0.00    -0.506 OA
ATOM     15  H   LIG    1       23.976  30.608  52.246  0.00  0.00    +0.292 HD
ENDBRANCH   4  14
TORSDOF 4
ENDMDL
MODEL 5
REMARK VINA RESULT:      -3.8      3.293      4.628
REMARK  Name = ZINC00000922
REMARK                            x       y       z     vdW  Elec       q    Type
REMARK                         _______ _______ _______ _____ _____    ______ ____
ROOT
ATOM      1  C   LIG    1       24.709  30.507  56.339  0.00  0.00    +0.024 A 
ATOM      2  C   LIG    1       23.835  29.493  56.603  0.00  0.00    +0.020 A 
ATOM      3  C   LIG    1       22.833  29.173  55.679  0.00  0.00    +0.100 A 
ATOM      4  C   LIG    1       22.732  29.898  54.478  0.00  0.00    +0.133 A 
ATOM      5  C   LIG    1       23.624  30.923  54.222  0.00  0.00    +0.069 A 
ATOM      6  C   LIG    1       24.613  31.229  55.150  0.00  0.00    +0.028 A 
ENDROOT
BRANCH   6   7
ATOM      7  N   LIG    1       25.509  32.259  54.892  0.00  0.00    -0.358 N 
ATOM      8  H   LIG    1       25.954  32.710  55.626  0.00  0.00    +0.142 HD
ATOM      9  H   LIG    1       25.691  32.527  53.977  0.00  0.00    +0.142 HD
ENDBRANCH   6   7
BRANCH   3  10
ATOM     10  C   LIG    1       21.891  28.083  55.962  0.00  0.00    +0.340 C 
ATOM     11  O   LIG    1       20.685  28.285  55.900  0.00  0.00    -0.245 OA
BRANCH  10  12
ATOM     12  O   LIG    1       22.311  26.972  56.261  0.00  0.00    -0.477 OA
ATOM     13  H   LIG    1       22.706  26.831  57.099  0.00  0.00    +0.295 HD
ENDBRANCH  10  12
ENDBRANCH   3  10
BRANCH   4  14
ATOM     14  O   LIG    1       21.765  29.594  53.577  0.00  0.00    -0.506 OA
ATOM     15  H   LIG    1       20.968  30.135  53.658  0.00  0.00    +0.292 HD
ENDBRANCH   4  14
TORSDOF 4
ENDMDL
