REMARK VINA RESULT:      -5.1      1.828      2.561
REMARK  Name = ZINC00000850
REMARK                            x       y       z     vdW  Elec       q    Type
REMARK                         _______ _______ _______ _____ _____    ______ ____
ROOT
ATOM      1  C   LIG    1       22.117  31.047  58.070  0.00  0.00    +0.036 C 
ATOM      2  C   LIG    1       22.592  30.338  56.800  0.00  0.00    +0.140 C 
ENDROOT
BRANCH   2   3
ATOM      3  C   LIG    1       23.848  30.999  56.295  0.00  0.00    +0.013 A 
ATOM      4  C   LIG    1       24.865  31.506  57.007  0.00  0.00    +0.021 A 
ATOM      5  C   LIG    1       25.993  32.106  56.312  0.00  0.00    -0.010 A 
ATOM      6  C   LIG    1       27.158  32.695  56.858  0.00  0.00    +0.009 A 
ATOM      7  C   LIG    1       28.120  33.212  56.048  0.00  0.00    +0.001 A 
ATOM      8  C   LIG    1       27.998  33.184  54.665  0.00  0.00    +0.001 A 
ATOM      9  C   LIG    1       26.876  32.618  54.094  0.00  0.00    +0.015 A 
ATOM     10  C   LIG    1       25.894  32.089  54.904  0.00  0.00    +0.020 A 
ATOM     11  S   LIG    1       24.340  31.287  54.605  0.00  0.00    -0.091 S 
ENDBRANCH   2   3
BRANCH   2  12
ATOM     12  N   LIG    1       22.869  28.931  57.101  0.00  0.00    -0.160 N 
ATOM     13  C   LIG    1       22.670  27.988  56.159  0.00  0.00    +0.323 C 
ATOM     14  N   LIG    1       22.980  26.702  56.416  0.00  0.00    -0.312 N 
ATOM     15  H   LIG    1       22.906  26.036  55.715  0.00  0.00    +0.147 HD
ATOM     16  H   LIG    1       23.276  26.442  57.303  0.00  0.00    +0.147 HD
ATOM     17  O   LIG    1       22.212  28.299  55.076  0.00  0.00    -0.251 OA
BRANCH  12  18
ATOM     18  O   LIG    1       23.346  28.561  58.383  0.00  0.00    -0.291 OA
ATOM     19  H   LIG    1       22.756  28.808  59.108  0.00  0.00    +0.242 HD
ENDBRANCH  12  18
ENDBRANCH   2  12
TORSDOF 3
