REMARK VINA RESULT:      -4.6      2.770      6.574
REMARK  Name = ZINC00000850
REMARK                            x       y       z     vdW  Elec       q    Type
REMARK                         _______ _______ _______ _____ _____    ______ ____
ROOT
ATOM      1  C   LIG    1       24.022  27.885  55.384  0.00  0.00    +0.036 C 
ATOM      2  C   LIG    1       23.504  29.244  54.910  0.00  0.00    +0.140 C 
ENDROOT
BRANCH   2   3
ATOM      3  C   LIG    1       22.028  29.349  55.199  0.00  0.00    +0.013 A 
ATOM      4  C   LIG    1       21.076  28.425  55.001  0.00  0.00    +0.021 A 
ATOM      5  C   LIG    1       19.699  28.736  55.354  0.00  0.00    -0.010 A 
ATOM      6  C   LIG    1       18.549  27.920  55.232  0.00  0.00    +0.009 A 
ATOM      7  C   LIG    1       17.328  28.380  55.614  0.00  0.00    +0.001 A 
ATOM      8  C   LIG    1       17.163  29.656  56.136  0.00  0.00    +0.001 A 
ATOM      9  C   LIG    1       18.260  30.482  56.271  0.00  0.00    +0.015 A 
ATOM     10  C   LIG    1       19.504  30.028  55.888  0.00  0.00    +0.020 A 
ATOM     11  S   LIG    1       21.135  30.727  55.891  0.00  0.00    -0.091 S 
ENDBRANCH   2   3
BRANCH   2  12
ATOM     12  N   LIG    1       24.216  30.312  55.617  0.00  0.00    -0.160 N 
ATOM     13  C   LIG    1       24.605  31.417  54.951  0.00  0.00    +0.323 C 
ATOM     14  N   LIG    1       25.209  32.425  55.612  0.00  0.00    -0.312 N 
ATOM     15  H   LIG    1       25.423  33.249  55.150  0.00  0.00    +0.147 HD
ATOM     16  H   LIG    1       25.430  32.325  56.552  0.00  0.00    +0.147 HD
ATOM     17  O   LIG    1       24.411  31.506  53.754  0.00  0.00    -0.251 OA
BRANCH  12  18
ATOM     18  O   LIG    1       24.495  30.183  56.999  0.00  0.00    -0.291 OA
ATOM     19  H   LIG    1       23.877  30.658  57.571  0.00  0.00    +0.242 HD
ENDBRANCH  12  18
ENDBRANCH   2  12
TORSDOF 3
