REMARK VINA RESULT:      -4.7      2.519      3.057
REMARK  Name = ZINC00000850
REMARK                            x       y       z     vdW  Elec       q    Type
REMARK                         _______ _______ _______ _____ _____    ______ ____
ROOT
ATOM      1  C   LIG    1       21.632  30.404  56.159  0.00  0.00    +0.036 C 
ATOM      2  C   LIG    1       22.858  30.210  57.054  0.00  0.00    +0.140 C 
ENDROOT
BRANCH   2   3
ATOM      3  C   LIG    1       24.038  30.930  56.453  0.00  0.00    +0.013 A 
ATOM      4  C   LIG    1       25.083  31.484  57.086  0.00  0.00    +0.021 A 
ATOM      5  C   LIG    1       26.124  32.135  56.305  0.00  0.00    -0.010 A 
ATOM      6  C   LIG    1       27.300  32.777  56.760  0.00  0.00    +0.009 A 
ATOM      7  C   LIG    1       28.170  33.339  55.878  0.00  0.00    +0.001 A 
ATOM      8  C   LIG    1       27.941  33.305  54.510  0.00  0.00    +0.001 A 
ATOM      9  C   LIG    1       26.804  32.688  54.026  0.00  0.00    +0.015 A 
ATOM     10  C   LIG    1       25.915  32.114  54.909  0.00  0.00    +0.020 A 
ATOM     11  S   LIG    1       24.381  31.240  54.731  0.00  0.00    -0.091 S 
ENDBRANCH   2   3
BRANCH   2  12
ATOM     12  N   LIG    1       22.581  30.754  58.386  0.00  0.00    -0.160 N 
ATOM     13  C   LIG    1       22.945  30.063  59.485  0.00  0.00    +0.323 C 
ATOM     14  N   LIG    1       22.743  30.590  60.709  0.00  0.00    -0.312 N 
ATOM     15  H   LIG    1       23.070  30.127  61.496  0.00  0.00    +0.147 HD
ATOM     16  H   LIG    1       22.270  31.432  60.803  0.00  0.00    +0.147 HD
ATOM     17  O   LIG    1       23.455  28.965  59.371  0.00  0.00    -0.251 OA
BRANCH  12  18
ATOM     18  O   LIG    1       21.933  32.006  58.519  0.00  0.00    -0.291 OA
ATOM     19  H   LIG    1       21.040  32.028  58.150  0.00  0.00    +0.242 HD
ENDBRANCH  12  18
ENDBRANCH   2  12
TORSDOF 3
