REMARK VINA RESULT:      -5.1      1.673      2.417
REMARK  Name = ZINC00000850
REMARK                            x       y       z     vdW  Elec       q    Type
REMARK                         _______ _______ _______ _____ _____    ______ ____
ROOT
ATOM      1  C   LIG    1       22.544  30.970  58.391  0.00  0.00    +0.036 C 
ATOM      2  C   LIG    1       22.540  31.378  56.916  0.00  0.00    +0.140 C 
ENDROOT
BRANCH   2   3
ATOM      3  C   LIG    1       23.949  31.678  56.474  0.00  0.00    +0.013 A 
ATOM      4  C   LIG    1       24.533  32.875  56.319  0.00  0.00    +0.021 A 
ATOM      5  C   LIG    1       25.918  32.940  55.878  0.00  0.00    -0.010 A 
ATOM      6  C   LIG    1       26.723  34.082  55.652  0.00  0.00    +0.009 A 
ATOM      7  C   LIG    1       28.011  33.953  55.236  0.00  0.00    +0.001 A 
ATOM      8  C   LIG    1       28.583  32.707  55.020  0.00  0.00    +0.001 A 
ATOM      9  C   LIG    1       27.831  31.568  55.230  0.00  0.00    +0.015 A 
ATOM     10  C   LIG    1       26.524  31.685  55.652  0.00  0.00    +0.020 A 
ATOM     11  S   LIG    1       25.238  30.526  56.039  0.00  0.00    -0.091 S 
ENDBRANCH   2   3
BRANCH   2  12
ATOM     12  N   LIG    1       21.997  30.283  56.108  0.00  0.00    -0.160 N 
ATOM     13  C   LIG    1       21.528  30.528  54.869  0.00  0.00    +0.323 C 
ATOM     14  N   LIG    1       21.083  29.513  54.103  0.00  0.00    -0.312 N 
ATOM     15  H   LIG    1       20.814  29.678  53.187  0.00  0.00    +0.147 HD
ATOM     16  H   LIG    1       21.031  28.616  54.470  0.00  0.00    +0.147 HD
ATOM     17  O   LIG    1       21.508  31.667  54.441  0.00  0.00    -0.251 OA
BRANCH  12  18
ATOM     18  O   LIG    1       21.967  28.966  56.629  0.00  0.00    -0.291 OA
ATOM     19  H   LIG    1       21.077  28.599  56.719  0.00  0.00    +0.242 HD
ENDBRANCH  12  18
ENDBRANCH   2  12
TORSDOF 3
