REMARK VINA RESULT:      -5.3      0.000      0.000
REMARK  Name = ZINC00000850
REMARK                            x       y       z     vdW  Elec       q    Type
REMARK                         _______ _______ _______ _____ _____    ______ ____
ROOT
ATOM      1  C   LIG    1       24.321  27.898  55.476  0.00  0.00    +0.036 C 
ATOM      2  C   LIG    1       23.582  29.135  55.989  0.00  0.00    +0.140 C 
ENDROOT
BRANCH   2   3
ATOM      3  C   LIG    1       24.486  30.337  55.895  0.00  0.00    +0.013 A 
ATOM      4  C   LIG    1       25.781  30.376  55.547  0.00  0.00    +0.021 A 
ATOM      5  C   LIG    1       26.472  31.656  55.520  0.00  0.00    -0.010 A 
ATOM      6  C   LIG    1       27.821  31.927  55.187  0.00  0.00    +0.009 A 
ATOM      7  C   LIG    1       28.302  33.199  55.217  0.00  0.00    +0.001 A 
ATOM      8  C   LIG    1       27.496  34.272  55.572  0.00  0.00    +0.001 A 
ATOM      9  C   LIG    1       26.174  34.049  55.903  0.00  0.00    +0.015 A 
ATOM     10  C   LIG    1       25.674  32.765  55.876  0.00  0.00    +0.020 A 
ATOM     11  S   LIG    1       24.087  32.045  56.211  0.00  0.00    -0.091 S 
ENDBRANCH   2   3
BRANCH   2  12
ATOM     12  N   LIG    1       22.383  29.361  55.177  0.00  0.00    -0.160 N 
ATOM     13  C   LIG    1       21.175  29.444  55.767  0.00  0.00    +0.323 C 
ATOM     14  N   LIG    1       20.081  29.710  55.027  0.00  0.00    -0.312 N 
ATOM     15  H   LIG    1       19.223  29.843  55.460  0.00  0.00    +0.147 HD
ATOM     16  H   LIG    1       20.151  29.768  54.061  0.00  0.00    +0.147 HD
ATOM     17  O   LIG    1       21.073  29.281  56.968  0.00  0.00    -0.251 OA
BRANCH  12  18
ATOM     18  O   LIG    1       22.496  29.491  53.771  0.00  0.00    -0.291 OA
ATOM     19  H   LIG    1       22.308  28.677  53.284  0.00  0.00    +0.242 HD
ENDBRANCH  12  18
ENDBRANCH   2  12
TORSDOF 3
