REMARK  Name = ZINC00972540
REMARK                            x       y       z     vdW  Elec       q    Type
REMARK                         _______ _______ _______ _____ _____    ______ ____
ROOT
ATOM      1  C   LIG    1        1.179   1.675  -0.000  0.00  0.00    +0.085 A 
ATOM      2  C   LIG    1        2.477   1.182  -0.010  0.00  0.00    +0.069 A 
ATOM      3  C   LIG    1        3.562   2.148  -0.019  0.00  0.00    -0.023 A 
ATOM      4  C   LIG    1        3.179   3.443  -0.008  0.00  0.00    -0.004 A 
ATOM      5  C   LIG    1        4.068   4.648  -0.009  0.00  0.00    +0.043 C 
ATOM      6  C   LIG    1        5.492   4.199   0.353  0.00  0.00    +0.005 C 
ATOM      7  C   LIG    1        5.853   2.976  -0.494  0.00  0.00    +0.005 C 
ATOM      8  C   LIG    1        5.037   1.766  -0.036  0.00  0.00    +0.037 C 
ATOM      9  S   LIG    1        1.409   3.392   0.007  0.00  0.00    -0.077 S 
ENDROOT
BRANCH   2  10
ATOM     10  C   LIG    1        2.742  -0.260  -0.013  0.00  0.00    +0.249 C 
ATOM     11  N   LIG    1        2.872  -0.924   1.153  0.00  0.00    -0.293 N 
ATOM     12  C   LIG    1        2.757  -0.222   2.441  0.00  0.00    +0.136 C 
ATOM     13  C   LIG    1        1.757  -0.992   3.318  0.00  0.00    +0.179 C 
ATOM     14  O   LIG    1        2.146  -2.367   3.377  0.00  0.00    -0.377 OA
ATOM     15  C   LIG    1        2.125  -3.035   2.114  0.00  0.00    +0.179 C 
ATOM     16  C   LIG    1        3.139  -2.371   1.175  0.00  0.00    +0.136 C 
ATOM     17  O   LIG    1        2.846  -0.857  -1.068  0.00  0.00    -0.270 OA
ENDBRANCH   2  10
BRANCH   1  19
ATOM     18  C   LIG    1       -1.187   1.624   0.017  0.00  0.00    +0.255 C 
ATOM     19  N   LIG    1       -0.011   0.966   0.007  0.00  0.00    -0.275 N 
ATOM     20  H   LIG    1        0.002  -0.004   0.002  0.00  0.00    +0.156 HD
ATOM     21  O   LIG    1       -1.204   2.841   0.023  0.00  0.00    -0.269 OA
BRANCH  18  24
ATOM     22  C   LIG    1       -4.755   0.419   0.027  0.00  0.00    +0.008 A 
ATOM     23  C   LIG    1       -3.748   1.351   0.027  0.00  0.00    +0.021 A 
ATOM     24  C   LIG    1       -2.446   0.874   0.018  0.00  0.00    +0.074 A 
ATOM     25  S   LIG    1       -2.704  -0.891   0.002  0.00  0.00    -0.092 S 
ATOM     26  C   LIG    1       -4.437  -0.902   0.018  0.00  0.00    +0.046 A 
ENDBRANCH  18  24
ENDBRANCH   1  19
TORSDOF 3
