REMARK  Name = ZINC01359452
REMARK                            x       y       z     vdW  Elec       q    Type
REMARK                         _______ _______ _______ _____ _____    ______ ____
ROOT
ATOM      1  C   LIG    1        0.558  -5.830  -0.034  0.00  0.00    +0.220 C 
ATOM      2  N   LIG    1        1.259  -4.679  -0.034  0.00  0.00    -0.301 N 
ATOM      3  C   LIG    1        1.660  -4.046   1.230  0.00  0.00    +0.108 C 
ATOM      4  C   LIG    1        1.179  -2.592   1.228  0.00  0.00    +0.032 C 
ATOM      5  C   LIG    1        1.707  -1.886  -0.024  0.00  0.00    +0.081 C 
ATOM      6  C   LIG    1        1.157  -2.579  -1.272  0.00  0.00    +0.032 C 
ATOM      7  C   LIG    1        1.638  -4.034  -1.298  0.00  0.00    +0.108 C 
ATOM      8  O   LIG    1        0.252  -6.354   1.017  0.00  0.00    -0.275 OA
ENDROOT
BRANCH   5   9
ATOM      9  C   LIG    1        1.264  -0.446  -0.012  0.00  0.00    +0.231 A 
ATOM     10  N   LIG    1        2.042   0.607  -0.014  0.00  0.00    -0.191 NA
ATOM     11  C   LIG    1        1.210   1.675  -0.001  0.00  0.00    +0.209 A 
ATOM     12  N   LIG    1       -0.014   1.209   0.009  0.00  0.00    -0.056 NA
ATOM     13  O   LIG    1        0.002  -0.004   0.002  0.00  0.00    -0.337 OA
BRANCH  11  14
ATOM     14  C   LIG    1        1.608   3.097   0.003  0.00  0.00    +0.060 A 
ATOM     15  C   LIG    1        0.817   4.215   0.017  0.00  0.00    +0.019 A 
ATOM     16  C   LIG    1        1.419   5.453   0.018  0.00  0.00    +0.008 A 
ATOM     17  C   LIG    1        2.775   5.529   0.005  0.00  0.00    +0.046 A 
ATOM     18  S   LIG    1        3.247   3.807  -0.001  0.00  0.00    -0.093 S 
ENDBRANCH  11  14
ENDBRANCH   5   9
BRANCH   1  19
ATOM     19  C   LIG    1        0.155  -6.467  -1.339  0.00  0.00    +0.138 C 
BRANCH  19  22
ATOM     20  C   LIG    1       -2.436  -9.174  -0.649  0.00  0.00    +0.008 A 
ATOM     21  C   LIG    1       -1.947  -7.903  -0.890  0.00  0.00    +0.011 A 
ATOM     22  C   LIG    1       -0.613  -7.734  -1.063  0.00  0.00    -0.001 A 
ATOM     23  S   LIG    1       -0.002  -9.400  -0.871  0.00  0.00    -0.101 S 
ATOM     24  C   LIG    1       -1.566 -10.211  -0.581  0.00  0.00    +0.045 A 
ENDBRANCH  19  22
ENDBRANCH   1  19
TORSDOF 4
