REMARK  Name = ZINC01297885
REMARK                            x       y       z     vdW  Elec       q    Type
REMARK                         _______ _______ _______ _____ _____    ______ ____
ROOT
ATOM      1  C   LIG    1       -0.013   1.076   0.008  0.00  0.00    +0.028 C 
ATOM      2  C   LIG    1       -1.210   1.709   0.076  0.00  0.00    +0.077 C 
ATOM      3  C   LIG    1       -1.512   3.156   0.093  0.00  0.00    +0.258 C 
ATOM      4  N   LIG    1       -2.788   3.494   0.165  0.00  0.00    -0.255 N 
ATOM      5  C   LIG    1       -3.761   2.562   0.221  0.00  0.00    +0.121 C 
ATOM      6  S   LIG    1       -5.455   2.798   0.316  0.00  0.00    -0.027 S 
ATOM      7  O   LIG    1       -0.630   3.994   0.043  0.00  0.00    -0.269 OA
ATOM      8  S   LIG    1       -2.858   1.022   0.162  0.00  0.00    -0.061 S 
ENDROOT
BRANCH   1  12
ATOM      9  C   LIG    1        3.525   3.303  -0.701  0.00  0.00    +0.000 A 
ATOM     10  C   LIG    1        3.543   2.251   0.198  0.00  0.00    +0.001 A 
ATOM     11  C   LIG    1        2.397   1.522   0.434  0.00  0.00    +0.008 A 
ATOM     12  C   LIG    1        1.214   1.848  -0.238  0.00  0.00    -0.024 A 
ATOM     13  C   LIG    1        1.206   2.909  -1.149  0.00  0.00    +0.008 A 
ATOM     14  C   LIG    1        2.359   3.632  -1.370  0.00  0.00    +0.001 A 
ENDBRANCH   1  12
BRANCH   4  15
ATOM     15  C   LIG    1       -3.153   4.912   0.186  0.00  0.00    +0.126 C 
BRANCH  15  16
ATOM     16  C   LIG    1       -3.362   5.406  -1.246  0.00  0.00    +0.140 C 
BRANCH  16  17
ATOM     17  C   LIG    1       -3.738   6.866  -1.225  0.00  0.00    +0.306 C 
ATOM     18  O   LIG    1       -3.829   7.450  -0.171  0.00  0.00    -0.251 OA
BRANCH  17  19
ATOM     19  O   LIG    1       -3.971   7.516  -2.376  0.00  0.00    -0.481 OA
ATOM     20  H   LIG    1       -3.900   7.063  -3.192  0.00  0.00    +0.295 HD
ENDBRANCH  17  19
ENDBRANCH  16  17
ENDBRANCH  15  16
ENDBRANCH   4  15
TORSDOF 5
