REMARK  Name = ZINC00832676
REMARK                            x       y       z     vdW  Elec       q    Type
REMARK                         _______ _______ _______ _____ _____    ______ ____
ROOT
ATOM      1  C   LIG    1        0.322   3.017  -1.500  0.00  0.00    +0.028 C 
ATOM      2  C   LIG    1        0.611   2.388  -0.135  0.00  0.00    +0.081 C 
ATOM      3  C   LIG    1        0.740   3.488   0.927  0.00  0.00    +0.050 C 
ATOM      4  C   LIG    1       -0.537   4.328   0.925  0.00  0.00    +0.115 C 
ATOM      5  C   LIG    1       -1.751   3.442   1.032  0.00  0.00    -0.005 A 
ATOM      6  C   LIG    1       -2.944   3.991   1.472  0.00  0.00    +0.007 A 
ATOM      7  C   LIG    1       -4.075   3.205   1.577  0.00  0.00    +0.000 A 
ATOM      8  C   LIG    1       -4.024   1.864   1.242  0.00  0.00    +0.002 A 
ATOM      9  C   LIG    1       -2.838   1.309   0.804  0.00  0.00    +0.024 A 
ATOM     10  C   LIG    1       -1.699   2.098   0.694  0.00  0.00    +0.042 A 
ATOM     11  N   LIG    1       -0.504   1.514   0.256  0.00  0.00    -0.265 N 
ATOM     12  C   LIG    1       -0.380   0.174   0.189  0.00  0.00    +0.244 C 
ATOM     13  O   LIG    1       -1.268  -0.541   0.614  0.00  0.00    -0.270 OA
ENDROOT
BRANCH   4  14
ATOM     14  N   LIG    1       -0.510   5.251   2.062  0.00  0.00    -0.264 N 
ATOM     15  C   LIG    1       -0.431   4.771   3.319  0.00  0.00    +0.217 C 
ATOM     16  C   LIG    1       -0.289   5.720   4.481  0.00  0.00    +0.109 C 
ATOM     17  O   LIG    1       -0.473   3.574   3.515  0.00  0.00    -0.276 OA
BRANCH  14  18
ATOM     18  C   LIG    1       -0.568   6.632   1.844  0.00  0.00    +0.037 A 
ATOM     19  C   LIG    1        0.516   7.293   1.280  0.00  0.00    +0.023 A 
ATOM     20  C   LIG    1        0.454   8.655   1.061  0.00  0.00    +0.002 A 
ATOM     21  C   LIG    1       -0.681   9.363   1.412  0.00  0.00    +0.000 A 
ATOM     22  C   LIG    1       -1.760   8.708   1.978  0.00  0.00    +0.002 A 
ATOM     23  C   LIG    1       -1.706   7.345   2.195  0.00  0.00    +0.023 A 
ENDBRANCH  14  18
ENDBRANCH   4  14
BRANCH  12  24
ATOM     24  C   LIG    1        0.824  -0.421  -0.394  0.00  0.00    +0.068 C 
ATOM     25  C   LIG    1        0.960  -1.762  -0.436  0.00  0.00    +0.013 C 
BRANCH  25  26
ATOM     26  C   LIG    1        2.170  -2.361  -1.023  0.00  0.00    -0.025 A 
ATOM     27  C   LIG    1        3.178  -1.543  -1.541  0.00  0.00    +0.008 A 
ATOM     28  C   LIG    1        4.311  -2.111  -2.084  0.00  0.00    +0.001 A 
ATOM     29  C   LIG    1        4.447  -3.488  -2.126  0.00  0.00    +0.000 A 
ATOM     30  C   LIG    1        3.451  -4.305  -1.619  0.00  0.00    +0.001 A 
ATOM     31  C   LIG    1        2.314  -3.751  -1.069  0.00  0.00    +0.008 A 
ENDBRANCH  25  26
ENDBRANCH  12  24
TORSDOF 4
