REMARK  Name = ZINC00968257
REMARK                            x       y       z     vdW  Elec       q    Type
REMARK                         _______ _______ _______ _____ _____    ______ ____
ROOT
ATOM      1  C   LIG    1        2.864  -0.539  -2.397  0.00  0.00    -0.020 C 
ATOM      2  C   LIG    1        3.525   0.327  -3.174  0.00  0.00    -0.014 C 
ATOM      3  C   LIG    1        3.593   1.777  -2.845  0.00  0.00    -0.014 A 
ATOM      4  C   LIG    1        4.067   2.147  -1.588  0.00  0.00    +0.009 A 
ATOM      5  C   LIG    1        4.175   3.478  -1.246  0.00  0.00    +0.001 A 
ATOM      6  C   LIG    1        3.810   4.441  -2.170  0.00  0.00    +0.000 A 
ATOM      7  C   LIG    1        3.331   4.077  -3.407  0.00  0.00    +0.004 A 
ATOM      8  C   LIG    1        3.195   2.736  -3.774  0.00  0.00    -0.039 A 
ATOM      9  C   LIG    1        2.587   2.517  -5.138  0.00  0.00    +0.040 C 
ATOM     10  C   LIG    1        2.380   1.060  -5.494  0.00  0.00    +0.040 C 
ATOM     11  C   LIG    1        3.678   0.300  -5.599  0.00  0.00    -0.039 A 
ATOM     12  C   LIG    1        4.287   0.012  -6.796  0.00  0.00    +0.004 A 
ATOM     13  C   LIG    1        5.469  -0.743  -6.776  0.00  0.00    +0.000 A 
ATOM     14  C   LIG    1        6.003  -1.190  -5.581  0.00  0.00    +0.001 A 
ATOM     15  C   LIG    1        5.391  -0.877  -4.378  0.00  0.00    +0.009 A 
ATOM     16  C   LIG    1        4.233  -0.112  -4.405  0.00  0.00    -0.014 A 
ENDROOT
BRANCH   1  17
ATOM     17  C   LIG    1        2.159  -0.053  -1.157  0.00  0.00    +0.009 C 
BRANCH  17  18
ATOM     18  C   LIG    1        0.690  -0.478  -1.207  0.00  0.00    -0.075 C 
BRANCH  18  20
ATOM     19  C   LIG    1       -0.018   1.465   0.010  0.00  0.00    -0.097 C 
ATOM     20  N   LIG    1        0.002  -0.004   0.002  0.00  0.00    +0.376 N 
ATOM     21  H   LIG    1        0.490  -0.338   0.820  0.00  0.00    -0.083 HD
ATOM     22  C   LIG    1       -1.376  -0.512   0.012  0.00  0.00    -0.097 C 
ENDBRANCH  18  20
ENDBRANCH  17  18
ENDBRANCH   1  17
TORSDOF 3
