REMARK  Name = ZINC01025514
REMARK                            x       y       z     vdW  Elec       q    Type
REMARK                         _______ _______ _______ _____ _____    ______ ____
ROOT
ATOM      1  S   LIG    1       -3.696  -0.595  -1.445  0.00  0.00    +0.058 S 
ATOM      2  O   LIG    1       -3.545  -2.008  -1.445  0.00  0.00    -0.153 OA
ATOM      3  O   LIG    1       -4.166   0.121  -2.579  0.00  0.00    -0.153 OA
ENDROOT
BRANCH   1   4
ATOM      4  C   LIG    1       -4.785  -0.205  -0.116  0.00  0.00    +0.106 A 
ATOM      5  C   LIG    1       -4.908  -1.075   0.956  0.00  0.00    +0.032 A 
ATOM      6  C   LIG    1       -5.756  -0.784   2.003  0.00  0.00    +0.049 A 
ATOM      7  C   LIG    1       -6.497   0.392   1.993  0.00  0.00    +0.136 A 
ATOM      8  C   LIG    1       -6.370   1.271   0.909  0.00  0.00    +0.030 A 
ATOM      9  C   LIG    1       -7.274   2.400   1.201  0.00  0.00    +0.028 A 
ATOM     10  C   LIG    1       -7.600   3.575   0.534  0.00  0.00    +0.012 A 
ATOM     11  C   LIG    1       -8.509   4.449   1.091  0.00  0.00    +0.001 A 
ATOM     12  C   LIG    1       -9.097   4.157   2.312  0.00  0.00    +0.004 A 
ATOM     13  C   LIG    1       -8.780   2.994   2.983  0.00  0.00    +0.047 A 
ATOM     14  C   LIG    1       -7.866   2.101   2.436  0.00  0.00    +0.136 A 
ATOM     15  O   LIG    1       -7.384   0.915   2.868  0.00  0.00    -0.455 OA
ATOM     16  C   LIG    1       -5.508   0.969  -0.140  0.00  0.00    +0.040 A 
ENDBRANCH   1   4
BRANCH   1  17
ATOM     17  N   LIG    1       -2.214   0.039  -1.066  0.00  0.00    -0.189 NA
ATOM     18  H   LIG    1       -1.838   0.751  -1.607  0.00  0.00    +0.148 HD
BRANCH  17  19
ATOM     19  C   LIG    1       -1.470  -0.475   0.086  0.00  0.00    +0.112 C 
BRANCH  19  21
ATOM     20  C   LIG    1       -0.019   1.526   0.010  0.00  0.00    +0.012 C 
ATOM     21  C   LIG    1        0.002  -0.004   0.002  0.00  0.00    -0.015 C 
ATOM     22  C   LIG    1        0.571  -0.525  -1.310  0.00  0.00    +0.039 C 
ATOM     23  C   LIG    1        2.083  -0.375  -1.389  0.00  0.00    +0.116 C 
ATOM     24  C   LIG    1        2.754  -1.071  -0.214  0.00  0.00    +0.037 C 
ATOM     25  C   LIG    1        2.242  -0.574   1.130  0.00  0.00    -0.032 C 
ATOM     26  C   LIG    1        2.756  -1.555   2.211  0.00  0.00    +0.011 C 
ATOM     27  C   LIG    1        2.836   0.799   1.457  0.00  0.00    +0.011 C 
ATOM     28  C   LIG    1        0.728  -0.550   1.217  0.00  0.00    +0.014 C 
BRANCH  23  29
ATOM     29  O   LIG    1        2.471   0.991  -1.479  0.00  0.00    -0.392 OA
ATOM     30  H   LIG    1        3.428   1.126  -1.531  0.00  0.00    +0.210 HD
ENDBRANCH  23  29
ENDBRANCH  19  21
ENDBRANCH  17  19
ENDBRANCH   1  17
TORSDOF 5
