REMARK  Name = ZINC01383539
REMARK                            x       y       z     vdW  Elec       q    Type
REMARK                         _______ _______ _______ _____ _____    ______ ____
ROOT
ATOM      1  C   LIG    1        0.193  11.873   0.064  0.00  0.00    +0.001 A 
ATOM      2  C   LIG    1       -1.166  12.121   0.078  0.00  0.00    +0.001 A 
ATOM      3  C   LIG    1       -2.067  11.069   0.080  0.00  0.00    +0.012 A 
ATOM      4  C   LIG    1       -1.603   9.759   0.068  0.00  0.00    +0.032 A 
ATOM      5  C   LIG    1       -0.220   9.506   0.054  0.00  0.00    +0.014 A 
ATOM      6  C   LIG    1       -0.004   8.036   0.044  0.00  0.00    +0.105 A 
ATOM      7  C   LIG    1       -1.260   7.402   0.052  0.00  0.00    +0.052 A 
ATOM      8  C   LIG    1       -1.302   6.015   0.045  0.00  0.00    +0.044 A 
ATOM      9  C   LIG    1       -0.076   5.330   0.030  0.00  0.00    +0.094 A 
ATOM     10  N   LIG    1        1.060   6.015   0.029  0.00  0.00    -0.149 NA
ATOM     11  N   LIG    1        1.097   7.297   0.030  0.00  0.00    -0.148 NA
ATOM     12  C   LIG    1       -2.304   8.453   0.068  0.00  0.00    +0.196 C 
ATOM     13  O   LIG    1       -3.506   8.277   0.078  0.00  0.00    -0.287 OA
ATOM     14  C   LIG    1        0.669  10.572   0.052  0.00  0.00    +0.011 A 
ENDROOT
BRANCH   9  15
ATOM     15  C   LIG    1       -0.051   3.848   0.022  0.00  0.00    +0.006 A 
ATOM     16  C   LIG    1       -1.246   3.128   0.030  0.00  0.00    +0.010 A 
ATOM     17  C   LIG    1       -1.220   1.749   0.017  0.00  0.00    +0.004 A 
ATOM     18  C   LIG    1       -0.013   1.076   0.008  0.00  0.00    +0.045 A 
ATOM     19  C   LIG    1        1.181   1.784   0.000  0.00  0.00    +0.117 A 
ATOM     20  C   LIG    1        1.165   3.169   0.007  0.00  0.00    +0.055 A 
BRANCH  19  21
ATOM     21  O   LIG    1        2.366   1.118  -0.014  0.00  0.00    -0.507 OA
ATOM     22  H   LIG    1        2.701   0.930  -0.901  0.00  0.00    +0.292 HD
ENDBRANCH  19  21
ENDBRANCH   9  15
TORSDOF 2
