REMARK  Name = ZINC00975865
REMARK                            x       y       z     vdW  Elec       q    Type
REMARK                         _______ _______ _______ _____ _____    ______ ____
ROOT
ATOM      1  C   LIG    1       -0.117   6.670  -0.245  0.00  0.00    +0.162 A 
ATOM      2  C   LIG    1       -1.450   6.288  -0.228  0.00  0.00    +0.049 A 
ATOM      3  C   LIG    1       -1.794   4.949  -0.135  0.00  0.00    +0.004 A 
ATOM      4  C   LIG    1       -0.816   3.982  -0.065  0.00  0.00    +0.012 A 
ATOM      5  C   LIG    1        0.535   4.351  -0.076  0.00  0.00    +0.021 A 
ATOM      6  C   LIG    1        0.882   5.707  -0.170  0.00  0.00    +0.166 A 
ENDROOT
BRANCH   5   7
ATOM      7  C   LIG    1        1.581   3.325   0.004  0.00  0.00    +0.032 C 
ATOM      8  C   LIG    1        1.457   2.172  -0.702  0.00  0.00    +0.080 C 
ATOM      9  C   LIG    1        0.454   1.794  -1.717  0.00  0.00    +0.258 C 
ATOM     10  N   LIG    1        0.575   0.590  -2.251  0.00  0.00    -0.243 N 
ATOM     11  H   LIG    1       -0.064   0.302  -2.922  0.00  0.00    +0.159 HD
ATOM     12  C   LIG    1        1.568  -0.246  -1.885  0.00  0.00    +0.283 C 
ATOM     13  O   LIG    1        1.798  -1.369  -2.290  0.00  0.00    -0.262 OA
ATOM     14  O   LIG    1       -0.438   2.553  -2.048  0.00  0.00    -0.269 OA
ATOM     15  S   LIG    1        2.465   0.696  -0.661  0.00  0.00    -0.026 S 
ENDBRANCH   5   7
BRANCH   6  16
ATOM     16  O   LIG    1        2.189   6.078  -0.186  0.00  0.00    -0.503 OA
ATOM     17  H   LIG    1        2.574   6.122  -1.071  0.00  0.00    +0.292 HD
ENDBRANCH   6  16
BRANCH   1  18
ATOM     18  O   LIG    1        0.211   7.986  -0.336  0.00  0.00    -0.489 OA
BRANCH  18  20
ATOM     19  C   LIG    1       -0.306  10.341  -0.507  0.00  0.00    +0.048 C 
ATOM     20  C   LIG    1       -0.867   8.921  -0.410  0.00  0.00    +0.226 C 
ENDBRANCH  18  20
ENDBRANCH   1  18
TORSDOF 4
