REMARK  Name = ZINC00822426
REMARK                            x       y       z     vdW  Elec       q    Type
REMARK                         _______ _______ _______ _____ _____    ______ ____
ROOT
ATOM      1  N   LIG    1        2.096  -4.771  -1.017  0.00  0.00    -0.189 N 
ATOM      2  C   LIG    1        2.851  -4.796  -2.198  0.00  0.00    +0.073 A 
ATOM      3  C   LIG    1        2.290  -5.203  -3.396  0.00  0.00    +0.026 A 
ATOM      4  C   LIG    1        3.063  -5.221  -4.544  0.00  0.00    +0.002 A 
ATOM      5  C   LIG    1        4.389  -4.834  -4.495  0.00  0.00    +0.002 A 
ATOM      6  C   LIG    1        4.955  -4.426  -3.301  0.00  0.00    +0.025 A 
ATOM      7  C   LIG    1        4.189  -4.402  -2.147  0.00  0.00    +0.056 A 
ATOM      8  N   LIG    1        4.739  -3.981  -0.931  0.00  0.00    -0.282 N 
ATOM      9  H   LIG    1        5.591  -3.516  -0.924  0.00  0.00    +0.155 HD
ATOM     10  C   LIG    1        4.099  -4.215   0.231  0.00  0.00    +0.240 C 
ATOM     11  O   LIG    1        4.572  -3.803   1.269  0.00  0.00    -0.273 OA
ATOM     12  C   LIG    1        2.803  -4.976   0.256  0.00  0.00    +0.192 C 
ENDROOT
BRANCH   1  13
ATOM     13  S   LIG    1        0.461  -4.513  -1.054  0.00  0.00    +0.076 S 
ATOM     14  O   LIG    1       -0.072  -5.415  -2.014  0.00  0.00    -0.150 OA
ATOM     15  O   LIG    1        0.022  -4.492   0.298  0.00  0.00    -0.150 OA
BRANCH  13  21
ATOM     16  C   LIG    1       -0.421   1.043  -3.235  0.00  0.00    +0.044 C 
ATOM     17  C   LIG    1       -0.201  -0.344  -2.690  0.00  0.00    -0.050 A 
ATOM     18  C   LIG    1       -0.873  -1.419  -3.243  0.00  0.00    +0.008 A 
ATOM     19  C   LIG    1       -0.671  -2.692  -2.743  0.00  0.00    -0.023 A 
ATOM     20  C   LIG    1       -1.405  -3.862  -3.345  0.00  0.00    +0.046 C 
ATOM     21  C   LIG    1        0.204  -2.890  -1.691  0.00  0.00    +0.115 A 
ATOM     22  C   LIG    1        0.877  -1.817  -1.139  0.00  0.00    -0.023 A 
ATOM     23  C   LIG    1        1.830  -2.033   0.007  0.00  0.00    +0.046 C 
ATOM     24  C   LIG    1        0.678  -0.544  -1.642  0.00  0.00    +0.008 A 
ENDBRANCH  13  21
ENDBRANCH   1  13
BRANCH  12  25
ATOM     25  C   LIG    1        3.094  -6.466   0.446  0.00  0.00    +0.129 C 
BRANCH  25  26
ATOM     26  C   LIG    1        1.797  -7.212   0.628  0.00  0.00    +0.220 C 
ATOM     27  N   LIG    1        1.811  -8.533   0.894  0.00  0.00    -0.283 N 
ATOM     28  H   LIG    1        2.654  -8.990   1.036  0.00  0.00    +0.155 HD
ATOM     29  O   LIG    1        0.741  -6.623   0.534  0.00  0.00    -0.275 OA
BRANCH  27  30
ATOM     30  C   LIG    1        0.606  -9.246   0.965  0.00  0.00    +0.076 A 
ATOM     31  C   LIG    1       -0.570  -8.593   1.305  0.00  0.00    +0.027 A 
ATOM     32  C   LIG    1       -1.756  -9.298   1.374  0.00  0.00    +0.002 A 
ATOM     33  C   LIG    1       -1.775 -10.654   1.105  0.00  0.00    +0.004 A 
ATOM     34  C   LIG    1       -0.607 -11.312   0.766  0.00  0.00    +0.047 A 
ATOM     35  C   LIG    1        0.586 -10.611   0.689  0.00  0.00    +0.141 A 
BRANCH  35  36
ATOM     36  O   LIG    1        1.734 -11.255   0.350  0.00  0.00    -0.493 OA
ATOM     37  C   LIG    1        1.637 -12.655   0.081  0.00  0.00    +0.277 C 
ENDBRANCH  35  36
ENDBRANCH  27  30
ENDBRANCH  25  26
ENDBRANCH  12  25
TORSDOF 6
