REMARK  Name = ZINC01025513
REMARK                            x       y       z     vdW  Elec       q    Type
REMARK                         _______ _______ _______ _____ _____    ______ ____
ROOT
ATOM      1  S   LIG    1        0.901   0.073  -3.908  0.00  0.00    +0.058 S 
ATOM      2  O   LIG    1        2.175   0.656  -3.674  0.00  0.00    -0.153 OA
ATOM      3  O   LIG    1       -0.012   0.596  -4.863  0.00  0.00    -0.153 OA
ENDROOT
BRANCH   1   4
ATOM      4  C   LIG    1        1.189  -1.607  -4.353  0.00  0.00    +0.106 A 
ATOM      5  C   LIG    1        2.354  -2.239  -3.949  0.00  0.00    +0.032 A 
ATOM      6  C   LIG    1        2.593  -3.554  -4.290  0.00  0.00    +0.049 A 
ATOM      7  C   LIG    1        1.663  -4.258  -5.045  0.00  0.00    +0.136 A 
ATOM      8  C   LIG    1        0.485  -3.616  -5.451  0.00  0.00    +0.030 A 
ATOM      9  C   LIG    1       -0.272  -4.622  -6.221  0.00  0.00    +0.028 A 
ATOM     10  C   LIG    1       -1.497  -4.613  -6.880  0.00  0.00    +0.012 A 
ATOM     11  C   LIG    1       -1.935  -5.750  -7.525  0.00  0.00    +0.001 A 
ATOM     12  C   LIG    1       -1.158  -6.898  -7.516  0.00  0.00    +0.004 A 
ATOM     13  C   LIG    1        0.058  -6.918  -6.866  0.00  0.00    +0.047 A 
ATOM     14  C   LIG    1        0.516  -5.780  -6.210  0.00  0.00    +0.136 A 
ATOM     15  O   LIG    1        1.643  -5.527  -5.510  0.00  0.00    -0.455 OA
ATOM     16  C   LIG    1        0.251  -2.292  -5.097  0.00  0.00    +0.040 A 
ENDBRANCH   1   4
BRANCH   1  17
ATOM     17  N   LIG    1        0.110   0.066  -2.453  0.00  0.00    -0.189 NA
ATOM     18  H   LIG    1       -0.799   0.400  -2.393  0.00  0.00    +0.148 HD
BRANCH  17  19
ATOM     19  C   LIG    1        0.782  -0.446  -1.256  0.00  0.00    +0.112 C 
BRANCH  19  21
ATOM     20  C   LIG    1       -0.019   1.527   0.010  0.00  0.00    +0.012 C 
ATOM     21  C   LIG    1        0.002  -0.004   0.002  0.00  0.00    -0.015 C 
ATOM     22  C   LIG    1       -1.418  -0.544  -0.123  0.00  0.00    +0.039 C 
ATOM     23  C   LIG    1       -2.191  -0.343   1.179  0.00  0.00    +0.116 C 
ATOM     24  C   LIG    1       -1.490  -1.119   2.293  0.00  0.00    +0.037 C 
ATOM     25  C   LIG    1       -0.073  -0.599   2.505  0.00  0.00    -0.032 C 
ATOM     26  C   LIG    1       -0.114   0.773   3.185  0.00  0.00    +0.011 C 
ATOM     27  C   LIG    1        0.641  -1.570   3.472  0.00  0.00    +0.011 C 
ATOM     28  C   LIG    1        0.729  -0.547   1.218  0.00  0.00    +0.014 C 
BRANCH  23  29
ATOM     29  O   LIG    1       -3.520  -0.853   1.018  0.00  0.00    -0.392 OA
ATOM     30  H   LIG    1       -4.075  -0.761   1.805  0.00  0.00    +0.210 HD
ENDBRANCH  23  29
ENDBRANCH  19  21
ENDBRANCH  17  19
ENDBRANCH   1  17
TORSDOF 5
