REMARK  Name = ZINC01199578
REMARK                            x       y       z     vdW  Elec       q    Type
REMARK                         _______ _______ _______ _____ _____    ______ ____
ROOT
ATOM      1  C   LIG    1        4.945   1.050  -0.161  0.00  0.00    +0.139 C 
ATOM      2  N   LIG    1        3.615   1.647  -0.297  0.00  0.00    -0.258 N 
ATOM      3  C   LIG    1        2.547   0.913  -0.033  0.00  0.00    +0.258 C 
ATOM      4  C   LIG    1        1.235   1.573  -0.189  0.00  0.00    +0.077 C 
ATOM      5  S   LIG    1        1.742   3.204  -0.716  0.00  0.00    -0.061 S 
ATOM      6  C   LIG    1       -0.013   1.076   0.008  0.00  0.00    +0.028 C 
ATOM      7  O   LIG    1        2.640  -0.248   0.319  0.00  0.00    -0.269 OA
ATOM      8  C   LIG    1        3.506   2.933  -0.688  0.00  0.00    +0.120 C 
ATOM      9  S   LIG    1        4.758   4.037  -1.070  0.00  0.00    -0.027 S 
ENDROOT
BRANCH   6  10
ATOM     10  C   LIG    1       -1.177   1.968  -0.054  0.00  0.00    -0.024 A 
ATOM     11  C   LIG    1       -0.996   3.355  -0.133  0.00  0.00    +0.011 A 
ATOM     12  C   LIG    1       -2.091   4.187  -0.195  0.00  0.00    +0.046 A 
ATOM     13  C   LIG    1       -3.375   3.654  -0.170  0.00  0.00    +0.120 A 
ATOM     14  C   LIG    1       -3.560   2.279  -0.087  0.00  0.00    +0.046 A 
ATOM     15  C   LIG    1       -2.472   1.437  -0.029  0.00  0.00    +0.011 A 
BRANCH  13  16
ATOM     16  O   LIG    1       -4.451   4.479  -0.227  0.00  0.00    -0.495 OA
ATOM     17  C   LIG    1       -4.190   5.881  -0.311  0.00  0.00    +0.277 C 
ENDBRANCH  13  16
ENDBRANCH   6  10
TORSDOF 2
