REMARK  Name = ZINC00897085
REMARK                            x       y       z     vdW  Elec       q    Type
REMARK                         _______ _______ _______ _____ _____    ______ ____
ROOT
ATOM      1  C   LIG    1       -0.017   1.389   0.010  0.00  0.00    +0.001 A 
ATOM      2  C   LIG    1        1.142   2.103   0.002  0.00  0.00    +0.010 A 
ATOM      3  C   LIG    1        2.373   1.428  -0.013  0.00  0.00    +0.007 A 
ATOM      4  C   LIG    1        3.594   2.130  -0.020  0.00  0.00    -0.010 A 
ATOM      5  C   LIG    1        4.752   1.407  -0.035  0.00  0.00    +0.039 A 
ATOM      6  C   LIG    1        4.703   0.014  -0.042  0.00  0.00    +0.145 A 
ATOM      7  N   LIG    1        3.565  -0.636  -0.035  0.00  0.00    -0.242 NA
ATOM      8  C   LIG    1        2.395   0.011  -0.021  0.00  0.00    +0.084 A 
ATOM      9  C   LIG    1        1.177  -0.691  -0.013  0.00  0.00    +0.081 A 
ATOM     10  C   LIG    1        0.002  -0.004   0.002  0.00  0.00    +0.014 A 
ENDROOT
BRANCH   6  11
ATOM     11  C   LIG    1        5.992  -0.765  -0.059  0.00  0.00    +0.434 C 
ATOM     12  F   LIG    1        6.976  -0.025  -0.724  0.00  0.00    -0.164 F 
ATOM     13  F   LIG    1        5.794  -1.981  -0.723  0.00  0.00    -0.164 F 
ATOM     14  F   LIG    1        6.404  -1.014   1.255  0.00  0.00    -0.164 F 
ENDBRANCH   6  11
BRANCH   9  15
ATOM     15  C   LIG    1        1.173  -2.197  -0.022  0.00  0.00    +0.419 C 
ATOM     16  F   LIG    1        1.842  -2.672   1.111  0.00  0.00    -0.166 F 
ATOM     17  F   LIG    1        1.820  -2.659  -1.174  0.00  0.00    -0.166 F 
ATOM     18  F   LIG    1       -0.147  -2.660  -0.013  0.00  0.00    -0.166 F 
ENDBRANCH   9  15
BRANCH   4  19
ATOM     19  C   LIG    1        3.622   3.636  -0.013  0.00  0.00    +0.131 C 
BRANCH  19  20
ATOM     20  C   LIG    1        3.518   4.141   1.428  0.00  0.00    -0.038 C 
ATOM     21  C   LIG    1        4.760   3.708   2.210  0.00  0.00    -0.013 C 
ATOM     22  C   LIG    1        4.652   4.215   3.651  0.00  0.00    -0.003 C 
ATOM     23  C   LIG    1        4.478   5.737   3.635  0.00  0.00    -0.019 C 
ATOM     24  C   LIG    1        3.246   6.095   2.800  0.00  0.00    -0.082 C 
ATOM     25  N   LIG    1        3.423   5.606   1.427  0.00  0.00    +0.383 N 
ATOM     26  H   LIG    1        2.634   5.890   0.866  0.00  0.00    -0.085 HD
ATOM     27  H   LIG    1        4.268   5.997   1.038  0.00  0.00    -0.085 HD
ENDBRANCH  19  20
BRANCH  19  28
ATOM     28  O   LIG    1        4.846   4.093  -0.591  0.00  0.00    -0.389 OA
ATOM     29  H   LIG    1        5.638   3.791  -0.125  0.00  0.00    +0.210 HD
ENDBRANCH  19  28
ENDBRANCH   4  19
TORSDOF 5
