REMARK  Name = ZINC00895212
REMARK                            x       y       z     vdW  Elec       q    Type
REMARK                         _______ _______ _______ _____ _____    ______ ____
ROOT
ATOM      1  C   LIG    1        1.235   3.094   0.007  0.00  0.00    +0.240 C 
ENDROOT
BRANCH   1   2
ATOM      2  C   LIG    1        2.674   3.541  -0.004  0.00  0.00    +0.316 C 
ATOM      3  O   LIG    1        3.561   2.721  -0.017  0.00  0.00    -0.250 OA
BRANCH   2   4
ATOM      4  O   LIG    1        2.970   4.850  -0.000  0.00  0.00    -0.480 OA
ATOM      5  H   LIG    1        2.282   5.486   0.010  0.00  0.00    +0.295 HD
ENDBRANCH   2   4
ENDBRANCH   1   2
BRANCH   1   6
ATOM      6  C   LIG    1        1.177   1.588  -0.001  0.00  0.00    +0.316 C 
ATOM      7  O   LIG    1        2.199   0.944  -0.014  0.00  0.00    -0.250 OA
BRANCH   6   8
ATOM      8  O   LIG    1       -0.011   0.963   0.007  0.00  0.00    -0.480 OA
ATOM      9  H   LIG    1       -0.804   1.462   0.018  0.00  0.00    +0.295 HD
ENDBRANCH   6   8
ENDBRANCH   1   6
TORSDOF 4
