REMARK  Name = ZINC00840972
REMARK                            x       y       z     vdW  Elec       q    Type
REMARK                         _______ _______ _______ _____ _____    ______ ____
ROOT
ATOM      1  C   LIG    1        2.463  -4.716   1.048  0.00  0.00    +0.098 A 
ATOM      2  C   LIG    1        3.807  -5.024   1.210  0.00  0.00    +0.069 A 
ATOM      3  C   LIG    1        4.419  -4.607   2.452  0.00  0.00    -0.026 A 
ATOM      4  C   LIG    1        5.870  -4.876   2.760  0.00  0.00    +0.045 C 
ATOM      5  C   LIG    1        3.614  -3.963   3.316  0.00  0.00    -0.000 A 
ATOM      6  S   LIG    1        2.053  -3.914   2.463  0.00  0.00    -0.076 S 
ENDROOT
BRANCH   2   7
ATOM      7  C   LIG    1        4.565  -5.734   0.178  0.00  0.00    +0.244 C 
ATOM      8  N   LIG    1        4.621  -7.081   0.190  0.00  0.00    -0.325 N 
ATOM      9  H   LIG    1        5.123  -7.551  -0.494  0.00  0.00    +0.145 HD
ATOM     10  H   LIG    1        4.160  -7.579   0.882  0.00  0.00    +0.145 HD
ATOM     11  O   LIG    1        5.145  -5.109  -0.691  0.00  0.00    -0.270 OA
ENDBRANCH   2   7
BRANCH   1  12
ATOM     12  N   LIG    1        1.651  -4.999  -0.034  0.00  0.00    -0.209 N 
ATOM     13  H   LIG    1        2.011  -5.473  -0.800  0.00  0.00    +0.174 HD
BRANCH  12  14
ATOM     14  S   LIG    1        0.063  -4.530  -0.023  0.00  0.00    +0.073 S 
ATOM     15  O   LIG    1       -0.490  -4.937  -1.267  0.00  0.00    -0.150 OA
ATOM     16  O   LIG    1       -0.476  -4.950   1.223  0.00  0.00    -0.150 OA
BRANCH  14  21
ATOM     17  C   LIG    1       -0.018   1.503   0.010  0.00  0.00    +0.044 C 
ATOM     18  C   LIG    1        0.002  -0.004   0.002  0.00  0.00    -0.050 A 
ATOM     19  C   LIG    1        0.006  -0.689  -1.199  0.00  0.00    +0.005 A 
ATOM     20  C   LIG    1        0.025  -2.071  -1.206  0.00  0.00    +0.029 A 
ATOM     21  C   LIG    1        0.040  -2.768  -0.013  0.00  0.00    +0.109 A 
ATOM     22  C   LIG    1        0.037  -2.084   1.188  0.00  0.00    +0.029 A 
ATOM     23  C   LIG    1        0.023  -0.702   1.195  0.00  0.00    +0.005 A 
ENDBRANCH  14  21
ENDBRANCH  12  14
ENDBRANCH   1  12
BRANCH   5  24
ATOM     24  C   LIG    1        3.953  -3.412   4.676  0.00  0.00    +0.077 C 
BRANCH  24  25
ATOM     25  C   LIG    1        4.422  -1.986   4.537  0.00  0.00    -0.043 A 
ATOM     26  C   LIG    1        5.764  -1.716   4.342  0.00  0.00    +0.004 A 
ATOM     27  C   LIG    1        6.194  -0.408   4.215  0.00  0.00    +0.000 A 
ATOM     28  C   LIG    1        5.283   0.629   4.282  0.00  0.00    +0.000 A 
ATOM     29  C   LIG    1        3.941   0.358   4.476  0.00  0.00    +0.000 A 
ATOM     30  C   LIG    1        3.510  -0.949   4.600  0.00  0.00    +0.004 A 
ENDBRANCH  24  25
ENDBRANCH   5  24
TORSDOF 6
