REMARK  Name = ZINC01280587
REMARK                            x       y       z     vdW  Elec       q    Type
REMARK                         _______ _______ _______ _____ _____    ______ ____
ROOT
ATOM      1  C   LIG    1        5.998   2.516  -0.041  0.00  0.00    +0.001 A 
ATOM      2  C   LIG    1        5.843   3.896  -0.033  0.00  0.00    +0.004 A 
ATOM      3  C   LIG    1        4.587   4.462  -0.019  0.00  0.00    +0.047 A 
ATOM      4  C   LIG    1        3.457   3.650  -0.012  0.00  0.00    +0.138 A 
ATOM      5  C   LIG    1        3.617   2.251  -0.021  0.00  0.00    +0.018 A 
ATOM      6  C   LIG    1        2.478   1.406  -0.014  0.00  0.00    +0.030 A 
ATOM      7  C   LIG    1        1.230   1.997   0.001  0.00  0.00    +0.102 A 
ATOM      8  C   LIG    1       -0.014   1.212   0.009  0.00  0.00    +0.265 A 
ATOM      9  N   LIG    1       -1.179   1.903   0.018  0.00  0.00    -0.273 N 
ATOM     10  C   LIG    1       -1.188   3.244   0.030  0.00  0.00    +0.352 A 
ATOM     11  N   LIG    1       -0.090   3.996   0.023  0.00  0.00    -0.157 NA
ATOM     12  O   LIG    1       -2.267   3.808   0.042  0.00  0.00    -0.245 OA
ATOM     13  H   LIG    1       -2.020   1.420   0.019  0.00  0.00    +0.174 HD
ATOM     14  O   LIG    1        0.002  -0.004   0.002  0.00  0.00    -0.267 OA
ATOM     15  C   LIG    1        1.119   3.459   0.009  0.00  0.00    +0.237 A 
ATOM     16  O   LIG    1        2.229   4.213   0.002  0.00  0.00    -0.437 OA
ATOM     17  C   LIG    1        4.907   1.697  -0.036  0.00  0.00    +0.011 A 
ENDROOT
TORSDOF 0
