REMARK  Name = ZINC00974070
REMARK                            x       y       z     vdW  Elec       q    Type
REMARK                         _______ _______ _______ _____ _____    ______ ____
ROOT
ATOM      1  C   LIG    1        3.542   2.251  -0.238  0.00  0.00    +0.166 A 
ATOM      2  C   LIG    1        2.447   1.428  -0.053  0.00  0.00    +0.057 A 
ATOM      3  C   LIG    1        1.153   1.947  -0.187  0.00  0.00    -0.017 A 
ATOM      4  C   LIG    1        0.975   3.296  -0.514  0.00  0.00    +0.057 A 
ATOM      5  C   LIG    1        2.075   4.114  -0.691  0.00  0.00    +0.166 A 
ATOM      6  C   LIG    1        3.360   3.594  -0.557  0.00  0.00    +0.201 A 
ENDROOT
BRANCH   3   7
ATOM      7  C   LIG    1       -0.013   1.076   0.008  0.00  0.00    +0.028 C 
ATOM      8  C   LIG    1       -1.111   1.547   0.651  0.00  0.00    +0.080 C 
ATOM      9  C   LIG    1       -1.305   2.819   1.375  0.00  0.00    +0.258 C 
ATOM     10  N   LIG    1       -2.498   3.022   1.908  0.00  0.00    -0.243 N 
ATOM     11  H   LIG    1       -2.668   3.847   2.389  0.00  0.00    +0.159 HD
ATOM     12  C   LIG    1       -3.481   2.104   1.805  0.00  0.00    +0.283 C 
ATOM     13  O   LIG    1       -4.613   2.157   2.248  0.00  0.00    -0.262 OA
ATOM     14  O   LIG    1       -0.413   3.642   1.471  0.00  0.00    -0.269 OA
ATOM     15  S   LIG    1       -2.719   0.794   0.861  0.00  0.00    -0.026 S 
ENDBRANCH   3   7
BRANCH   1  17
ATOM     16  C   LIG    1        4.912   0.362   0.221  0.00  0.00    +0.277 C 
ATOM     17  O   LIG    1        4.799   1.748  -0.108  0.00  0.00    -0.491 OA
ENDBRANCH   1  17
BRANCH   5  18
ATOM     18  O   LIG    1        1.902   5.426  -1.003  0.00  0.00    -0.491 OA
ATOM     19  C   LIG    1        0.557   5.893  -1.125  0.00  0.00    +0.277 C 
ENDBRANCH   5  18
BRANCH   6  20
ATOM     20  O   LIG    1        4.439   4.400  -0.739  0.00  0.00    -0.501 OA
ATOM     21  H   LIG    1        4.759   4.430  -1.651  0.00  0.00    +0.292 HD
ENDBRANCH   6  20
TORSDOF 4
