REMARK  Name = ZINC00996570
REMARK                            x       y       z     vdW  Elec       q    Type
REMARK                         _______ _______ _______ _____ _____    ______ ____
ROOT
ATOM      1  N   LIG    1        2.123  -2.424   1.435  0.00  0.00    -0.281 N 
ATOM      2  H   LIG    1        1.575  -2.167   0.677  0.00  0.00    +0.155 HD
ATOM      3  C   LIG    1        2.517  -1.493   2.327  0.00  0.00    +0.254 C 
ATOM      4  O   LIG    1        3.281  -1.796   3.224  0.00  0.00    -0.270 OA
ENDROOT
BRANCH   1   8
ATOM      5  C   LIG    1        3.259  -6.405   1.934  0.00  0.00    +0.030 A 
ATOM      6  C   LIG    1        3.039  -5.601   3.045  0.00  0.00    +0.025 A 
ATOM      7  C   LIG    1        2.662  -4.283   2.880  0.00  0.00    +0.025 A 
ATOM      8  C   LIG    1        2.504  -3.761   1.603  0.00  0.00    +0.034 A 
ATOM      9  C   LIG    1        2.719  -4.566   0.492  0.00  0.00    +0.025 A 
ATOM     10  C   LIG    1        3.101  -5.883   0.657  0.00  0.00    +0.025 A 
BRANCH   5  11
ATOM     11  N   LIG    1        3.640  -7.740   2.101  0.00  0.00    -0.330 N 
BRANCH  11  13
ATOM     12  C   LIG    1        5.341  -8.488   0.511  0.00  0.00    +0.024 C 
ATOM     13  C   LIG    1        3.873  -8.588   0.929  0.00  0.00    +0.102 C 
ENDBRANCH  11  13
BRANCH  11  14
ATOM     14  C   LIG    1        3.808  -8.291   3.449  0.00  0.00    +0.102 C 
ATOM     15  C   LIG    1        2.479  -8.878   3.928  0.00  0.00    +0.024 C 
ENDBRANCH  11  14
ENDBRANCH   5  11
ENDBRANCH   1   8
BRANCH   3  16
ATOM     16  C   LIG    1        2.023  -0.111   2.216  0.00  0.00    +0.106 A 
ATOM     17  C   LIG    1        0.956   0.471   2.854  0.00  0.00    +0.147 A 
ATOM     18  C   LIG    1        0.025  -0.190   3.838  0.00  0.00    +0.090 C 
ATOM     19  O   LIG    1        0.904   1.736   2.433  0.00  0.00    -0.359 OA
ATOM     20  N   LIG    1        1.771   2.014   1.641  0.00  0.00    -0.077 NA
ATOM     21  C   LIG    1        2.553   0.994   1.390  0.00  0.00    +0.127 A 
BRANCH  21  22
ATOM     22  C   LIG    1        3.719   0.957   0.475  0.00  0.00    +0.023 A 
ATOM     23  C   LIG    1        4.924   0.399   0.900  0.00  0.00    +0.011 A 
ATOM     24  C   LIG    1        6.006   0.366   0.044  0.00  0.00    +0.001 A 
ATOM     25  C   LIG    1        5.897   0.885  -1.234  0.00  0.00    +0.001 A 
ATOM     26  C   LIG    1        4.705   1.439  -1.662  0.00  0.00    +0.020 A 
ATOM     27  C   LIG    1        3.613   1.473  -0.816  0.00  0.00    +0.050 A 
ATOM     28 CL   LIG    1        2.115   2.163  -1.357  0.00  0.00    -0.083 Cl
ENDBRANCH  21  22
ENDBRANCH   3  16
TORSDOF 6
