REMARK  Name = ZINC00896998
REMARK                            x       y       z     vdW  Elec       q    Type
REMARK                         _______ _______ _______ _____ _____    ______ ____
ROOT
ATOM      1  C   LIG    1       -0.387   3.081   5.092  0.00  0.00    +0.204 C 
ATOM      2  N   LIG    1       -0.865   3.114   6.352  0.00  0.00    -0.286 N 
ATOM      3  H   LIG    1       -1.751   3.469   6.525  0.00  0.00    +0.155 HD
ATOM      4  O   LIG    1        0.696   2.582   4.867  0.00  0.00    -0.277 OA
ENDROOT
BRANCH   2   5
ATOM      5  C   LIG    1       -0.084   2.635   7.410  0.00  0.00    +0.039 A 
ATOM      6  C   LIG    1        0.388   1.329   7.390  0.00  0.00    -0.029 A 
ATOM      7  C   LIG    1        0.060   0.425   6.229  0.00  0.00    +0.045 C 
ATOM      8  C   LIG    1        1.163   0.861   8.433  0.00  0.00    +0.005 A 
ATOM      9  C   LIG    1        1.460   1.688   9.501  0.00  0.00    +0.001 A 
ATOM     10  C   LIG    1        0.986   2.987   9.526  0.00  0.00    +0.005 A 
ATOM     11  C   LIG    1        0.215   3.462   8.484  0.00  0.00    -0.029 A 
ATOM     12  C   LIG    1       -0.301   4.878   8.512  0.00  0.00    +0.045 C 
ENDBRANCH   2   5
BRANCH   1  13
ATOM     13  C   LIG    1       -1.196   3.665   3.963  0.00  0.00    +0.019 C 
BRANCH  13  14
ATOM     14  N   LIG    1       -0.585   3.252   2.682  0.00  0.00    +0.387 N 
ATOM     15  H   LIG    1       -0.228   2.294   2.776  0.00  0.00    -0.081 HD
BRANCH  14  16
ATOM     16  C   LIG    1       -1.598   3.284   1.606  0.00  0.00    -0.081 C 
ATOM     17  C   LIG    1       -2.542   2.092   1.784  0.00  0.00    -0.017 C 
ENDBRANCH  14  16
BRANCH  14  18
ATOM     18  C   LIG    1        0.538   4.153   2.345  0.00  0.00    -0.078 C 
BRANCH  18  20
ATOM     19  C   LIG    1        2.548   4.418   0.885  0.00  0.00    +0.002 C 
ATOM     20  C   LIG    1        1.368   3.508   1.233  0.00  0.00    -0.022 C 
ENDBRANCH  18  20
ENDBRANCH  14  18
ENDBRANCH  13  14
BRANCH  13  21
ATOM     21  C   LIG    1       -1.211   5.190   4.082  0.00  0.00    -0.010 C 
ATOM     22  C   LIG    1       -2.146   5.775   3.021  0.00  0.00    +0.002 C 
ENDBRANCH  13  21
ENDBRANCH   1  13
TORSDOF 7
