REMARK  Name = ZINC00827259
REMARK                            x       y       z     vdW  Elec       q    Type
REMARK                         _______ _______ _______ _____ _____    ______ ____
ROOT
ATOM      1  C   LIG    1       -2.898   0.520   2.058  0.00  0.00    +0.106 A 
ATOM      2  C   LIG    1       -2.213   1.396   2.882  0.00  0.00    +0.030 A 
ATOM      3  C   LIG    1       -2.836   2.531   3.367  0.00  0.00    +0.022 A 
ATOM      4  C   LIG    1       -4.149   2.798   3.031  0.00  0.00    +0.053 A 
ATOM      5 CL   LIG    1       -4.931   4.223   3.640  0.00  0.00    -0.083 Cl
ATOM      6  C   LIG    1       -4.846   1.918   2.198  0.00  0.00    +0.057 A 
ATOM      7  C   LIG    1       -4.207   0.777   1.709  0.00  0.00    +0.043 A 
ENDROOT
BRANCH   6   8
ATOM      8  C   LIG    1       -6.250   2.196   1.834  0.00  0.00    +0.250 C 
ATOM      9  N   LIG    1       -6.919   1.345   1.031  0.00  0.00    -0.275 N 
ATOM     10  H   LIG    1       -6.479   0.550   0.692  0.00  0.00    +0.156 HD
ATOM     11  O   LIG    1       -6.802   3.193   2.258  0.00  0.00    -0.270 OA
BRANCH   9  12
ATOM     12  C   LIG    1       -8.237   1.607   0.688  0.00  0.00    +0.090 A 
ATOM     13  C   LIG    1       -9.075   0.849  -0.113  0.00  0.00    +0.084 A 
ATOM     14  C   LIG    1      -10.425   1.344  -0.320  0.00  0.00    -0.018 A 
ATOM     15  C   LIG    1      -10.689   2.508   0.314  0.00  0.00    -0.004 A 
ATOM     16  C   LIG    1      -11.978   3.268   0.297  0.00  0.00    +0.043 C 
ATOM     17  C   LIG    1      -12.842   2.728  -0.852  0.00  0.00    +0.005 C 
ATOM     18  C   LIG    1      -12.856   1.198  -0.784  0.00  0.00    +0.005 C 
ATOM     19  C   LIG    1      -11.480   0.647  -1.165  0.00  0.00    +0.037 C 
ATOM     20  S   LIG    1       -9.186   2.910   1.156  0.00  0.00    -0.077 S 
BRANCH  13  21
ATOM     21  C   LIG    1       -8.629  -0.372  -0.714  0.00  0.00    +0.102 C 
ATOM     22  N   LIG    1       -8.275  -1.341  -1.191  0.00  0.00    -0.191 NA
ENDBRANCH  13  21
ENDBRANCH   9  12
ENDBRANCH   6   8
BRANCH   1  23
ATOM     23  S   LIG    1       -2.092  -0.923   1.446  0.00  0.00    +0.061 S 
ATOM     24  O   LIG    1       -1.043  -1.219   2.357  0.00  0.00    -0.153 OA
ATOM     25  O   LIG    1       -3.116  -1.857   1.133  0.00  0.00    -0.153 OA
BRANCH  23  26
ATOM     26  N   LIG    1       -1.372  -0.511   0.012  0.00  0.00    -0.177 NA
BRANCH  26  28
ATOM     27  C   LIG    1       -0.019   1.526   0.010  0.00  0.00    +0.022 C 
ATOM     28  C   LIG    1        0.002  -0.004   0.002  0.00  0.00    +0.106 C 
ENDBRANCH  26  28
BRANCH  26  29
ATOM     29  C   LIG    1       -2.110  -0.654  -1.245  0.00  0.00    +0.106 C 
ATOM     30  C   LIG    1       -1.773  -2.003  -1.884  0.00  0.00    +0.022 C 
ENDBRANCH  26  29
ENDBRANCH  23  26
ENDBRANCH   1  23
TORSDOF 7
