REMARK  Name = ZINC01239495
REMARK                            x       y       z     vdW  Elec       q    Type
REMARK                         _______ _______ _______ _____ _____    ______ ____
ROOT
ATOM      1  N   LIG    1        5.013  -6.269  -0.700  0.00  0.00    -0.255 N 
ATOM      2  C   LIG    1        4.581  -6.793  -1.835  0.00  0.00    +0.258 C 
ATOM      3  C   LIG    1        4.277  -8.240  -1.822  0.00  0.00    +0.077 C 
ATOM      4  S   LIG    1        4.669  -8.649  -0.127  0.00  0.00    -0.061 S 
ATOM      5  C   LIG    1        3.825  -9.037  -2.822  0.00  0.00    +0.028 C 
ATOM      6  O   LIG    1        4.441  -6.119  -2.838  0.00  0.00    -0.269 OA
ATOM      7  C   LIG    1        5.172  -7.022   0.408  0.00  0.00    +0.121 C 
ATOM      8  S   LIG    1        5.721  -6.533   1.954  0.00  0.00    -0.027 S 
ENDROOT
BRANCH   5   9
ATOM      9  C   LIG    1        3.749 -10.492  -2.624  0.00  0.00    -0.023 A 
ATOM     10  C   LIG    1        4.417 -11.092  -1.551  0.00  0.00    +0.008 A 
ATOM     11  C   LIG    1        4.337 -12.456  -1.369  0.00  0.00    +0.002 A 
ATOM     12  C   LIG    1        3.607 -13.234  -2.251  0.00  0.00    +0.015 A 
ATOM     13  C   LIG    1        2.947 -12.649  -3.319  0.00  0.00    +0.018 A 
ATOM     14 BR   LIG    1        1.953 -13.723  -4.516  0.00  0.00    -0.050 Br
ATOM     15  C   LIG    1        3.013 -11.284  -3.511  0.00  0.00    +0.023 A 
ENDBRANCH   5   9
BRANCH   1  16
ATOM     16  C   LIG    1        5.331  -4.840  -0.646  0.00  0.00    +0.124 C 
BRANCH  16  17
ATOM     17  C   LIG    1        4.082  -4.054  -0.244  0.00  0.00    +0.115 C 
BRANCH  17  20
ATOM     18  N   LIG    1        3.456  -1.693   0.146  0.00  0.00    -0.283 N 
ATOM     19  H   LIG    1        2.582  -2.003   0.432  0.00  0.00    +0.155 HD
ATOM     20  C   LIG    1        4.410  -2.584  -0.189  0.00  0.00    +0.219 C 
ATOM     21  O   LIG    1        5.532  -2.203  -0.446  0.00  0.00    -0.275 OA
BRANCH  18  26
ATOM     22  C   LIG    1        5.290   1.496   0.177  0.00  0.00    +0.002 A 
ATOM     23  C   LIG    1        4.263   2.395  -0.043  0.00  0.00    +0.004 A 
ATOM     24  C   LIG    1        2.966   1.943  -0.200  0.00  0.00    +0.047 A 
ATOM     25  C   LIG    1        2.692   0.586  -0.138  0.00  0.00    +0.138 A 
ATOM     26  C   LIG    1        3.727  -0.320   0.083  0.00  0.00    +0.075 A 
ATOM     27  C   LIG    1        5.026   0.141   0.240  0.00  0.00    +0.027 A 
BRANCH  25  28
ATOM     28  O   LIG    1        1.417   0.141  -0.292  0.00  0.00    -0.505 OA
ATOM     29  H   LIG    1        1.176  -0.054  -1.209  0.00  0.00    +0.292 HD
ENDBRANCH  25  28
ENDBRANCH  18  26
ENDBRANCH  17  20
ENDBRANCH  16  17
ENDBRANCH   1  16
TORSDOF 6
