REMARK  Name = ZINC00897469
REMARK                            x       y       z     vdW  Elec       q    Type
REMARK                         _______ _______ _______ _____ _____    ______ ____
ROOT
ATOM      1  C   LIG    1        5.008   5.631  -0.217  0.00  0.00    +0.004 A 
ATOM      2  C   LIG    1        6.278   6.098  -0.206  0.00  0.00    +0.056 A 
ATOM      3  S   LIG    1        7.261   4.618  -0.068  0.00  0.00    -0.076 S 
ATOM      4  C   LIG    1        5.956   3.416  -0.029  0.00  0.00    +0.117 A 
ATOM      5  N   LIG    1        5.918   2.092   0.063  0.00  0.00    -0.215 NA
ATOM      6  C   LIG    1        4.769   1.447   0.068  0.00  0.00    +0.178 A 
ATOM      7  N   LIG    1        3.585   2.124  -0.021  0.00  0.00    -0.255 N 
ATOM      8  C   LIG    1        3.556   3.466  -0.121  0.00  0.00    +0.268 A 
ATOM      9  O   LIG    1        2.492   4.056  -0.204  0.00  0.00    -0.267 OA
ATOM     10  C   LIG    1        4.787   4.191  -0.124  0.00  0.00    +0.080 A 
ENDROOT
BRANCH   1  14
ATOM     11  C   LIG    1        1.721   8.310  -0.518  0.00  0.00    +0.000 A 
ATOM     12  C   LIG    1        2.710   8.537   0.421  0.00  0.00    +0.001 A 
ATOM     13  C   LIG    1        3.780   7.670   0.524  0.00  0.00    +0.008 A 
ATOM     14  C   LIG    1        3.862   6.565  -0.322  0.00  0.00    -0.017 A 
ATOM     15  C   LIG    1        2.864   6.346  -1.272  0.00  0.00    +0.008 A 
ATOM     16  C   LIG    1        1.797   7.215  -1.361  0.00  0.00    +0.001 A 
ENDBRANCH   1  14
BRANCH   7  17
ATOM     17  C   LIG    1        2.381   1.409  -0.013  0.00  0.00    +0.052 A 
ATOM     18  C   LIG    1        1.826   0.968  -1.208  0.00  0.00    +0.026 A 
ATOM     19  C   LIG    1        0.638   0.263  -1.197  0.00  0.00    +0.002 A 
ATOM     20  C   LIG    1        0.002  -0.004   0.002  0.00  0.00    +0.000 A 
ATOM     21  C   LIG    1        0.552   0.434   1.192  0.00  0.00    +0.002 A 
ATOM     22  C   LIG    1        1.739   1.139   1.188  0.00  0.00    +0.026 A 
ENDBRANCH   7  17
BRANCH   6  23
ATOM     23  S   LIG    1        4.758  -0.311   0.191  0.00  0.00    -0.078 S 
BRANCH  23  24
ATOM     24  C   LIG    1        6.538  -0.630   0.276  0.00  0.00    +0.174 C 
BRANCH  24  25
ATOM     25  C   LIG    1        6.777  -2.114   0.388  0.00  0.00    +0.237 C 
ATOM     26  N   LIG    1        8.036  -2.590   0.466  0.00  0.00    -0.253 N 
ATOM     27  H   LIG    1        8.787  -1.978   0.449  0.00  0.00    +0.169 HD
ATOM     28  O   LIG    1        5.837  -2.880   0.410  0.00  0.00    -0.274 OA
BRANCH  26  29
ATOM     29  N   LIG    1        8.252  -3.935   0.568  0.00  0.00    -0.254 NA
ATOM     30  H   LIG    1        9.239  -4.140   0.617  0.00  0.00    +0.140 HD
ATOM     31  H   LIG    1        7.817  -4.430  -0.196  0.00  0.00    +0.140 HD
ENDBRANCH  26  29
ENDBRANCH  24  25
ENDBRANCH  23  24
ENDBRANCH   6  23
TORSDOF 6
