REMARK  Name = ZINC00840177
REMARK                            x       y       z     vdW  Elec       q    Type
REMARK                         _______ _______ _______ _____ _____    ______ ____
ROOT
ATOM      1  C   LIG    1        0.658  -0.603   3.669  0.00  0.00    -0.024 A 
ATOM      2  C   LIG    1        0.438  -1.759   4.314  0.00  0.00    +0.087 A 
ATOM      3  N   LIG    1        1.292  -1.871   5.377  0.00  0.00    -0.360 N 
ATOM      4  C   LIG    1        2.103  -0.763   5.447  0.00  0.00    +0.047 A 
ATOM      5  C   LIG    1        3.123  -0.380   6.316  0.00  0.00    +0.027 A 
ATOM      6  C   LIG    1        3.780   0.799   6.127  0.00  0.00    +0.010 A 
ATOM      7  C   LIG    1        3.433   1.649   5.065  0.00  0.00    -0.024 A 
ATOM      8  C   LIG    1        2.413   1.287   4.187  0.00  0.00    +0.018 A 
ATOM      9  H   LIG    1        1.320  -2.621   5.991  0.00  0.00    +0.165 HD
ATOM     10  C   LIG    1        1.747   0.079   4.375  0.00  0.00    +0.003 A 
ENDROOT
BRANCH   7  11
ATOM     11  C   LIG    1        4.146   2.922   4.879  0.00  0.00    +0.013 C 
ATOM     12  C   LIG    1        5.134   3.272   5.729  0.00  0.00    +0.068 C 
BRANCH  12  13
ATOM     13  C   LIG    1        5.843   4.538   5.545  0.00  0.00    +0.237 C 
ATOM     14  N   LIG    1        6.830   4.888   6.394  0.00  0.00    -0.308 N 
ATOM     15  H   LIG    1        7.069   4.301   7.127  0.00  0.00    +0.149 HD
ATOM     16  O   LIG    1        5.543   5.276   4.624  0.00  0.00    -0.271 OA
BRANCH  14  17
ATOM     17  C   LIG    1        7.540   6.156   6.208  0.00  0.00    +0.139 C 
BRANCH  17  18
ATOM     18  C   LIG    1        8.587   6.307   7.282  0.00  0.00    -0.030 A 
ATOM     19  C   LIG    1        8.265   6.921   8.478  0.00  0.00    +0.009 A 
ATOM     20  C   LIG    1        9.223   7.061   9.464  0.00  0.00    +0.046 A 
ATOM     21  C   LIG    1       10.508   6.584   9.253  0.00  0.00    +0.120 A 
ATOM     22  C   LIG    1       10.828   5.967   8.052  0.00  0.00    +0.046 A 
ATOM     23  C   LIG    1        9.866   5.825   7.072  0.00  0.00    +0.009 A 
BRANCH  21  24
ATOM     24  O   LIG    1       11.452   6.721  10.221  0.00  0.00    -0.495 OA
ATOM     25  C   LIG    1       12.754   6.206   9.935  0.00  0.00    +0.277 C 
ENDBRANCH  21  24
ENDBRANCH  17  18
ENDBRANCH  14  17
ENDBRANCH  12  13
ENDBRANCH   7  11
BRANCH   1  26
ATOM     26  C   LIG    1       -0.071  -0.103   2.448  0.00  0.00    +0.018 C 
BRANCH  26  27
ATOM     27  C   LIG    1        0.713  -0.491   1.192  0.00  0.00    -0.075 C 
BRANCH  27  29
ATOM     28  C   LIG    1       -0.018   1.465   0.010  0.00  0.00    -0.097 C 
ATOM     29  N   LIG    1        0.002  -0.004   0.002  0.00  0.00    +0.376 N 
ATOM     30  H   LIG    1       -0.945  -0.353   0.009  0.00  0.00    -0.083 HD
ATOM     31  C   LIG    1        0.690  -0.478  -1.207  0.00  0.00    -0.097 C 
ENDBRANCH  27  29
ENDBRANCH  26  27
ENDBRANCH   1  26
TORSDOF 8
