REMARK  Name = ZINC01040521
REMARK                            x       y       z     vdW  Elec       q    Type
REMARK                         _______ _______ _______ _____ _____    ______ ____
ROOT
ATOM      1  C   LIG    1       -2.277  -2.729   0.314  0.00  0.00    +0.253 C 
ATOM      2  N   LIG    1       -1.125  -2.038   0.205  0.00  0.00    -0.236 N 
ATOM      3  H   LIG    1       -0.277  -2.509   0.194  0.00  0.00    +0.159 HD
ATOM      4  C   LIG    1       -1.150  -0.694   0.111  0.00  0.00    +0.310 C 
ATOM      5  N   LIG    1        0.002  -0.004   0.002  0.00  0.00    -0.269 N 
ATOM      6  H   LIG    1        0.845  -0.477  -0.077  0.00  0.00    +0.156 HD
ATOM      7  O   LIG    1       -2.213  -0.104   0.124  0.00  0.00    -0.252 OA
ATOM      8  O   LIG    1       -3.340  -2.139   0.328  0.00  0.00    -0.270 OA
ENDROOT
BRANCH   5   9
ATOM      9  C   LIG    1       -0.018   1.394   0.002  0.00  0.00    +0.037 A 
ATOM     10  C   LIG    1       -1.066   2.083  -0.596  0.00  0.00    +0.024 A 
ATOM     11  C   LIG    1       -1.100   3.456  -0.597  0.00  0.00    +0.011 A 
ATOM     12  C   LIG    1       -0.063   4.202  -0.000  0.00  0.00    +0.002 A 
ATOM     13  C   LIG    1        0.983   3.478   0.589  0.00  0.00    +0.102 A 
ATOM     14  S   LIG    1        2.061   4.742   1.214  0.00  0.00    +0.019 S 
ATOM     15  C   LIG    1        1.136   6.175   0.699  0.00  0.00    +0.140 C 
ATOM     16  O   LIG    1        3.263   4.703   0.457  0.00  0.00    -0.165 OA
ATOM     17  O   LIG    1        2.023   4.685   2.633  0.00  0.00    -0.165 OA
ATOM     18  C   LIG    1        0.078   5.661   0.092  0.00  0.00    +0.029 C 
ATOM     19  C   LIG    1        1.017   2.114   0.597  0.00  0.00    +0.051 A 
ENDBRANCH   5   9
BRANCH   1  25
ATOM     20  C   LIG    1       -1.010  -6.258   0.498  0.00  0.00    +0.001 A 
ATOM     21  C   LIG    1       -2.195  -6.965   0.610  0.00  0.00    +0.001 A 
ATOM     22  C   LIG    1       -3.407  -6.298   0.626  0.00  0.00    +0.021 A 
ATOM     23  C   LIG    1       -3.442  -4.921   0.530  0.00  0.00    +0.053 A 
ATOM     24 CL   LIG    1       -4.963  -4.085   0.550  0.00  0.00    -0.083 Cl
ATOM     25  C   LIG    1       -2.249  -4.202   0.417  0.00  0.00    +0.055 A 
ATOM     26  C   LIG    1       -1.030  -4.883   0.396  0.00  0.00    +0.014 A 
ENDBRANCH   1  25
TORSDOF 2
