REMARK  Name = ZINC01021232
REMARK                            x       y       z     vdW  Elec       q    Type
REMARK                         _______ _______ _______ _____ _____    ______ ____
ROOT
ATOM      1  N   LIG    1       -2.222   8.132   0.364  0.00  0.00    -0.204 N 
ATOM      2  H   LIG    1       -2.985   7.786   0.854  0.00  0.00    +0.177 HD
ATOM      3  C   LIG    1       -1.210   7.309   0.025  0.00  0.00    +0.276 C 
ATOM      4  O   LIG    1       -0.256   7.742  -0.587  0.00  0.00    -0.270 OA
ENDROOT
BRANCH   3   5
ATOM      5  C   LIG    1       -1.263   5.852   0.407  0.00  0.00    +0.297 C 
ATOM      6  C   LIG    1       -2.424   5.167  -0.326  0.00  0.00    +0.283 C 
ATOM      7  O   LIG    1       -2.437   3.785   0.048  0.00  0.00    -0.484 OA
ATOM      8  C   LIG    1       -1.241   3.136   0.030  0.00  0.00    +0.162 A 
ATOM      9  C   LIG    1       -1.219   1.749   0.017  0.00  0.00    +0.049 A 
ATOM     10  C   LIG    1       -0.013   1.076   0.008  0.00  0.00    +0.004 A 
ATOM     11  C   LIG    1        1.176   1.782   0.000  0.00  0.00    +0.004 A 
ATOM     12  C   LIG    1        1.161   3.164   0.007  0.00  0.00    +0.049 A 
ATOM     13  C   LIG    1       -0.046   3.846   0.020  0.00  0.00    +0.163 A 
ATOM     14  O   LIG    1       -0.045   5.207   0.019  0.00  0.00    -0.472 OA
ENDBRANCH   3   5
BRANCH   1  16
ATOM     15  C   LIG    1       -3.148  10.279   0.336  0.00  0.00    +0.142 C 
ATOM     16  N   LIG    1       -2.173   9.486   0.009  0.00  0.00    -0.187 NA
BRANCH  15  23
ATOM     17  C   LIG    1       -5.331  12.025   1.073  0.00  0.00    +0.044 C 
ATOM     18  C   LIG    1       -4.144  12.558   0.312  0.00  0.00    -0.035 A 
ATOM     19  C   LIG    1       -4.092  13.890  -0.038  0.00  0.00    +0.049 A 
ATOM     20  C   LIG    1       -3.000  14.386  -0.739  0.00  0.00    +0.121 A 
ATOM     21  C   LIG    1       -1.954  13.544  -1.092  0.00  0.00    +0.091 A 
ATOM     22  C   LIG    1       -1.992  12.207  -0.740  0.00  0.00    +0.129 A 
ATOM     23  C   LIG    1       -3.097  11.703  -0.037  0.00  0.00    +0.039 A 
BRANCH  20  24
ATOM     24  O   LIG    1       -2.955  15.700  -1.081  0.00  0.00    -0.507 OA
ATOM     25  H   LIG    1       -2.537  16.265  -0.418  0.00  0.00    +0.292 HD
ENDBRANCH  20  24
BRANCH  22  26
ATOM     26  O   LIG    1       -0.967  11.384  -1.079  0.00  0.00    -0.506 OA
ATOM     27  H   LIG    1       -1.072  10.960  -1.942  0.00  0.00    +0.292 HD
ENDBRANCH  22  26
ENDBRANCH  15  23
ENDBRANCH   1  16
TORSDOF 5
