REMARK  Name = ZINC01212742
REMARK                            x       y       z     vdW  Elec       q    Type
REMARK                         _______ _______ _______ _____ _____    ______ ____
ROOT
ATOM      1  C   LIG    1        1.180   2.098   0.002  0.00  0.00    +0.048 A 
ATOM      2  C   LIG    1       -0.017   1.399   0.028  0.00  0.00    +0.042 A 
ATOM      3  C   LIG    1        0.002  -0.004   0.020  0.00  0.00    +0.072 A 
ATOM      4  N   LIG    1        1.134  -0.680  -0.012  0.00  0.00    -0.247 NA
ATOM      5  C   LIG    1        2.318  -0.066  -0.038  0.00  0.00    +0.072 A 
ATOM      6  C   LIG    1        3.515  -0.806  -0.073  0.00  0.00    +0.028 A 
ATOM      7  C   LIG    1        4.710  -0.157  -0.100  0.00  0.00    +0.002 A 
ATOM      8  C   LIG    1        4.772   1.235  -0.094  0.00  0.00    +0.001 A 
ATOM      9  C   LIG    1        3.634   1.985  -0.061  0.00  0.00    +0.011 A 
ATOM     10  C   LIG    1        2.386   1.350  -0.032  0.00  0.00    +0.013 A 
ENDROOT
BRANCH   3  11
ATOM     11  C   LIG    1       -1.282  -0.745   0.047  0.00  0.00    +0.000 A 
ATOM     12  C   LIG    1       -2.490  -0.050   0.086  0.00  0.00    +0.010 A 
ATOM     13  C   LIG    1       -3.682  -0.745   0.106  0.00  0.00    +0.001 A 
ATOM     14  C   LIG    1       -3.680  -2.128   0.099  0.00  0.00    +0.000 A 
ATOM     15  C   LIG    1       -2.484  -2.823   0.065  0.00  0.00    +0.001 A 
ATOM     16  C   LIG    1       -1.286  -2.139   0.039  0.00  0.00    +0.010 A 
ENDBRANCH   3  11
BRANCH   1  19
ATOM     17  N   LIG    1        0.046   4.267  -0.077  0.00  0.00    -0.305 N 
ATOM     18  H   LIG    1       -0.798   3.794  -0.145  0.00  0.00    +0.150 HD
ATOM     19  C   LIG    1        1.200   3.577   0.010  0.00  0.00    +0.245 C 
ATOM     20  O   LIG    1        2.258   4.170   0.095  0.00  0.00    -0.270 OA
BRANCH  17  22
ATOM     21  C   LIG    1        0.086   6.234   1.376  0.00  0.00    +0.033 C 
ATOM     22  C   LIG    1        0.066   5.732  -0.070  0.00  0.00    +0.100 C 
BRANCH  22  23
ATOM     23  C   LIG    1       -1.165   6.255  -0.765  0.00  0.00    -0.027 A 
ATOM     24  C   LIG    1       -2.384   5.632  -0.574  0.00  0.00    +0.005 A 
ATOM     25  C   LIG    1       -3.514   6.114  -1.209  0.00  0.00    +0.000 A 
ATOM     26  C   LIG    1       -3.422   7.213  -2.043  0.00  0.00    +0.000 A 
ATOM     27  C   LIG    1       -2.201   7.832  -2.238  0.00  0.00    +0.000 A 
ATOM     28  C   LIG    1       -1.073   7.353  -1.600  0.00  0.00    +0.005 A 
ENDBRANCH  22  23
ENDBRANCH  17  22
ENDBRANCH   1  19
TORSDOF 4
