REMARK  Name = ZINC01199540
REMARK                            x       y       z     vdW  Elec       q    Type
REMARK                         _______ _______ _______ _____ _____    ______ ____
ROOT
ATOM      1  C   LIG    1        0.424  -5.044   0.254  0.00  0.00    -0.018 A 
ATOM      2  C   LIG    1        1.819  -5.033   0.247  0.00  0.00    +0.009 A 
ATOM      3  C   LIG    1        2.494  -3.848   0.156  0.00  0.00    +0.008 A 
ATOM      4  C   LIG    1        1.783  -2.644   0.069  0.00  0.00    -0.024 A 
ATOM      5  C   LIG    1        0.383  -2.658   0.081  0.00  0.00    +0.008 A 
ATOM      6  C   LIG    1       -0.287  -3.845   0.167  0.00  0.00    +0.009 A 
ENDROOT
BRANCH   4   7
ATOM      7  C   LIG    1        2.505  -1.369  -0.029  0.00  0.00    +0.028 C 
ATOM      8  C   LIG    1        1.826  -0.223  -0.288  0.00  0.00    +0.077 C 
ATOM      9  C   LIG    1        2.303   1.176  -0.281  0.00  0.00    +0.256 C 
ATOM     10  N   LIG    1        1.410   2.107  -0.575  0.00  0.00    -0.270 N 
ATOM     11  H   LIG    1        1.681   3.038  -0.582  0.00  0.00    +0.156 HD
ATOM     12  C   LIG    1        0.132   1.790  -0.865  0.00  0.00    +0.118 C 
ATOM     13  S   LIG    1       -1.157   2.841  -1.273  0.00  0.00    -0.027 S 
ATOM     14  O   LIG    1        3.457   1.457  -0.018  0.00  0.00    -0.269 OA
ATOM     15  S   LIG    1        0.110   0.010  -0.730  0.00  0.00    -0.061 S 
ENDBRANCH   4   7
BRANCH   1  19
ATOM     16  C   LIG    1       -1.667  -8.734   0.538  0.00  0.00    +0.000 A 
ATOM     17  C   LIG    1       -2.373  -7.547   0.453  0.00  0.00    +0.001 A 
ATOM     18  C   LIG    1       -1.700  -6.346   0.360  0.00  0.00    +0.008 A 
ATOM     19  C   LIG    1       -0.305  -6.331   0.353  0.00  0.00    -0.018 A 
ATOM     20  C   LIG    1        0.400  -7.530   0.435  0.00  0.00    +0.008 A 
ATOM     21  C   LIG    1       -0.284  -8.725   0.532  0.00  0.00    +0.001 A 
ENDBRANCH   1  19
TORSDOF 2
