REMARK  Name = ZINC00897251
REMARK                            x       y       z     vdW  Elec       q    Type
REMARK                         _______ _______ _______ _____ _____    ______ ____
ROOT
ATOM      1  C   LIG    1        4.481  -0.969  -5.338  0.00  0.00    +0.015 C 
ENDROOT
BRANCH   1   7
ATOM      2  C   LIG    1        0.286   2.587  -7.146  0.00  0.00    +0.162 A 
ATOM      3  C   LIG    1        0.936   1.416  -7.511  0.00  0.00    +0.053 A 
ATOM      4  C   LIG    1        1.628   0.680  -6.570  0.00  0.00    -0.033 A 
ATOM      5  C   LIG    1        1.678   1.111  -5.243  0.00  0.00    +0.025 A 
ATOM      6  C   LIG    1        2.465   0.178  -4.424  0.00  0.00    +0.167 C 
ATOM      7  C   LIG    1        2.952  -0.936  -5.317  0.00  0.00    +0.065 C 
ATOM      8  O   LIG    1        2.684   0.286  -3.236  0.00  0.00    -0.292 OA
ATOM      9  C   LIG    1        1.018   2.297  -4.876  0.00  0.00    +0.061 A 
ATOM     10  C   LIG    1        2.405  -0.607  -6.713  0.00  0.00    +0.047 C 
ATOM     11  C   LIG    1        0.335   3.029  -5.824  0.00  0.00    +0.162 A 
BRANCH   2  13
ATOM     12  C   LIG    1       -0.400   2.793  -9.411  0.00  0.00    +0.277 C 
ATOM     13  O   LIG    1       -0.392   3.304  -8.077  0.00  0.00    -0.491 OA
ENDBRANCH   2  13
BRANCH  11  14
ATOM     14  O   LIG    1       -0.298   4.179  -5.468  0.00  0.00    -0.491 OA
ATOM     15  C   LIG    1       -0.207   4.572  -4.097  0.00  0.00    +0.277 C 
ENDBRANCH  11  14
ENDBRANCH   1   7
BRANCH   1  16
ATOM     16  C   LIG    1        4.955  -2.185  -6.137  0.00  0.00    -0.014 C 
ATOM     17  C   LIG    1        4.556  -3.467  -5.401  0.00  0.00    -0.015 C 
ATOM     18  C   LIG    1        5.102  -4.676  -6.164  0.00  0.00    -0.078 C 
ATOM     19  N   LIG    1        6.565  -4.590  -6.244  0.00  0.00    +0.382 N 
ATOM     20  H   LIG    1        6.948  -4.529  -5.312  0.00  0.00    -0.081 HD
ATOM     21  C   LIG    1        6.953  -3.400  -7.010  0.00  0.00    -0.078 C 
ATOM     22  C   LIG    1        6.479  -2.142  -6.279  0.00  0.00    -0.015 C 
BRANCH  19  23
ATOM     23  C   LIG    1        7.089  -5.791  -6.908  0.00  0.00    -0.043 C 
BRANCH  23  24
ATOM     24  C   LIG    1        8.596  -5.763  -6.881  0.00  0.00    -0.064 A 
ATOM     25  C   LIG    1        9.294  -5.162  -7.912  0.00  0.00    +0.002 A 
ATOM     26  C   LIG    1       10.676  -5.136  -7.887  0.00  0.00    +0.000 A 
ATOM     27  C   LIG    1       11.360  -5.710  -6.831  0.00  0.00    +0.000 A 
ATOM     28  C   LIG    1       10.661  -6.309  -5.800  0.00  0.00    +0.000 A 
ATOM     29  C   LIG    1        9.279  -6.332  -5.823  0.00  0.00    +0.002 A 
ENDBRANCH  23  24
ENDBRANCH  19  23
ENDBRANCH   1  16
TORSDOF 6
