REMARK  Name = ZINC01019761
REMARK                            x       y       z     vdW  Elec       q    Type
REMARK                         _______ _______ _______ _____ _____    ______ ____
ROOT
ATOM      1  C   LIG    1        1.168   2.094   0.002  0.00  0.00    +0.006 A 
ATOM      2  C   LIG    1        2.377   1.430  -0.013  0.00  0.00    +0.019 A 
ATOM      3  C   LIG    1        2.404   0.034  -0.020  0.00  0.00    +0.052 A 
ATOM      4  C   LIG    1        1.204  -0.681  -0.013  0.00  0.00    +0.019 A 
ATOM      5  C   LIG    1        0.002  -0.004   0.002  0.00  0.00    +0.006 A 
ATOM      6  C   LIG    1       -0.017   1.379   0.010  0.00  0.00    -0.028 A 
ENDROOT
BRANCH   3   7
ATOM      7  C   LIG    1        3.655  -0.662  -0.036  0.00  0.00    +0.099 C 
ATOM      8  N   LIG    1        4.648  -1.214  -0.048  0.00  0.00    -0.191 NA
ENDBRANCH   3   7
BRANCH   6   9
ATOM      9  C   LIG    1       -1.334   2.112   0.020  0.00  0.00    +0.157 C 
BRANCH   9  10
ATOM     10  N   LIG    1       -1.754   2.341   1.404  0.00  0.00    -0.334 N 
ATOM     11  C   LIG    1       -1.452   3.432   2.175  0.00  0.00    +0.105 A 
ATOM     12  C   LIG    1       -2.035   3.236   3.373  0.00  0.00    +0.101 A 
ATOM     13  N   LIG    1       -2.675   2.059   3.334  0.00  0.00    -0.352 N 
ATOM     14  H   LIG    1       -3.207   1.647   4.109  0.00  0.00    +0.166 HD
ATOM     15  C   LIG    1       -2.517   1.520   2.157  0.00  0.00    +0.174 A 
ENDBRANCH   9  10
ENDBRANCH   6   9
TORSDOF 3
