REMARK  Name = ZINC01383077
REMARK                            x       y       z     vdW  Elec       q    Type
REMARK                         _______ _______ _______ _____ _____    ______ ____
ROOT
ATOM      1  C   LIG    1        0.218  11.869   0.068  0.00  0.00    +0.001 A 
ATOM      2  C   LIG    1       -1.141  12.120   0.082  0.00  0.00    +0.001 A 
ATOM      3  C   LIG    1       -2.045  11.071   0.083  0.00  0.00    +0.012 A 
ATOM      4  C   LIG    1       -1.584   9.760   0.071  0.00  0.00    +0.032 A 
ATOM      5  C   LIG    1       -0.202   9.502   0.057  0.00  0.00    +0.014 A 
ATOM      6  C   LIG    1        0.010   8.033   0.046  0.00  0.00    +0.105 A 
ATOM      7  C   LIG    1       -1.248   7.402   0.054  0.00  0.00    +0.052 A 
ATOM      8  C   LIG    1       -1.294   6.015   0.046  0.00  0.00    +0.044 A 
ATOM      9  C   LIG    1       -0.070   5.326   0.031  0.00  0.00    +0.094 A 
ATOM     10  N   LIG    1        1.067   6.008   0.030  0.00  0.00    -0.149 NA
ATOM     11  N   LIG    1        1.108   7.290   0.032  0.00  0.00    -0.148 NA
ATOM     12  C   LIG    1       -2.289   8.456   0.070  0.00  0.00    +0.196 C 
ATOM     13  O   LIG    1       -3.491   8.284   0.079  0.00  0.00    -0.287 OA
ATOM     14  C   LIG    1        0.691  10.566   0.056  0.00  0.00    +0.011 A 
ENDROOT
BRANCH   9  15
ATOM     15  C   LIG    1       -0.050   3.844   0.023  0.00  0.00    +0.003 A 
ATOM     16  C   LIG    1       -1.247   3.128   0.030  0.00  0.00    +0.010 A 
ATOM     17  C   LIG    1       -1.222   1.748   0.017  0.00  0.00    +0.001 A 
ATOM     18  C   LIG    1       -0.013   1.076   0.008  0.00  0.00    +0.012 A 
ATOM     19  C   LIG    1        1.177   1.781   0.000  0.00  0.00    +0.055 A 
ATOM     20  C   LIG    1        1.165   3.161   0.008  0.00  0.00    +0.022 A 
BRANCH  19  21
ATOM     21  C   LIG    1        2.490   1.041  -0.016  0.00  0.00    +0.417 C 
ATOM     22  F   LIG    1        3.231   1.380   1.121  0.00  0.00    -0.166 F 
ATOM     23  F   LIG    1        3.209   1.392  -1.163  0.00  0.00    -0.166 F 
ATOM     24  F   LIG    1        2.248  -0.337  -0.020  0.00  0.00    -0.166 F 
ENDBRANCH  19  21
ENDBRANCH   9  15
TORSDOF 2
