REMARK  Name = ZINC00978708
REMARK                            x       y       z     vdW  Elec       q    Type
REMARK                         _______ _______ _______ _____ _____    ______ ____
ROOT
ATOM      1  C   LIG    1       -1.088  -0.933   0.016  0.00  0.00    +0.068 C 
ATOM      2  C   LIG    1       -1.730  -1.237  -1.175  0.00  0.00    +0.035 C 
ATOM      3  C   LIG    1       -3.036  -1.688  -1.166  0.00  0.00    +0.083 C 
ATOM      4  N   LIG    1       -3.687  -1.833  -0.026  0.00  0.00    -0.304 NA
ATOM      5  H   LIG    1       -4.604  -2.150  -0.042  0.00  0.00    +0.123 HD
ATOM      6  C   LIG    1       -3.122  -1.556   1.132  0.00  0.00    +0.127 C 
ATOM      7  S   LIG    1       -3.690  -1.634   2.813  0.00  0.00    -0.099 S 
ATOM      8  C   LIG    1       -2.216  -1.085   3.631  0.00  0.00    +0.096 A 
ATOM      9  C   LIG    1       -1.867  -0.877   4.970  0.00  0.00    +0.272 A 
ATOM     10  N   LIG    1       -0.618  -0.427   5.240  0.00  0.00    -0.267 N 
ATOM     11  C   LIG    1        0.242  -0.198   4.213  0.00  0.00    +0.207 A 
ATOM     12  N   LIG    1       -0.076  -0.390   2.971  0.00  0.00    -0.240 NA
ATOM     13  O   LIG    1       -2.664  -1.093   5.868  0.00  0.00    -0.266 OA
ATOM     14  C   LIG    1       -1.310  -0.840   2.602  0.00  0.00    +0.068 A 
ATOM     15  C   LIG    1       -1.797  -1.098   1.238  0.00  0.00    +0.084 C 
ENDROOT
BRANCH  10  16
ATOM     16  C   LIG    1       -0.217  -0.202   6.564  0.00  0.00    +0.051 A 
ATOM     17  C   LIG    1       -0.067  -1.271   7.437  0.00  0.00    +0.030 A 
ATOM     18  C   LIG    1        0.327  -1.048   8.741  0.00  0.00    +0.047 A 
ATOM     19  C   LIG    1        0.574   0.245   9.180  0.00  0.00    +0.120 A 
ATOM     20  C   LIG    1        0.424   1.314   8.308  0.00  0.00    +0.047 A 
ATOM     21  C   LIG    1        0.035   1.092   7.002  0.00  0.00    +0.030 A 
BRANCH  19  22
ATOM     22  O   LIG    1        0.963   0.464  10.464  0.00  0.00    -0.495 OA
ATOM     23  C   LIG    1        1.200   1.820  10.847  0.00  0.00    +0.277 C 
ENDBRANCH  19  22
ENDBRANCH  10  16
BRANCH   1  25
ATOM     24  C   LIG    1        0.504   0.956  -0.061  0.00  0.00    +0.104 C 
ATOM     25  N   LIG    1        0.224  -0.480   0.016  0.00  0.00    -0.305 NA
ATOM     26  C   LIG    1        1.329  -1.439   0.094  0.00  0.00    +0.104 C 
ENDBRANCH   1  25
TORSDOF 3
