REMARK  Name = ZINC00757965
REMARK                            x       y       z     vdW  Elec       q    Type
REMARK                         _______ _______ _______ _____ _____    ______ ____
ROOT
ATOM      1  C   LIG    1        1.058  -2.250  -0.022  0.00  0.00    +0.061 C 
ATOM      2  C   LIG    1        1.149  -0.746  -0.013  0.00  0.00    +0.021 C 
ATOM      3  C   LIG    1        2.362  -0.153  -0.022  0.00  0.00    +0.078 C 
ATOM      4  C   LIG    1        2.407   1.361  -0.014  0.00  0.00    +0.143 C 
ATOM      5  N   LIG    1        1.115   2.067   0.003  0.00  0.00    -0.288 N 
ATOM      6  H   LIG    1        1.079   3.037   0.008  0.00  0.00    +0.151 HD
ATOM      7  C   LIG    1       -0.016   1.335   0.009  0.00  0.00    +0.304 C 
ATOM      8  O   LIG    1       -1.088   1.908   0.018  0.00  0.00    -0.252 OA
ATOM      9  N   LIG    1        0.002  -0.004   0.002  0.00  0.00    -0.273 N 
ATOM     10  H   LIG    1       -0.847  -0.473   0.008  0.00  0.00    +0.156 HD
ENDROOT
BRANCH   4  11
ATOM     11  C   LIG    1        3.166   1.810  -1.236  0.00  0.00    -0.022 A 
ATOM     12  C   LIG    1        2.536   1.845  -2.466  0.00  0.00    +0.007 A 
ATOM     13  C   LIG    1        3.231   2.261  -3.587  0.00  0.00    +0.015 A 
ATOM     14  C   LIG    1        4.559   2.632  -3.479  0.00  0.00    +0.018 A 
ATOM     15 BR   LIG    1        5.511   3.194  -5.013  0.00  0.00    -0.050 Br
ATOM     16  C   LIG    1        5.190   2.592  -2.248  0.00  0.00    +0.015 A 
ATOM     17  C   LIG    1        4.494   2.181  -1.128  0.00  0.00    +0.007 A 
ENDBRANCH   4  11
BRANCH   3  18
ATOM     18  C   LIG    1        3.550  -0.920  -0.037  0.00  0.00    +0.339 C 
ATOM     19  O   LIG    1        3.490  -2.136  -0.043  0.00  0.00    -0.245 OA
BRANCH  18  20
ATOM     20  O   LIG    1        4.751  -0.304  -0.046  0.00  0.00    -0.458 OA
BRANCH  20  21
ATOM     21  C   LIG    1        5.909  -1.141  -0.061  0.00  0.00    +0.177 C 
ATOM     22  C   LIG    1        6.394  -1.400   1.380  0.00  0.00    +0.044 C 
ATOM     23  C   LIG    1        7.938  -1.403   1.268  0.00  0.00    +0.004 C 
ATOM     24  C   LIG    1        8.208  -0.283   0.232  0.00  0.00    +0.004 C 
ATOM     25  C   LIG    1        7.063  -0.431  -0.791  0.00  0.00    +0.044 C 
ENDBRANCH  20  21
ENDBRANCH  18  20
ENDBRANCH   3  18
TORSDOF 4
