REMARK  Name = ZINC01268606
REMARK                            x       y       z     vdW  Elec       q    Type
REMARK                         _______ _______ _______ _____ _____    ______ ____
ROOT
ATOM      1  C   LIG    1       -2.921  -3.912  -0.005  0.00  0.00    +0.159 C 
ENDROOT
BRANCH   1   8
ATOM      2  C   LIG    1       -0.018   1.461   0.010  0.00  0.00    +0.155 C 
ATOM      3  N   LIG    1        0.002  -0.004   0.002  0.00  0.00    -0.281 N 
ATOM      4  C   LIG    1       -1.182  -0.706   0.004  0.00  0.00    +0.146 A 
ATOM      5  N   LIG    1       -2.498  -0.324   0.013  0.00  0.00    -0.320 N 
ATOM      6  H   LIG    1       -2.821   0.591   0.020  0.00  0.00    +0.169 HD
ATOM      7  C   LIG    1       -3.270  -1.427   0.011  0.00  0.00    +0.160 A 
ATOM      8  N   LIG    1       -2.476  -2.517   0.000  0.00  0.00    -0.311 N 
ATOM      9  S   LIG    1       -4.982  -1.444   0.019  0.00  0.00    -0.013 S 
ATOM     10  C   LIG    1       -1.150  -2.073  -0.004  0.00  0.00    +0.150 A 
ATOM     11  C   LIG    1        0.095  -2.733  -0.015  0.00  0.00    +0.280 A 
ATOM     12  O   LIG    1        0.147  -3.951  -0.021  0.00  0.00    -0.265 OA
ATOM     13  N   LIG    1        1.230  -2.003  -0.016  0.00  0.00    -0.273 N 
ATOM     14  H   LIG    1        2.090  -2.451  -0.023  0.00  0.00    +0.173 HD
ATOM     15  C   LIG    1        1.179  -0.658  -0.013  0.00  0.00    +0.331 A 
ATOM     16  O   LIG    1        2.215  -0.022  -0.019  0.00  0.00    -0.246 OA
ENDBRANCH   1   8
BRANCH   1  17
ATOM     17  C   LIG    1       -3.084  -4.390  -1.450  0.00  0.00    +0.171 C 
BRANCH  17  18
ATOM     18  O   LIG    1       -4.053  -3.578  -2.114  0.00  0.00    -0.387 OA
ATOM     19  H   LIG    1       -4.930  -3.599  -1.707  0.00  0.00    +0.210 HD
ENDBRANCH  17  18
BRANCH  17  20
ATOM     20  C   LIG    1       -3.549  -5.848  -1.456  0.00  0.00    +0.262 C 
BRANCH  20  21
ATOM     21  O   LIG    1       -3.588  -6.330  -2.801  0.00  0.00    -0.489 OA
BRANCH  21  22
ATOM     22  C   LIG    1       -3.984  -7.617  -2.983  0.00  0.00    +0.121 A 
ATOM     23  C   LIG    1       -4.333  -8.395  -1.875  0.00  0.00    +0.046 A 
ATOM     24  C   LIG    1       -4.733  -9.686  -2.026  0.00  0.00    +0.012 A 
ATOM     25  C   LIG    1       -4.798 -10.250  -3.312  0.00  0.00    -0.018 A 
ATOM     26  C   LIG    1       -5.208 -11.581  -3.504  0.00  0.00    +0.008 A 
ATOM     27  C   LIG    1       -5.260 -12.095  -4.763  0.00  0.00    +0.001 A 
ATOM     28  C   LIG    1       -4.913 -11.321  -5.869  0.00  0.00    +0.001 A 
ATOM     29  C   LIG    1       -4.512 -10.029  -5.722  0.00  0.00    +0.008 A 
ATOM     30  C   LIG    1       -4.445  -9.463  -4.437  0.00  0.00    -0.014 A 
ATOM     31  C   LIG    1       -4.041  -8.131  -4.247  0.00  0.00    +0.054 A 
ENDBRANCH  21  22
ENDBRANCH  20  21
ENDBRANCH  17  20
ENDBRANCH   1  17
TORSDOF 6
