REMARK  Name = ZINC00725713
REMARK                            x       y       z     vdW  Elec       q    Type
REMARK                         _______ _______ _______ _____ _____    ______ ____
ROOT
ATOM      1  C   LIG    1        2.493  -2.487  -4.365  0.00  0.00    +0.249 C 
ATOM      2  N   LIG    1        3.042  -1.738  -5.341  0.00  0.00    -0.275 N 
ATOM      3  H   LIG    1        3.006  -0.770  -5.287  0.00  0.00    +0.156 HD
ATOM      4  O   LIG    1        2.538  -3.701  -4.432  0.00  0.00    -0.270 OA
ENDROOT
BRANCH   2   5
ATOM      5  C   LIG    1        3.658  -2.349  -6.421  0.00  0.00    +0.085 A 
ATOM      6  C   LIG    1        4.275  -1.744  -7.505  0.00  0.00    +0.068 A 
ATOM      7  C   LIG    1        4.850  -2.617  -8.514  0.00  0.00    -0.023 A 
ATOM      8  C   LIG    1        4.702  -3.934  -8.255  0.00  0.00    -0.004 A 
ATOM      9  C   LIG    1        5.180  -5.076  -9.097  0.00  0.00    +0.043 C 
ATOM     10  C   LIG    1        5.533  -4.533 -10.489  0.00  0.00    +0.005 C 
ATOM     11  C   LIG    1        6.404  -3.284 -10.328  0.00  0.00    +0.005 C 
ATOM     12  C   LIG    1        5.565  -2.133  -9.767  0.00  0.00    +0.037 C 
ATOM     13  S   LIG    1        3.834  -3.993  -6.714  0.00  0.00    -0.077 S 
BRANCH   6  14
ATOM     14  C   LIG    1        4.344  -0.285  -7.628  0.00  0.00    +0.244 C 
ATOM     15  N   LIG    1        3.362   0.386  -8.262  0.00  0.00    -0.325 N 
ATOM     16  H   LIG    1        3.408   1.351  -8.343  0.00  0.00    +0.145 HD
ATOM     17  H   LIG    1        2.609  -0.098  -8.637  0.00  0.00    +0.145 HD
ATOM     18  O   LIG    1        5.289   0.321  -7.158  0.00  0.00    -0.270 OA
ENDBRANCH   6  14
ENDBRANCH   2   5
BRANCH   1  22
ATOM     19  C   LIG    1        0.605  -0.607  -1.055  0.00  0.00    +0.162 A 
ATOM     20  C   LIG    1        1.172   0.164  -2.061  0.00  0.00    +0.050 A 
ATOM     21  C   LIG    1        1.785  -0.442  -3.135  0.00  0.00    +0.017 A 
ATOM     22  C   LIG    1        1.838  -1.836  -3.214  0.00  0.00    +0.041 A 
ATOM     23  C   LIG    1        1.268  -2.612  -2.202  0.00  0.00    +0.062 A 
ATOM     24  C   LIG    1        0.659  -1.998  -1.125  0.00  0.00    +0.162 A 
BRANCH  19  26
ATOM     25  C   LIG    1       -0.017   1.425   0.010  0.00  0.00    +0.277 C 
ATOM     26  O   LIG    1        0.002  -0.004   0.002  0.00  0.00    -0.491 OA
ENDBRANCH  19  26
BRANCH  24  27
ATOM     27  O   LIG    1        0.108  -2.750  -0.135  0.00  0.00    -0.491 OA
ATOM     28  C   LIG    1        0.200  -4.170  -0.271  0.00  0.00    +0.277 C 
ENDBRANCH  24  27
ENDBRANCH   1  22
TORSDOF 5
