REMARK  Name = ZINC00904743
REMARK                            x       y       z     vdW  Elec       q    Type
REMARK                         _______ _______ _______ _____ _____    ______ ____
ROOT
ATOM      1  C   LIG    1        3.622  -0.891  -0.266  0.00  0.00    +0.102 A 
ATOM      2  C   LIG    1        3.882  -1.856   0.728  0.00  0.00    +0.119 A 
ATOM      3  N   LIG    1        5.129  -2.281   0.901  0.00  0.00    -0.145 NA
ATOM      4  N   LIG    1        6.083  -1.818   0.171  0.00  0.00    -0.122 NA
ATOM      5  C   LIG    1        5.861  -0.909  -0.771  0.00  0.00    +0.210 A 
ATOM      6  N   LIG    1        4.639  -0.445  -1.000  0.00  0.00    -0.218 NA
ENDROOT
BRANCH   1  10
ATOM      7  C   LIG    1       -0.324   0.549  -0.918  0.00  0.00    +0.000 A 
ATOM      8  C   LIG    1        0.735   1.438  -0.869  0.00  0.00    +0.001 A 
ATOM      9  C   LIG    1        2.018   0.977  -0.657  0.00  0.00    +0.010 A 
ATOM     10  C   LIG    1        2.247  -0.389  -0.493  0.00  0.00    +0.003 A 
ATOM     11  C   LIG    1        1.175  -1.281  -0.544  0.00  0.00    +0.010 A 
ATOM     12  C   LIG    1       -0.103  -0.807  -0.756  0.00  0.00    +0.001 A 
ENDBRANCH   1  10
BRANCH   2  13
ATOM     13  C   LIG    1        2.783  -2.387   1.567  0.00  0.00    +0.004 A 
ATOM     14  C   LIG    1        1.836  -1.520   2.112  0.00  0.00    +0.010 A 
ATOM     15  C   LIG    1        0.814  -2.021   2.893  0.00  0.00    +0.001 A 
ATOM     16  C   LIG    1        0.728  -3.380   3.135  0.00  0.00    +0.000 A 
ATOM     17  C   LIG    1        1.664  -4.245   2.597  0.00  0.00    +0.001 A 
ATOM     18  C   LIG    1        2.687  -3.757   1.810  0.00  0.00    +0.010 A 
ENDBRANCH   2  13
BRANCH   5  19
ATOM     19  S   LIG    1        7.209  -0.314  -1.737  0.00  0.00    -0.075 S 
BRANCH  19  20
ATOM     20  C   LIG    1        8.644  -1.213  -1.088  0.00  0.00    +0.173 C 
BRANCH  20  21
ATOM     21  C   LIG    1        9.882  -0.792  -1.838  0.00  0.00    +0.230 C 
ATOM     22  N   LIG    1       11.076  -1.333  -1.525  0.00  0.00    -0.270 N 
ATOM     23  C   LIG    1       12.346  -1.000  -2.176  0.00  0.00    +0.118 C 
ATOM     24  C   LIG    1       13.400  -1.871  -1.474  0.00  0.00    +0.056 C 
ATOM     25  C   LIG    1       12.620  -2.657  -0.444  0.00  0.00    -0.024 A 
ATOM     26  C   LIG    1       13.032  -3.596   0.481  0.00  0.00    +0.005 A 
ATOM     27  C   LIG    1       12.115  -4.174   1.340  0.00  0.00    +0.000 A 
ATOM     28  C   LIG    1       10.781  -3.818   1.262  0.00  0.00    +0.002 A 
ATOM     29  C   LIG    1       10.365  -2.883   0.338  0.00  0.00    +0.024 A 
ATOM     30  C   LIG    1       11.286  -2.290  -0.527  0.00  0.00    +0.040 A 
ATOM     31  O   LIG    1        9.804   0.034  -2.723  0.00  0.00    -0.274 OA
ENDBRANCH  20  21
ENDBRANCH  19  20
ENDBRANCH   5  19
TORSDOF 5
