REMARK  Name = ZINC01420826
REMARK                            x       y       z     vdW  Elec       q    Type
REMARK                         _______ _______ _______ _____ _____    ______ ____
ROOT
ATOM      1  C   LIG    1        0.499  -0.602   1.141  0.00  0.00    +0.141 A 
ATOM      2  C   LIG    1        1.198   0.138   2.079  0.00  0.00    +0.047 A 
ATOM      3  C   LIG    1        1.963  -0.497   3.044  0.00  0.00    +0.004 A 
ATOM      4  C   LIG    1        2.037  -1.873   3.080  0.00  0.00    +0.013 A 
ATOM      5  C   LIG    1        1.338  -2.636   2.140  0.00  0.00    +0.042 A 
ATOM      6  C   LIG    1        0.558  -1.993   1.167  0.00  0.00    +0.078 A 
ENDROOT
BRANCH   5   7
ATOM      7  C   LIG    1        1.415  -4.107   2.175  0.00  0.00    +0.141 A 
ATOM      8  C   LIG    1        1.062  -4.754   3.321  0.00  0.00    +0.098 A 
ATOM      9  C   LIG    1        1.129  -6.164   3.372  0.00  0.00    +0.193 A 
ATOM     10  C   LIG    1        1.588  -6.867   2.156  0.00  0.00    +0.064 A 
ATOM     11  C   LIG    1        1.685  -8.257   2.116  0.00  0.00    +0.015 A 
ATOM     12  C   LIG    1        2.116  -8.875   0.963  0.00  0.00    +0.001 A 
ATOM     13  C   LIG    1        2.452  -8.121  -0.151  0.00  0.00    +0.004 A 
ATOM     14  C   LIG    1        2.360  -6.745  -0.124  0.00  0.00    +0.047 A 
ATOM     15  C   LIG    1        1.927  -6.103   1.029  0.00  0.00    +0.139 A 
ATOM     16  O   LIG    1        0.821  -6.778   4.381  0.00  0.00    -0.287 OA
ATOM     17  O   LIG    1        1.825  -4.758   1.075  0.00  0.00    -0.455 OA
ENDBRANCH   5   7
BRANCH   6  18
ATOM     18  N   LIG    1       -0.147  -2.742   0.228  0.00  0.00    -0.355 N 
ATOM     19  H   LIG    1       -0.178  -3.709   0.303  0.00  0.00    +0.142 HD
ATOM     20  H   LIG    1       -0.608  -2.297  -0.500  0.00  0.00    +0.142 HD
ENDBRANCH   6  18
BRANCH   1  22
ATOM     21  C   LIG    1       -0.264   1.458   0.230  0.00  0.00    +0.277 C 
ATOM     22  O   LIG    1       -0.249   0.030   0.197  0.00  0.00    -0.493 OA
ENDBRANCH   1  22
TORSDOF 3
