REMARK  Name = ZINC00968043
REMARK                            x       y       z     vdW  Elec       q    Type
REMARK                         _______ _______ _______ _____ _____    ______ ____
ROOT
ATOM      1  C   LIG    1       -0.017   1.383   0.010  0.00  0.00    +0.048 A 
ATOM      2  C   LIG    1        1.170   2.092   0.002  0.00  0.00    -0.044 A 
ATOM      3  C   LIG    1        2.377   1.421  -0.013  0.00  0.00    +0.048 A 
ATOM      4  C   LIG    1        2.402   0.033  -0.021  0.00  0.00    +0.121 A 
ATOM      5  C   LIG    1        1.213  -0.680  -0.014  0.00  0.00    +0.090 A 
ATOM      6  C   LIG    1        0.002  -0.004   0.002  0.00  0.00    +0.121 A 
ENDROOT
BRANCH   4   7
ATOM      7  O   LIG    1        3.590  -0.626  -0.037  0.00  0.00    -0.507 OA
ATOM      8  H   LIG    1        3.943  -0.822   0.842  0.00  0.00    +0.292 HD
ENDBRANCH   4   7
BRANCH   6   9
ATOM      9  O   LIG    1       -1.165  -0.700   0.010  0.00  0.00    -0.507 OA
ATOM     10  H   LIG    1       -1.512  -0.897  -0.871  0.00  0.00    +0.292 HD
ENDBRANCH   6   9
BRANCH   2  11
ATOM     11  CA  LIG    1        1.146   3.599   0.010  0.00  0.00    +0.067 C 
BRANCH  11  12
ATOM     12  N   LIG    1        2.191   4.109  -0.887  0.00  0.00    +0.390 N 
ATOM     13  H1  LIG    1        3.093   3.785  -0.572  0.00  0.00    -0.088 HD
ATOM     14  H2  LIG    1        2.176   5.118  -0.882  0.00  0.00    -0.088 HD
ATOM     15  H3  LIG    1        2.022   3.775  -1.825  0.00  0.00    -0.088 HD
ENDBRANCH  11  12
BRANCH  11  16
ATOM     16  C   LIG    1        1.398   4.098   1.409  0.00  0.00    +0.294 C 
ATOM     17  O   LIG    1        2.538   4.316   1.783  0.00  0.00    -0.253 OA
BRANCH  16  18
ATOM     18  OXT LIG    1        0.462   4.282   2.168  0.00  0.00    -0.482 OA
ATOM     19  HXT LIG    1       -0.414   4.114   1.882  0.00  0.00    +0.295 HD
ENDBRANCH  16  18
ENDBRANCH  11  16
ENDBRANCH   2  11
TORSDOF 6
