REMARK  Name = ZINC00851723
REMARK                            x       y       z     vdW  Elec       q    Type
REMARK                         _______ _______ _______ _____ _____    ______ ____
ROOT
ATOM      1  C   LIG    1        3.617   6.811  -0.211  0.00  0.00    +0.101 C 
ATOM      2  C   LIG    1        4.379   6.410  -1.495  0.00  0.00    +0.110 C 
ATOM      3  C   LIG    1        4.996   7.703  -1.980  0.00  0.00    +0.217 C 
ATOM      4  N   LIG    1        4.404   8.751  -1.380  0.00  0.00    -0.298 N 
ATOM      5  O   LIG    1        5.894   7.784  -2.791  0.00  0.00    -0.276 OA
ATOM      6  C   LIG    1        3.349   8.312  -0.460  0.00  0.00    +0.121 C 
ENDROOT
BRANCH   4   7
ATOM      7  C   LIG    1        4.766  10.151  -1.615  0.00  0.00    +0.076 C 
ATOM      8  C   LIG    1        4.566  10.488  -3.094  0.00  0.00    +0.022 C 
ATOM      9  C   LIG    1        4.944  11.950  -3.339  0.00  0.00    +0.002 C 
ATOM     10  C   LIG    1        6.411  12.168  -2.960  0.00  0.00    +0.000 C 
ATOM     11  C   LIG    1        6.611  11.830  -1.481  0.00  0.00    +0.002 C 
ATOM     12  C   LIG    1        6.233  10.368  -1.236  0.00  0.00    +0.022 C 
ENDBRANCH   4   7
BRANCH   1  15
ATOM     13  N   LIG    1        2.344   4.700   0.005  0.00  0.00    -0.285 N 
ATOM     14  H   LIG    1        3.191   4.231   0.063  0.00  0.00    +0.155 HD
ATOM     15  C   LIG    1        2.325   6.045  -0.090  0.00  0.00    +0.222 C 
ATOM     16  O   LIG    1        1.267   6.638  -0.077  0.00  0.00    -0.275 OA
BRANCH  13  19
ATOM     17  C   LIG    1       -1.162   3.804   0.656  0.00  0.00    +0.003 A 
ATOM     18  C   LIG    1        0.022   4.515   0.643  0.00  0.00    +0.023 A 
ATOM     19  C   LIG    1        1.143   3.982   0.020  0.00  0.00    +0.034 A 
ATOM     20  C   LIG    1        1.071   2.736  -0.588  0.00  0.00    +0.038 A 
ATOM     21  C   LIG    1       -0.117   2.029  -0.571  0.00  0.00    +0.020 A 
ATOM     22 BR   LIG    1       -0.218   0.332  -1.398  0.00  0.00    -0.050 Br
ATOM     23  C   LIG    1       -1.234   2.565   0.046  0.00  0.00    +0.015 A 
ENDBRANCH  13  19
ENDBRANCH   1  15
TORSDOF 3
