REMARK  Name = ZINC00846610
REMARK                            x       y       z     vdW  Elec       q    Type
REMARK                         _______ _______ _______ _____ _____    ______ ____
ROOT
ATOM      1  C   LIG    1       -1.283   1.551   3.622  0.00  0.00    +0.085 A 
ATOM      2  C   LIG    1       -0.559   0.998   2.575  0.00  0.00    +0.068 A 
ATOM      3  C   LIG    1       -0.732   1.580   1.257  0.00  0.00    -0.023 A 
ATOM      4  C   LIG    1       -1.601   2.615   1.194  0.00  0.00    -0.004 A 
ATOM      5  C   LIG    1       -1.979   3.405  -0.021  0.00  0.00    +0.043 C 
ATOM      6  C   LIG    1       -0.956   3.111  -1.127  0.00  0.00    +0.005 C 
ATOM      7  C   LIG    1       -0.758   1.595  -1.227  0.00  0.00    +0.005 C 
ATOM      8  C   LIG    1       -0.013   1.086   0.008  0.00  0.00    +0.037 C 
ATOM      9  S   LIG    1       -2.179   2.821   2.854  0.00  0.00    -0.077 S 
ENDROOT
BRANCH   2  10
ATOM     10  C   LIG    1        0.350  -0.131   2.793  0.00  0.00    +0.244 C 
ATOM     11  N   LIG    1        1.642   0.094   3.105  0.00  0.00    -0.325 N 
ATOM     12  H   LIG    1        2.244  -0.653   3.249  0.00  0.00    +0.145 HD
ATOM     13  H   LIG    1        1.970   1.003   3.185  0.00  0.00    +0.145 HD
ATOM     14  O   LIG    1       -0.062  -1.272   2.692  0.00  0.00    -0.270 OA
ENDBRANCH   2  10
BRANCH   1  16
ATOM     15  C   LIG    1       -2.066   1.840   5.837  0.00  0.00    +0.249 C 
ATOM     16  N   LIG    1       -1.290   1.179   4.956  0.00  0.00    -0.275 N 
ATOM     17  H   LIG    1       -0.735   0.442   5.256  0.00  0.00    +0.156 HD
ATOM     18  O   LIG    1       -2.761   2.763   5.461  0.00  0.00    -0.270 OA
BRANCH  15  25
ATOM     19  C   LIG    1       -1.280   0.378   7.694  0.00  0.00    +0.014 A 
ATOM     20  C   LIG    1       -1.286   0.016   9.025  0.00  0.00    +0.016 A 
ATOM     21  C   LIG    1       -2.085   0.697   9.927  0.00  0.00    +0.018 A 
ATOM     22 BR   LIG    1       -2.093   0.189  11.749  0.00  0.00    -0.050 Br
ATOM     23  C   LIG    1       -2.878   1.750   9.502  0.00  0.00    +0.016 A 
ATOM     24  C   LIG    1       -2.877   2.125   8.175  0.00  0.00    +0.014 A 
ATOM     25  C   LIG    1       -2.073   1.442   7.260  0.00  0.00    +0.037 A 
ENDBRANCH  15  25
ENDBRANCH   1  16
TORSDOF 3
