REMARK  Name = ZINC00915585
REMARK                            x       y       z     vdW  Elec       q    Type
REMARK                         _______ _______ _______ _____ _____    ______ ____
ROOT
ATOM      1  C   LIG    1        3.188  -4.401  -5.570  0.00  0.00    +0.234 C 
ENDROOT
BRANCH   1   2
ATOM      2  O   LIG    1        2.538  -3.835  -4.430  0.00  0.00    -0.453 OA
BRANCH   2   3
ATOM      3  C   LIG    1        2.490  -2.490  -4.359  0.00  0.00    +0.340 C 
ATOM      4  O   LIG    1        2.986  -1.817  -5.240  0.00  0.00    -0.245 OA
BRANCH   3   8
ATOM      5  C   LIG    1        0.605  -0.606  -1.054  0.00  0.00    +0.120 A 
ATOM      6  C   LIG    1        1.172   0.166  -2.061  0.00  0.00    +0.046 A 
ATOM      7  C   LIG    1        1.785  -0.441  -3.135  0.00  0.00    +0.018 A 
ATOM      8  C   LIG    1        1.836  -1.836  -3.211  0.00  0.00    +0.059 A 
ATOM      9  C   LIG    1        1.264  -2.609  -2.196  0.00  0.00    +0.018 A 
ATOM     10  C   LIG    1        0.658  -1.994  -1.123  0.00  0.00    +0.046 A 
BRANCH   5  12
ATOM     11  C   LIG    1       -0.017   1.425   0.010  0.00  0.00    +0.277 C 
ATOM     12  O   LIG    1        0.002  -0.004   0.002  0.00  0.00    -0.495 OA
ENDBRANCH   5  12
ENDBRANCH   3   8
ENDBRANCH   2   3
ENDBRANCH   1   2
BRANCH   1  13
ATOM     13  C   LIG    1        2.553  -5.753  -5.899  0.00  0.00    +0.275 C 
BRANCH  13  14
ATOM     14  O   LIG    1        2.800  -6.669  -4.830  0.00  0.00    -0.488 OA
BRANCH  14  15
ATOM     15  C   LIG    1        2.300  -7.925  -4.965  0.00  0.00    +0.121 A 
ATOM     16  C   LIG    1        1.591  -8.272  -6.106  0.00  0.00    +0.045 A 
ATOM     17  C   LIG    1        1.084  -9.550  -6.241  0.00  0.00    +0.004 A 
ATOM     18  C   LIG    1        1.282 -10.483  -5.240  0.00  0.00    +0.000 A 
ATOM     19  C   LIG    1        1.988 -10.140  -4.102  0.00  0.00    +0.004 A 
ATOM     20  C   LIG    1        2.503  -8.865  -3.965  0.00  0.00    +0.045 A 
ENDBRANCH  14  15
ENDBRANCH  13  14
ENDBRANCH   1  13
BRANCH   1  21
ATOM     21  C   LIG    1        4.675  -4.596  -5.265  0.00  0.00    +0.170 C 
BRANCH  21  22
ATOM     22  N   LIG    1        5.308  -3.290  -5.067  0.00  0.00    -0.335 N 
ATOM     23  C   LIG    1        5.882  -2.510  -6.035  0.00  0.00    +0.104 A 
ATOM     24  C   LIG    1        6.338  -1.401  -5.422  0.00  0.00    +0.101 A 
ATOM     25  N   LIG    1        6.052  -1.501  -4.116  0.00  0.00    -0.352 N 
ATOM     26  H   LIG    1        6.269  -0.839  -3.441  0.00  0.00    +0.166 HD
ATOM     27  C   LIG    1        5.430  -2.628  -3.897  0.00  0.00    +0.173 A 
ENDBRANCH  21  22
ENDBRANCH   1  21
TORSDOF 9
