REMARK  Name = ZINC01403985
REMARK                            x       y       z     vdW  Elec       q    Type
REMARK                         _______ _______ _______ _____ _____    ______ ____
ROOT
ATOM      1  C   LIG    1       -4.356   2.964   4.984  0.00  0.00    +0.040 A 
ATOM      2  C   LIG    1       -3.981   3.188   3.640  0.00  0.00    +0.044 A 
ATOM      3  C   LIG    1       -2.799   2.538   3.443  0.00  0.00    +0.102 A 
ATOM      4  N   LIG    1       -2.435   1.932   4.625  0.00  0.00    -0.356 N 
ATOM      5  H   LIG    1       -1.631   1.405   4.763  0.00  0.00    +0.165 HD
ATOM      6  C   LIG    1       -3.367   2.184   5.557  0.00  0.00    +0.095 A 
ENDROOT
BRANCH   3   7
ATOM      7  C   LIG    1       -2.039   2.498   2.187  0.00  0.00    +0.261 C 
ATOM      8  N   LIG    1       -0.875   1.821   2.124  0.00  0.00    -0.306 N 
ATOM      9  H   LIG    1       -0.539   1.361   2.909  0.00  0.00    +0.149 HD
ATOM     10  O   LIG    1       -2.461   3.075   1.202  0.00  0.00    -0.269 OA
BRANCH   8  11
ATOM     11  C   LIG    1       -0.118   1.780   0.871  0.00  0.00    +0.143 C 
BRANCH  11  12
ATOM     12  C   LIG    1        1.135   0.966   1.067  0.00  0.00    +0.011 A 
ATOM     13  C   LIG    1        2.345   1.598   1.274  0.00  0.00    +0.009 A 
ATOM     14  C   LIG    1        3.496   0.852   1.448  0.00  0.00    +0.001 A 
ATOM     15  C   LIG    1        3.438  -0.530   1.417  0.00  0.00    +0.004 A 
ATOM     16  C   LIG    1        2.230  -1.167   1.210  0.00  0.00    +0.046 A 
ATOM     17  C   LIG    1        1.074  -0.420   1.035  0.00  0.00    +0.125 A 
BRANCH  17  18
ATOM     18  O   LIG    1       -0.116  -1.044   0.831  0.00  0.00    -0.495 OA
ATOM     19  C   LIG    1       -0.103  -2.473   0.810  0.00  0.00    +0.277 C 
ENDBRANCH  17  18
ENDBRANCH  11  12
ENDBRANCH   8  11
ENDBRANCH   3   7
BRANCH   1  20
ATOM     20  C   LIG    1       -5.568   3.471   5.651  0.00  0.00    +0.195 C 
ATOM     21  O   LIG    1       -6.354   4.167   5.037  0.00  0.00    -0.287 OA
BRANCH  20  28
ATOM     22  C   LIG    1       -6.538   0.832   6.337  0.00  0.00    +0.044 C 
ATOM     23  C   LIG    1       -6.297   1.863   7.409  0.00  0.00    -0.040 A 
ATOM     24  C   LIG    1       -6.534   1.553   8.732  0.00  0.00    +0.004 A 
ATOM     25  C   LIG    1       -6.319   2.500   9.717  0.00  0.00    +0.000 A 
ATOM     26  C   LIG    1       -5.860   3.762   9.384  0.00  0.00    +0.001 A 
ATOM     27  C   LIG    1       -5.614   4.084   8.066  0.00  0.00    +0.012 A 
ATOM     28  C   LIG    1       -5.829   3.133   7.066  0.00  0.00    +0.025 A 
ENDBRANCH  20  28
ENDBRANCH   1  20
TORSDOF 6
