REMARK  Name = ZINC00806272
REMARK                            x       y       z     vdW  Elec       q    Type
REMARK                         _______ _______ _______ _____ _____    ______ ____
ROOT
ATOM      1  C   LIG    1       -0.018   1.503   0.010  0.00  0.00    +0.044 C 
ATOM      2  C   LIG    1        0.002  -0.004   0.002  0.00  0.00    -0.048 A 
ATOM      3  C   LIG    1        0.006  -0.688  -1.202  0.00  0.00    +0.007 A 
ATOM      4  C   LIG    1        0.025  -2.069  -1.219  0.00  0.00    +0.049 A 
ATOM      5  C   LIG    1        0.041  -2.775  -0.026  0.00  0.00    +0.157 A 
ATOM      6  C   LIG    1        0.037  -2.085   1.186  0.00  0.00    +0.091 A 
ATOM      7  N   LIG    1        0.055  -3.050   2.193  0.00  0.00    -0.270 N 
ATOM      8  C   LIG    1        0.069  -4.258   1.597  0.00  0.00    +0.422 A 
ATOM      9  O   LIG    1        0.087  -5.327   2.176  0.00  0.00    -0.223 OA
ATOM     10  O   LIG    1        0.060  -4.099   0.264  0.00  0.00    -0.407 OA
ATOM     11  C   LIG    1        0.023  -0.699   1.196  0.00  0.00    +0.033 A 
ENDROOT
BRANCH   7  12
ATOM     12  C   LIG    1        0.059  -2.795   3.636  0.00  0.00    +0.163 C 
BRANCH  12  13
ATOM     13  C   LIG    1       -1.360  -2.727   4.138  0.00  0.00    -0.028 A 
ATOM     14  C   LIG    1       -2.030  -1.518   4.156  0.00  0.00    +0.005 A 
ATOM     15  C   LIG    1       -3.332  -1.456   4.616  0.00  0.00    +0.000 A 
ATOM     16  C   LIG    1       -3.964  -2.603   5.059  0.00  0.00    +0.000 A 
ATOM     17  C   LIG    1       -3.294  -3.812   5.041  0.00  0.00    +0.000 A 
ATOM     18  C   LIG    1       -1.994  -3.875   4.576  0.00  0.00    +0.005 A 
ENDBRANCH  12  13
ENDBRANCH   7  12
TORSDOF 2
