REMARK  Name = ZINC00895662
REMARK                            x       y       z     vdW  Elec       q    Type
REMARK                         _______ _______ _______ _____ _____    ______ ____
ROOT
ATOM      1  C   LIG    1       -2.308   1.262  -0.609  0.00  0.00    +0.040 A 
ATOM      2  C   LIG    1       -2.450   1.681  -1.928  0.00  0.00    +0.124 A 
ATOM      3  C   LIG    1       -3.387   1.119  -2.778  0.00  0.00    +0.046 A 
ATOM      4  C   LIG    1       -4.239   0.109  -2.344  0.00  0.00    +0.011 A 
ATOM      5  C   LIG    1       -4.102  -0.307  -1.038  0.00  0.00    +0.005 A 
ATOM      6  C   LIG    1       -4.845  -1.367  -0.265  0.00  0.00    +0.105 C 
ATOM      7  C   LIG    1       -6.198  -0.812   0.179  0.00  0.00    +0.241 C 
ATOM      8  O   LIG    1       -6.786  -1.716   1.119  0.00  0.00    -0.491 OA
ATOM      9  C   LIG    1       -6.059  -1.936   2.248  0.00  0.00    +0.131 A 
ATOM     10  C   LIG    1       -4.676  -1.861   2.212  0.00  0.00    +0.035 A 
ATOM     11  C   LIG    1       -3.958  -2.060   3.384  0.00  0.00    +0.014 A 
ATOM     12  C   LIG    1       -4.609  -2.338   4.567  0.00  0.00    +0.046 A 
ATOM     13  C   LIG    1       -5.994  -2.422   4.599  0.00  0.00    +0.120 A 
ATOM     14  C   LIG    1       -6.718  -2.220   3.434  0.00  0.00    +0.091 A 
ATOM     15  C   LIG    1       -3.923  -1.572   0.950  0.00  0.00    +0.218 C 
ATOM     16  O   LIG    1       -3.225  -0.317   1.058  0.00  0.00    -0.483 OA
ATOM     17  C   LIG    1       -3.158   0.250  -0.166  0.00  0.00    +0.132 A 
ENDROOT
BRANCH   2  18
ATOM     18  O   LIG    1       -1.641   2.668  -2.397  0.00  0.00    -0.506 OA
ATOM     19  H   LIG    1       -0.817   2.348  -2.789  0.00  0.00    +0.292 HD
ENDBRANCH   2  18
BRANCH  13  20
ATOM     20  O   LIG    1       -6.636  -2.700   5.764  0.00  0.00    -0.507 OA
ATOM     21  H   LIG    1       -6.870  -1.917   6.280  0.00  0.00    +0.292 HD
ENDBRANCH  13  20
BRANCH   1  22
ATOM     22  C   LIG    1       -1.282   1.881   0.305  0.00  0.00    +0.069 C 
BRANCH  22  26
ATOM     23  C   LIG    1        2.413   0.966  -0.207  0.00  0.00    +0.038 C 
ATOM     24  C   LIG    1        1.125   1.738  -0.080  0.00  0.00    -0.079 C 
ATOM     25  C   LIG    1        1.120   3.232  -0.281  0.00  0.00    +0.038 C 
ATOM     26  C   LIG    1        0.010   1.111   0.204  0.00  0.00    -0.023 C 
ENDBRANCH  22  26
ENDBRANCH   1  22
TORSDOF 4
