REMARK  Name = ZINC00706104
REMARK                            x       y       z     vdW  Elec       q    Type
REMARK                         _______ _______ _______ _____ _____    ______ ____
ROOT
ATOM      1  C   LIG    1        4.226   2.413   3.597  0.00  0.00    +0.034 C 
ATOM      2  C   LIG    1        5.114   2.368   2.352  0.00  0.00    +0.083 C 
ATOM      3  C   LIG    1        4.297   2.720   1.131  0.00  0.00    +0.115 C 
ATOM      4  C   LIG    1        3.259   3.573   1.223  0.00  0.00    +0.046 C 
ATOM      5  C   LIG    1        2.892   4.149   2.454  0.00  0.00    +0.164 C 
ATOM      6  O   LIG    1        1.959   4.927   2.493  0.00  0.00    -0.292 OA
ATOM      7  C   LIG    1        2.453   3.935  -0.001  0.00  0.00    +0.104 C 
ATOM      8  C   LIG    1        3.225   3.598  -1.246  0.00  0.00    +0.098 C 
ATOM      9  C   LIG    1        4.268   2.734  -1.194  0.00  0.00    +0.198 C 
ATOM     10  O   LIG    1        4.638   2.155  -0.042  0.00  0.00    -0.445 OA
ATOM     11  C   LIG    1        3.634   3.821   3.720  0.00  0.00    +0.088 C 
ENDROOT
BRANCH   7  12
ATOM     12  C   LIG    1        1.158   3.165   0.007  0.00  0.00    +0.001 A 
ATOM     13  C   LIG    1        1.175   1.783   0.000  0.00  0.00    +0.007 A 
ATOM     14  C   LIG    1       -0.013   1.076   0.008  0.00  0.00    +0.000 A 
ATOM     15  C   LIG    1       -1.220   1.750   0.017  0.00  0.00    +0.003 A 
ATOM     16  C   LIG    1       -1.240   3.132   0.030  0.00  0.00    +0.038 A 
ATOM     17  C   LIG    1       -0.050   3.841   0.022  0.00  0.00    +0.127 A 
ATOM     18  F   LIG    1       -0.068   5.192   0.030  0.00  0.00    -0.205 F 
ENDBRANCH   7  12
BRANCH   1  22
ATOM     19  C   LIG    1        6.565   1.530   7.061  0.00  0.00    +0.000 A 
ATOM     20  C   LIG    1        5.476   0.740   6.742  0.00  0.00    +0.000 A 
ATOM     21  C   LIG    1        4.719   1.025   5.621  0.00  0.00    +0.004 A 
ATOM     22  C   LIG    1        5.051   2.101   4.819  0.00  0.00    -0.043 A 
ATOM     23  C   LIG    1        6.143   2.888   5.135  0.00  0.00    +0.004 A 
ATOM     24  C   LIG    1        6.897   2.605   6.258  0.00  0.00    +0.000 A 
ENDBRANCH   1  22
BRANCH   9  25
ATOM     25  N   LIG    1        4.959   2.445  -2.344  0.00  0.00    -0.328 N 
ATOM     26  H   LIG    1        4.700   2.858  -3.183  0.00  0.00    +0.145 HD
ATOM     27  H   LIG    1        5.707   1.828  -2.318  0.00  0.00    +0.145 HD
ENDBRANCH   9  25
BRANCH   8  28
ATOM     28  C   LIG    1        2.856   4.194  -2.495  0.00  0.00    +0.101 C 
ATOM     29  N   LIG    1        2.563   4.667  -3.486  0.00  0.00    -0.191 NA
ENDBRANCH   8  28
TORSDOF 4
