REMARK  Name = ZINC01384090
REMARK                            x       y       z     vdW  Elec       q    Type
REMARK                         _______ _______ _______ _____ _____    ______ ____
ROOT
ATOM      1  C   LIG    1       -0.018   1.503   0.010  0.00  0.00    +0.066 C 
ATOM      2  C   LIG    1        0.002  -0.004   0.002  0.00  0.00    +0.042 A 
ATOM      3  C   LIG    1       -1.205  -0.719   0.004  0.00  0.00    +0.046 A 
ATOM      4  C   LIG    1       -1.177  -2.074  -0.004  0.00  0.00    +0.044 A 
ATOM      5  C   LIG    1       -2.460  -2.864  -0.002  0.00  0.00    +0.066 C 
ATOM      6  N   LIG    1        0.029  -2.713  -0.014  0.00  0.00    -0.217 N 
ATOM      7  C   LIG    1        1.189  -1.981  -0.015  0.00  0.00    +0.181 A 
ATOM      8  C   LIG    1        2.240  -2.889  -0.026  0.00  0.00    +0.157 A 
ATOM      9  C   LIG    1        1.693  -4.164  -0.030  0.00  0.00    +0.164 A 
ATOM     10  N   LIG    1        0.383  -4.067  -0.023  0.00  0.00    -0.171 NA
ATOM     11  N   LIG    1        1.149  -0.642  -0.012  0.00  0.00    -0.231 NA
ENDROOT
BRANCH   8  12
ATOM     12  S   LIG    1        3.957  -2.493  -0.033  0.00  0.00    +0.030 S 
ATOM     13  O   LIG    1        4.658  -3.729  -0.070  0.00  0.00    -0.164 OA
ATOM     14  O   LIG    1        4.157  -1.535   0.997  0.00  0.00    -0.164 OA
BRANCH  12  15
ATOM     15  C   LIG    1        4.296  -1.675  -1.556  0.00  0.00    +0.094 A 
ATOM     16  C   LIG    1        4.665  -2.409  -2.667  0.00  0.00    +0.027 A 
ATOM     17  C   LIG    1        4.932  -1.767  -3.862  0.00  0.00    +0.002 A 
ATOM     18  C   LIG    1        4.829  -0.391  -3.946  0.00  0.00    +0.000 A 
ATOM     19  C   LIG    1        4.459   0.343  -2.834  0.00  0.00    +0.002 A 
ATOM     20  C   LIG    1        4.189  -0.300  -1.640  0.00  0.00    +0.027 A 
ENDBRANCH  12  15
ENDBRANCH   8  12
TORSDOF 2
