REMARK  Name = ZINC00725629
REMARK                            x       y       z     vdW  Elec       q    Type
REMARK                         _______ _______ _______ _____ _____    ______ ____
ROOT
ATOM      1  N   LIG    1       -6.247  -4.615   0.043  0.00  0.00    -0.174 NA
ATOM      2  C   LIG    1       -6.300  -5.921  -0.058  0.00  0.00    +0.153 C 
ATOM      3  C   LIG    1       -5.164  -6.872  -0.079  0.00  0.00    +0.029 A 
ATOM      4  C   LIG    1       -3.785  -6.709  -0.006  0.00  0.00    +0.027 A 
ATOM      5  C   LIG    1       -2.961  -7.817  -0.053  0.00  0.00    +0.019 A 
ATOM      6 BR   LIG    1       -1.085  -7.603   0.044  0.00  0.00    -0.050 Br
ATOM      7  C   LIG    1       -3.509  -9.084  -0.173  0.00  0.00    +0.017 A 
ATOM      8  C   LIG    1       -4.876  -9.255  -0.246  0.00  0.00    +0.025 A 
ATOM      9  C   LIG    1       -5.721  -8.151  -0.200  0.00  0.00    +0.047 A 
ATOM     10  N   LIG    1       -7.107  -8.046  -0.253  0.00  0.00    -0.252 N 
ATOM     11  C   LIG    1       -7.506  -6.766  -0.168  0.00  0.00    +0.272 C 
ATOM     12  O   LIG    1       -8.658  -6.372  -0.182  0.00  0.00    -0.268 OA
ENDROOT
BRANCH   1  14
ATOM     13  C   LIG    1       -4.943  -2.627   0.169  0.00  0.00    +0.263 C 
ATOM     14  N   LIG    1       -5.013  -3.956  -0.045  0.00  0.00    -0.202 N 
ATOM     15  H   LIG    1       -4.210  -4.456  -0.259  0.00  0.00    +0.178 HD
ATOM     16  O   LIG    1       -5.950  -2.000   0.437  0.00  0.00    -0.268 OA
BRANCH  13  20
ATOM     17  C   LIG    1       -1.206  -0.629  -0.094  0.00  0.00    +0.120 A 
ATOM     18  C   LIG    1       -2.356   0.089   0.212  0.00  0.00    +0.046 A 
ATOM     19  C   LIG    1       -3.570  -0.555   0.298  0.00  0.00    +0.016 A 
ATOM     20  C   LIG    1       -3.645  -1.933   0.077  0.00  0.00    +0.039 A 
ATOM     21  C   LIG    1       -2.486  -2.652  -0.231  0.00  0.00    +0.016 A 
ATOM     22  C   LIG    1       -1.277  -1.999  -0.320  0.00  0.00    +0.046 A 
BRANCH  17  24
ATOM     23  C   LIG    1       -0.010   1.417   0.066  0.00  0.00    +0.277 C 
ATOM     24  O   LIG    1       -0.011   0.009  -0.178  0.00  0.00    -0.495 OA
ENDBRANCH  17  24
ENDBRANCH  13  20
ENDBRANCH   1  14
BRANCH  10  25
ATOM     25  C   LIG    1       -8.017  -9.188  -0.380  0.00  0.00    +0.201 C 
BRANCH  25  26
ATOM     26  N   LIG    1       -8.382  -9.674   0.958  0.00  0.00    -0.282 NA
ATOM     27  C   LIG    1       -7.333 -10.546   1.506  0.00  0.00    +0.114 C 
ATOM     28  C   LIG    1       -7.725 -10.981   2.920  0.00  0.00    +0.175 C 
ATOM     29  O   LIG    1       -9.000 -11.627   2.878  0.00  0.00    -0.377 OA
ATOM     30  C   LIG    1      -10.045 -10.806   2.351  0.00  0.00    +0.175 C 
ATOM     31  C   LIG    1       -9.677 -10.369   0.931  0.00  0.00    +0.114 C 
ENDBRANCH  25  26
ENDBRANCH  10  25
TORSDOF 5
