REMARK  Name = ZINC00828630
REMARK                            x       y       z     vdW  Elec       q    Type
REMARK                         _______ _______ _______ _____ _____    ______ ____
ROOT
ATOM      1  C   LIG    1       -0.018   1.503   0.010  0.00  0.00    +0.104 A 
ATOM      2  N   LIG    1        0.980   2.364   0.005  0.00  0.00    -0.145 NA
ATOM      3  N   LIG    1        0.792   3.611   0.014  0.00  0.00    -0.126 NA
ATOM      4  C   LIG    1       -0.427   4.134   0.028  0.00  0.00    +0.188 A 
ATOM      5  S   LIG    1       -1.406   2.635   0.022  0.00  0.00    -0.035 S 
ENDROOT
BRANCH   4   6
ATOM      6  N   LIG    1       -0.828   5.464   0.039  0.00  0.00    -0.259 N 
ATOM      7  H   LIG    1       -1.773   5.686   0.049  0.00  0.00    +0.157 HD
ATOM      8  C   LIG    1        0.094   6.447   0.036  0.00  0.00    +0.251 C 
ATOM      9  O   LIG    1        1.278   6.169   0.024  0.00  0.00    -0.270 OA
BRANCH   8  10
ATOM     10  C   LIG    1       -0.333   7.860   0.048  0.00  0.00    +0.055 A 
ATOM     11  C   LIG    1       -1.692   8.183   0.062  0.00  0.00    +0.016 A 
ATOM     12  C   LIG    1       -2.084   9.504   0.073  0.00  0.00    +0.021 A 
ATOM     13  C   LIG    1       -1.134  10.512   0.070  0.00  0.00    +0.042 A 
ATOM     14 CL   LIG    1       -1.637  12.174   0.084  0.00  0.00    -0.083 Cl
ATOM     15  C   LIG    1        0.215  10.201   0.055  0.00  0.00    +0.040 A 
ATOM     16  C   LIG    1        0.621   8.882   0.051  0.00  0.00    +0.054 A 
ATOM     17 CL   LIG    1        2.313   8.492   0.040  0.00  0.00    -0.083 Cl
ENDBRANCH   8  10
ENDBRANCH   4   6
BRANCH   1  18
ATOM     18  C   LIG    1        0.002  -0.004   0.002  0.00  0.00    +0.069 C 
BRANCH  18  19
ATOM     19  C   LIG    1        0.022  -0.522   1.442  0.00  0.00    +0.042 C 
BRANCH  19  23
ATOM     20  C   LIG    1        0.080  -4.793   1.419  0.00  0.00    +0.000 A 
ATOM     21  C   LIG    1        1.268  -4.086   1.411  0.00  0.00    +0.000 A 
ATOM     22  C   LIG    1        1.249  -2.703   1.419  0.00  0.00    +0.003 A 
ATOM     23  C   LIG    1        0.043  -2.029   1.433  0.00  0.00    -0.047 A 
ATOM     24  C   LIG    1       -1.145  -2.736   1.446  0.00  0.00    +0.003 A 
ATOM     25  C   LIG    1       -1.126  -4.118   1.433  0.00  0.00    +0.000 A 
ENDBRANCH  19  23
ENDBRANCH  18  19
ENDBRANCH   1  18
TORSDOF 5
