REMARK  Name = ZINC00968517
REMARK                            x       y       z     vdW  Elec       q    Type
REMARK                         _______ _______ _______ _____ _____    ______ ____
ROOT
ATOM      1  C   LIG    1       -1.239   5.964   0.442  0.00  0.00    +0.108 C 
ATOM      2  C   LIG    1       -2.454   5.362  -0.279  0.00  0.00    +0.106 C 
ATOM      3  C   LIG    1       -2.501   3.882   0.050  0.00  0.00    +0.167 C 
ATOM      4  C   LIG    1       -1.231   3.142   0.030  0.00  0.00    +0.038 A 
ATOM      5  C   LIG    1       -1.217   1.744   0.017  0.00  0.00    +0.013 A 
ATOM      6  C   LIG    1       -0.013   1.076   0.008  0.00  0.00    +0.001 A 
ATOM      7  C   LIG    1        1.181   1.782   0.000  0.00  0.00    +0.002 A 
ATOM      8  C   LIG    1        1.183   3.162   0.006  0.00  0.00    +0.023 A 
ATOM      9  C   LIG    1       -0.019   3.856   0.020  0.00  0.00    +0.038 A 
ATOM     10  O   LIG    1       -3.547   3.331   0.321  0.00  0.00    -0.292 OA
ATOM     11  N   LIG    1       -0.032   5.243   0.020  0.00  0.00    -0.336 N 
ATOM     12  H   LIG    1        0.756   5.736  -0.258  0.00  0.00    +0.147 HD
ENDROOT
BRANCH   1  16
ATOM     13  C   LIG    1       -1.745   5.576   4.666  0.00  0.00    +0.000 A 
ATOM     14  C   LIG    1       -2.018   6.781   4.045  0.00  0.00    +0.000 A 
ATOM     15  C   LIG    1       -1.854   6.906   2.678  0.00  0.00    +0.005 A 
ATOM     16  C   LIG    1       -1.417   5.827   1.932  0.00  0.00    -0.027 A 
ATOM     17  C   LIG    1       -1.149   4.622   2.553  0.00  0.00    +0.005 A 
ATOM     18  C   LIG    1       -1.308   4.498   3.920  0.00  0.00    +0.000 A 
ENDBRANCH   1  16
TORSDOF 1
