REMARK  Name = ZINC00899531
REMARK                            x       y       z     vdW  Elec       q    Type
REMARK                         _______ _______ _______ _____ _____    ______ ____
ROOT
ATOM      1  C   LIG    1       -0.749   3.086   1.275  0.00  0.00    -0.045 A 
ATOM      2  C   LIG    1       -2.002   3.663   1.290  0.00  0.00    +0.007 A 
ATOM      3  C   LIG    1       -2.344   5.012   1.301  0.00  0.00    +0.049 A 
ATOM      4  C   LIG    1       -1.508   6.113   1.299  0.00  0.00    +0.164 A 
ATOM      5  C   LIG    1       -0.090   6.137   1.286  0.00  0.00    +0.220 A 
ATOM      6  C   LIG    1        0.797   5.047   1.271  0.00  0.00    +0.055 A 
ATOM      7  O   LIG    1        0.426   7.247   1.287  0.00  0.00    -0.284 OA
ATOM      8  C   LIG    1        0.500   3.703   1.272  0.00  0.00    +0.008 A 
ENDROOT
BRANCH   1  10
ATOM      9  C   LIG    1       -0.013   1.086   0.008  0.00  0.00    +0.012 C 
ATOM     10  C   LIG    1       -0.729   1.579   1.267  0.00  0.00    +0.013 C 
ATOM     11  C   LIG    1        0.011   1.072   2.506  0.00  0.00    +0.012 C 
ENDBRANCH   1  10
BRANCH   4  12
ATOM     12  O   LIG    1       -2.121   7.321   1.312  0.00  0.00    -0.503 OA
ATOM     13  H   LIG    1       -2.290   7.667   2.199  0.00  0.00    +0.292 HD
ENDBRANCH   4  12
TORSDOF 2
