REMARK  Name = ZINC00728135
REMARK                            x       y       z     vdW  Elec       q    Type
REMARK                         _______ _______ _______ _____ _____    ______ ____
ROOT
ATOM      1  C   LIG    1       -0.128   9.603   0.056  0.00  0.00    +0.101 C 
ATOM      2  C   LIG    1        0.557  10.117  -1.179  0.00  0.00    +0.098 C 
ATOM      3  C   LIG    1        1.826  10.588  -1.113  0.00  0.00    +0.198 C 
ATOM      4  O   LIG    1        2.507  10.604   0.043  0.00  0.00    -0.445 OA
ATOM      5  C   LIG    1        1.842  10.570   1.213  0.00  0.00    +0.115 C 
ATOM      6  C   LIG    1        2.558  11.063   2.449  0.00  0.00    +0.083 C 
ATOM      7  C   LIG    1        1.552  11.661   3.424  0.00  0.00    +0.034 C 
ATOM      8  C   LIG    1        0.524  10.582   3.780  0.00  0.00    +0.088 C 
ATOM      9  C   LIG    1       -0.111  10.077   2.513  0.00  0.00    +0.164 C 
ATOM     10  O   LIG    1       -1.242   9.636   2.547  0.00  0.00    -0.292 OA
ATOM     11  C   LIG    1        0.584  10.106   1.288  0.00  0.00    +0.046 C 
ENDROOT
BRANCH   1  15
ATOM     12  C   LIG    1       -0.070   5.328   0.032  0.00  0.00    -0.018 A 
ATOM     13  C   LIG    1        1.125   6.043   0.030  0.00  0.00    +0.009 A 
ATOM     14  C   LIG    1        1.101   7.423   0.032  0.00  0.00    +0.005 A 
ATOM     15  C   LIG    1       -0.108   8.096   0.047  0.00  0.00    -0.035 A 
ATOM     16  C   LIG    1       -1.298   7.391   0.055  0.00  0.00    +0.005 A 
ATOM     17  C   LIG    1       -1.285   6.011   0.047  0.00  0.00    +0.009 A 
BRANCH  12  21
ATOM     18  C   LIG    1       -0.013   1.076   0.008  0.00  0.00    +0.000 A 
ATOM     19  C   LIG    1       -1.221   1.748   0.017  0.00  0.00    +0.001 A 
ATOM     20  C   LIG    1       -1.246   3.128   0.031  0.00  0.00    +0.008 A 
ATOM     21  C   LIG    1       -0.050   3.844   0.023  0.00  0.00    -0.018 A 
ATOM     22  C   LIG    1        1.164   3.161   0.008  0.00  0.00    +0.008 A 
ATOM     23  C   LIG    1        1.177   1.781   0.000  0.00  0.00    +0.001 A 
ENDBRANCH  12  21
ENDBRANCH   1  15
BRANCH   7  24
ATOM     24  C   LIG    1        2.264  12.114   4.672  0.00  0.00    -0.043 A 
ATOM     25  C   LIG    1        2.980  11.205   5.428  0.00  0.00    +0.004 A 
ATOM     26  C   LIG    1        3.637  11.622   6.571  0.00  0.00    +0.000 A 
ATOM     27  C   LIG    1        3.570  12.946   6.963  0.00  0.00    +0.000 A 
ATOM     28  C   LIG    1        2.850  13.854   6.209  0.00  0.00    +0.000 A 
ATOM     29  C   LIG    1        2.197  13.438   5.064  0.00  0.00    +0.004 A 
ENDBRANCH   7  24
BRANCH   3  30
ATOM     30  N   LIG    1        2.428  11.058  -2.254  0.00  0.00    -0.328 N 
ATOM     31  H   LIG    1        3.336  11.398  -2.218  0.00  0.00    +0.145 HD
ATOM     32  H   LIG    1        1.946  11.051  -3.095  0.00  0.00    +0.145 HD
ENDBRANCH   3  30
BRANCH   2  33
ATOM     33  C   LIG    1       -0.135  10.110  -2.433  0.00  0.00    +0.101 C 
ATOM     34  N   LIG    1       -0.684  10.104  -3.428  0.00  0.00    -0.191 NA
ENDBRANCH   2  33
TORSDOF 5
