REMARK  Name = ZINC00968328
REMARK                            x       y       z     vdW  Elec       q    Type
REMARK                         _______ _______ _______ _____ _____    ______ ____
ROOT
ATOM      1  C   LIG    1       -3.335  -2.240   1.041  0.00  0.00    +0.121 A 
ATOM      2  C   LIG    1       -3.976  -1.747   2.169  0.00  0.00    +0.046 A 
ATOM      3  C   LIG    1       -5.285  -2.102   2.428  0.00  0.00    +0.007 A 
ATOM      4  C   LIG    1       -5.957  -2.947   1.565  0.00  0.00    -0.046 A 
ATOM      5  C   LIG    1       -5.321  -3.440   0.440  0.00  0.00    +0.007 A 
ATOM      6  C   LIG    1       -4.013  -3.084   0.174  0.00  0.00    +0.046 A 
ENDROOT
BRANCH   1   7
ATOM      7  O   LIG    1       -2.046  -1.892   0.784  0.00  0.00    -0.490 OA
BRANCH   7   8
ATOM      8  C   LIG    1       -1.411  -1.020   1.720  0.00  0.00    +0.248 C 
BRANCH   8   9
ATOM      9  C   LIG    1        0.024  -0.743   1.267  0.00  0.00    +0.147 C 
BRANCH   9  11
ATOM     10  C   LIG    1       -0.018   1.461   0.010  0.00  0.00    +0.131 C 
ATOM     11  N   LIG    1        0.002  -0.004   0.002  0.00  0.00    -0.315 N 
BRANCH  11  12
ATOM     12  C   LIG    1        0.000  -0.693  -1.206  0.00  0.00    +0.121 A 
ATOM     13  C   LIG    1        0.090   0.013  -2.401  0.00  0.00    +0.043 A 
ATOM     14  C   LIG    1        0.087  -0.685  -3.596  0.00  0.00    +0.005 A 
ATOM     15  C   LIG    1       -0.007  -2.070  -3.554  0.00  0.00    +0.020 A 
ATOM     16  C   LIG    1       -0.093  -2.705  -2.331  0.00  0.00    +0.113 A 
ATOM     17  N   LIG    1       -0.082  -2.014  -1.207  0.00  0.00    -0.240 NA
ENDBRANCH  11  12
ENDBRANCH   9  11
ENDBRANCH   8   9
ENDBRANCH   7   8
ENDBRANCH   1   7
BRANCH   4  18
ATOM     18  C   LIG    1       -7.386  -3.333   1.850  0.00  0.00    +0.059 C 
BRANCH  18  19
ATOM     19  C   LIG    1       -8.328  -2.325   1.188  0.00  0.00    +0.146 C 
ATOM     20  C   LIG    1       -9.787  -2.688   1.431  0.00  0.00    +0.234 C 
ATOM     21  N   LIG    1      -10.486  -1.798   2.114  0.00  0.00    -0.246 N 
ATOM     22  H   LIG    1      -11.421  -1.986   2.292  0.00  0.00    +0.158 HD
ATOM     23  C   LIG    1       -9.970  -0.643   2.573  0.00  0.00    +0.279 C 
ATOM     24  O   LIG    1      -10.532   0.231   3.206  0.00  0.00    -0.263 OA
ATOM     25  O   LIG    1      -10.273  -3.723   1.027  0.00  0.00    -0.274 OA
ATOM     26  S   LIG    1       -8.265  -0.692   2.037  0.00  0.00    -0.054 S 
ENDBRANCH  18  19
ENDBRANCH   4  18
TORSDOF 7
