REMARK  Name = ZINC00782896
REMARK                            x       y       z     vdW  Elec       q    Type
REMARK                         _______ _______ _______ _____ _____    ______ ____
ROOT
ATOM      1  C   LIG    1       -2.066   1.840   5.837  0.00  0.00    +0.249 C 
ATOM      2  N   LIG    1       -1.289   1.179   4.956  0.00  0.00    -0.275 N 
ATOM      3  H   LIG    1       -0.735   0.442   5.256  0.00  0.00    +0.156 HD
ATOM      4  O   LIG    1       -2.761   2.763   5.461  0.00  0.00    -0.270 OA
ENDROOT
BRANCH   2   5
ATOM      5  C   LIG    1       -1.283   1.551   3.622  0.00  0.00    +0.085 A 
ATOM      6  C   LIG    1       -0.559   0.998   2.575  0.00  0.00    +0.068 A 
ATOM      7  C   LIG    1       -0.732   1.580   1.257  0.00  0.00    -0.023 A 
ATOM      8  C   LIG    1       -1.601   2.615   1.194  0.00  0.00    -0.004 A 
ATOM      9  C   LIG    1       -1.979   3.405  -0.021  0.00  0.00    +0.043 C 
ATOM     10  C   LIG    1       -0.956   3.111  -1.127  0.00  0.00    +0.005 C 
ATOM     11  C   LIG    1       -0.758   1.595  -1.227  0.00  0.00    +0.005 C 
ATOM     12  C   LIG    1       -0.013   1.086   0.008  0.00  0.00    +0.037 C 
ATOM     13  S   LIG    1       -2.179   2.821   2.854  0.00  0.00    -0.077 S 
BRANCH   6  14
ATOM     14  C   LIG    1        0.350  -0.131   2.793  0.00  0.00    +0.244 C 
ATOM     15  N   LIG    1        1.642   0.094   3.104  0.00  0.00    -0.325 N 
ATOM     16  H   LIG    1        2.244  -0.653   3.249  0.00  0.00    +0.145 HD
ATOM     17  H   LIG    1        1.970   1.003   3.185  0.00  0.00    +0.145 HD
ATOM     18  O   LIG    1       -0.062  -1.272   2.693  0.00  0.00    -0.270 OA
ENDBRANCH   6  14
ENDBRANCH   2   5
BRANCH   1  21
ATOM     19  C   LIG    1       -2.879   1.749   9.507  0.00  0.00    +0.124 A 
ATOM     20  C   LIG    1       -2.876   2.126   8.174  0.00  0.00    +0.059 A 
ATOM     21  C   LIG    1       -2.073   1.442   7.261  0.00  0.00    +0.044 A 
ATOM     22  C   LIG    1       -1.280   0.379   7.694  0.00  0.00    +0.059 A 
ATOM     23  C   LIG    1       -1.285   0.013   9.030  0.00  0.00    +0.124 A 
ATOM     24  C   LIG    1       -2.085   0.695   9.935  0.00  0.00    +0.091 A 
BRANCH  19  26
ATOM     25  C   LIG    1       -3.616   1.973  11.757  0.00  0.00    +0.277 C 
ATOM     26  O   LIG    1       -3.662   2.414  10.398  0.00  0.00    -0.495 OA
ENDBRANCH  19  26
BRANCH  23  27
ATOM     27  O   LIG    1       -0.508  -1.018   9.454  0.00  0.00    -0.495 OA
ATOM     28  C   LIG    1       -0.567  -1.346  10.844  0.00  0.00    +0.277 C 
ENDBRANCH  23  27
ENDBRANCH   1  21
TORSDOF 5
