REMARK  Name = ZINC01176211
REMARK                            x       y       z     vdW  Elec       q    Type
REMARK                         _______ _______ _______ _____ _____    ______ ____
ROOT
ATOM      1  C   LIG    1        2.498   3.360  -0.004  0.00  0.00    +0.040 C 
ATOM      2  C   LIG    1        2.138   4.164   1.246  0.00  0.00    +0.084 C 
ATOM      3  C   LIG    1        2.864   5.490   1.224  0.00  0.00    +0.115 C 
ATOM      4  C   LIG    1        3.152   6.096   0.058  0.00  0.00    +0.046 C 
ATOM      5  C   LIG    1        2.804   5.513  -1.176  0.00  0.00    +0.164 C 
ATOM      6  O   LIG    1        3.066   6.100  -2.207  0.00  0.00    -0.292 OA
ATOM      7  C   LIG    1        3.861   7.429   0.040  0.00  0.00    +0.101 C 
ATOM      8  C   LIG    1        3.758   8.087   1.387  0.00  0.00    +0.098 C 
ATOM      9  C   LIG    1        3.438   7.358   2.484  0.00  0.00    +0.198 C 
ATOM     10  O   LIG    1        3.209   6.038   2.403  0.00  0.00    -0.445 OA
ATOM     11  C   LIG    1        2.113   4.179  -1.241  0.00  0.00    +0.088 C 
ENDROOT
BRANCH   7  12
ATOM     12  C   LIG    1        5.314   7.217  -0.303  0.00  0.00    -0.034 A 
ATOM     13  C   LIG    1        6.108   6.431   0.509  0.00  0.00    +0.007 A 
ATOM     14  C   LIG    1        7.439   6.233   0.192  0.00  0.00    +0.033 A 
ATOM     15  C   LIG    1        7.978   6.830  -0.932  0.00  0.00    +0.122 A 
ATOM     16  C   LIG    1        7.184   7.622  -1.742  0.00  0.00    +0.033 A 
ATOM     17  C   LIG    1        5.852   7.815  -1.427  0.00  0.00    +0.007 A 
BRANCH  15  18
ATOM     18  N   LIG    1        9.404   6.623  -1.268  0.00  0.00    +0.006 N 
ATOM     19  O   LIG    1        9.879   7.150  -2.259  0.00  0.00    -0.130 OA
BRANCH  18  20
ATOM     20  O   LIG    1       10.104   5.926  -0.555  0.00  0.00    -0.396 OA
ATOM     21  H   LIG    1        9.738   5.521   0.207  0.00  0.00    +0.329 HD
ENDBRANCH  18  20
ENDBRANCH  15  18
ENDBRANCH   7  12
BRANCH   1  24
ATOM     22  C   LIG    1        1.332  -0.266  -0.012  0.00  0.00    +0.008 A 
ATOM     23  C   LIG    1        2.223   0.790  -0.015  0.00  0.00    +0.011 A 
ATOM     24  C   LIG    1        1.742   2.057  -0.004  0.00  0.00    -0.006 A 
ATOM     25  S   LIG    1       -0.022   1.781   0.012  0.00  0.00    -0.101 S 
ATOM     26  C   LIG    1        0.002  -0.004   0.002  0.00  0.00    +0.045 A 
ENDBRANCH   1  24
BRANCH   9  27
ATOM     27  N   LIG    1        3.347   7.983   3.703  0.00  0.00    -0.328 N 
ATOM     28  H   LIG    1        3.510   8.937   3.772  0.00  0.00    +0.145 HD
ATOM     29  H   LIG    1        3.119   7.471   4.494  0.00  0.00    +0.145 HD
ENDBRANCH   9  27
BRANCH   8  30
ATOM     30  C   LIG    1        3.999   9.493   1.512  0.00  0.00    +0.101 C 
ATOM     31  N   LIG    1        4.191  10.608   1.612  0.00  0.00    -0.191 NA
ENDBRANCH   8  30
TORSDOF 6
