REMARK  Name = ZINC00706878
REMARK                            x       y       z     vdW  Elec       q    Type
REMARK                         _______ _______ _______ _____ _____    ______ ____
ROOT
ATOM      1  C   LIG    1        2.683   6.267   0.107  0.00  0.00    +0.034 A 
ATOM      2  C   LIG    1        3.986   5.793   0.023  0.00  0.00    +0.027 A 
ATOM      3  C   LIG    1        4.223   4.434  -0.028  0.00  0.00    +0.048 A 
ATOM      4  C   LIG    1        3.162   3.542   0.005  0.00  0.00    +0.131 A 
ATOM      5  C   LIG    1        1.859   4.015   0.083  0.00  0.00    +0.048 A 
ATOM      6  C   LIG    1        1.620   5.374   0.139  0.00  0.00    +0.027 A 
ENDROOT
BRANCH   1   8
ATOM      7  C   LIG    1        1.422   8.123   0.900  0.00  0.00    +0.248 C 
ATOM      8  N   LIG    1        2.441   7.645   0.159  0.00  0.00    -0.281 N 
ATOM      9  H   LIG    1        3.007   8.256  -0.339  0.00  0.00    +0.155 HD
ATOM     10  O   LIG    1        0.662   7.354   1.456  0.00  0.00    -0.270 OA
BRANCH   7  14
ATOM     11  C   LIG    1        0.865  12.315   1.294  0.00  0.00    +0.000 A 
ATOM     12  C   LIG    1       -0.002  11.443   1.928  0.00  0.00    +0.001 A 
ATOM     13  C   LIG    1        0.173  10.080   1.804  0.00  0.00    +0.013 A 
ATOM     14  C   LIG    1        1.228   9.582   1.037  0.00  0.00    +0.037 A 
ATOM     15  C   LIG    1        2.102  10.468   0.405  0.00  0.00    +0.013 A 
ATOM     16  C   LIG    1        1.912  11.828   0.532  0.00  0.00    +0.001 A 
ENDBRANCH   7  14
ENDBRANCH   1   8
BRANCH   4  17
ATOM     17  O   LIG    1        3.397   2.204  -0.045  0.00  0.00    -0.437 OA
BRANCH  17  18
ATOM     18  C   LIG    1        3.872   1.599   1.070  0.00  0.00    +0.232 A 
ATOM     19  C   LIG    1        4.035   0.189   1.109  0.00  0.00    +0.073 A 
ATOM     20  C   LIG    1        3.753  -0.796   0.064  0.00  0.00    -0.023 A 
ATOM     21  C   LIG    1        3.999  -2.089   0.359  0.00  0.00    -0.004 A 
ATOM     22  C   LIG    1        3.797  -3.277  -0.531  0.00  0.00    +0.043 C 
ATOM     23  C   LIG    1        2.913  -2.853  -1.713  0.00  0.00    +0.005 C 
ATOM     24  C   LIG    1        3.459  -1.543  -2.288  0.00  0.00    +0.005 C 
ATOM     25  S   LIG    1        4.613  -2.075   2.022  0.00  0.00    -0.073 S 
ATOM     26  C   LIG    1        3.206  -0.399  -1.305  0.00  0.00    +0.037 C 
ATOM     27  C   LIG    1        4.537  -0.329   2.321  0.00  0.00    +0.116 A 
ATOM     28  N   LIG    1        4.828   0.458   3.338  0.00  0.00    -0.228 NA
ATOM     29  C   LIG    1        4.654   1.762   3.241  0.00  0.00    +0.226 A 
ATOM     30  N   LIG    1        4.188   2.314   2.135  0.00  0.00    -0.201 NA
ENDBRANCH  17  18
ENDBRANCH   4  17
TORSDOF 4
