REMARK  Name = ZINC01085959
REMARK                            x       y       z     vdW  Elec       q    Type
REMARK                         _______ _______ _______ _____ _____    ______ ____
ROOT
ATOM      1  C   LIG    1        0.002  -0.004   0.002  0.00  0.00    +0.136 A 
ATOM      2  C   LIG    1       -0.016   1.361   0.009  0.00  0.00    +0.050 A 
ATOM      3  C   LIG    1        1.315   1.790  -0.001  0.00  0.00    +0.053 A 
ATOM      4  C   LIG    1        2.099   0.657  -0.015  0.00  0.00    +0.171 A 
ATOM      5  O   LIG    1        1.282  -0.417  -0.012  0.00  0.00    -0.452 OA
ENDROOT
BRANCH   4   6
ATOM      6  C   LIG    1        3.565   0.623  -0.028  0.00  0.00    +0.178 A 
ATOM      7  N   LIG    1        4.215  -0.584  -0.035  0.00  0.00    -0.304 N 
ATOM      8  C   LIG    1        5.559  -0.651  -0.053  0.00  0.00    +0.260 A 
ATOM      9  C   LIG    1        6.317   0.565  -0.054  0.00  0.00    +0.075 A 
ATOM     10  C   LIG    1        7.770   0.725  -0.068  0.00  0.00    -0.023 A 
ATOM     11  C   LIG    1        8.248   1.988  -0.067  0.00  0.00    -0.004 A 
ATOM     12  C   LIG    1        9.684   2.415  -0.079  0.00  0.00    +0.043 C 
ATOM     13  C   LIG    1       10.553   1.201   0.280  0.00  0.00    +0.005 C 
ATOM     14  C   LIG    1       10.096   0.004  -0.559  0.00  0.00    +0.005 C 
ATOM     15  S   LIG    1        6.810   3.024  -0.046  0.00  0.00    -0.073 S 
ATOM     16  C   LIG    1        8.721  -0.468  -0.085  0.00  0.00    +0.037 C 
ATOM     17  C   LIG    1        5.568   1.756  -0.041  0.00  0.00    +0.116 A 
ATOM     18  O   LIG    1        6.123  -1.731  -0.065  0.00  0.00    -0.267 OA
ATOM     19  H   LIG    1        3.680  -1.429  -0.027  0.00  0.00    +0.170 HD
ATOM     20  N   LIG    1        4.243   1.756  -0.028  0.00  0.00    -0.219 NA
ENDBRANCH   4   6
BRANCH   1  26
ATOM     21  C   LIG    1       -2.466  -0.322   0.028  0.00  0.00    +0.012 A 
ATOM     22  C   LIG    1       -3.565  -1.133   0.029  0.00  0.00    +0.015 A 
ATOM     23  C   LIG    1       -3.408  -2.523   0.020  0.00  0.00    +0.059 A 
ATOM     24  C   LIG    1       -2.126  -3.082   0.005  0.00  0.00    +0.015 A 
ATOM     25  C   LIG    1       -1.027  -2.270  -0.001  0.00  0.00    +0.012 A 
ATOM     26  C   LIG    1       -1.184  -0.880   0.008  0.00  0.00    +0.017 A 
BRANCH  23  27
ATOM     27  C   LIG    1       -4.594  -3.400   0.028  0.00  0.00    +0.337 C 
ATOM     28  O   LIG    1       -4.457  -4.607   0.020  0.00  0.00    -0.245 OA
BRANCH  27  29
ATOM     29  O   LIG    1       -5.829  -2.861   0.043  0.00  0.00    -0.477 OA
ATOM     30  H   LIG    1       -5.935  -1.930   0.048  0.00  0.00    +0.295 HD
ENDBRANCH  27  29
ENDBRANCH  23  27
ENDBRANCH   1  26
TORSDOF 4
