REMARK  Name = ZINC01391365
REMARK                            x       y       z     vdW  Elec       q    Type
REMARK                         _______ _______ _______ _____ _____    ______ ____
ROOT
ATOM      1  C   LIG    1       -0.018   1.445   0.010  0.00  0.00    +0.051 A 
ATOM      2  C   LIG    1        1.276   1.827  -0.000  0.00  0.00    +0.196 A 
ATOM      3  O   LIG    1        2.059   0.732  -0.012  0.00  0.00    -0.467 OA
ATOM      4  C   LIG    1        1.323  -0.374  -0.026  0.00  0.00    +0.114 A 
ATOM      5  C   LIG    1        1.738  -1.821  -0.080  0.00  0.00    +0.080 C 
ATOM      6  C   LIG    1        0.714  -2.681   0.661  0.00  0.00    +0.046 C 
ATOM      7  C   LIG    1       -0.699  -2.337   0.291  0.00  0.00    -0.003 A 
ATOM      8  C   LIG    1       -1.682  -3.306   0.261  0.00  0.00    +0.120 A 
ATOM      9  N   LIG    1       -2.931  -2.950  -0.005  0.00  0.00    -0.223 NA
ATOM     10  C   LIG    1       -3.253  -1.686  -0.237  0.00  0.00    +0.213 A 
ATOM     11  N   LIG    1       -2.339  -0.724  -0.231  0.00  0.00    -0.214 NA
ATOM     12  C   LIG    1       -1.070  -1.014   0.004  0.00  0.00    +0.082 A 
ATOM     13  C   LIG    1        0.002  -0.004   0.002  0.00  0.00    +0.042 A 
ENDROOT
BRANCH  10  14
ATOM     14  N   LIG    1       -4.574  -1.361  -0.491  0.00  0.00    -0.327 N 
ATOM     15  H   LIG    1       -4.823  -0.439  -0.663  0.00  0.00    +0.145 HD
ATOM     16  H   LIG    1       -5.251  -2.055  -0.498  0.00  0.00    +0.145 HD
ENDBRANCH  10  14
TORSDOF 1
