REMARK  Name = ZINC01225898
REMARK                            x       y       z     vdW  Elec       q    Type
REMARK                         _______ _______ _______ _____ _____    ______ ____
ROOT
ATOM      1  C   LIG    1        8.437   2.349  -0.067  0.00  0.00    +0.128 A 
ATOM      2  N   LIG    1        8.412   3.673  -0.055  0.00  0.00    -0.237 NA
ATOM      3  C   LIG    1        9.526   4.388  -0.062  0.00  0.00    +0.128 A 
ATOM      4  C   LIG    1       10.774   3.761  -0.083  0.00  0.00    +0.033 A 
ATOM      5  C   LIG    1       10.837   2.377  -0.096  0.00  0.00    +0.004 A 
ATOM      6  C   LIG    1        9.652   1.660  -0.082  0.00  0.00    +0.033 A 
ENDROOT
BRANCH   1   9
ATOM      7  N   LIG    1        5.989   2.250  -0.044  0.00  0.00    -0.202 N 
ATOM      8  H   LIG    1        5.976   3.220  -0.039  0.00  0.00    +0.178 HD
ATOM      9  C   LIG    1        7.165   1.592  -0.059  0.00  0.00    +0.282 C 
ATOM     10  O   LIG    1        7.181   0.376  -0.065  0.00  0.00    -0.267 OA
BRANCH   7  12
ATOM     11  C   LIG    1        3.652   2.167  -0.022  0.00  0.00    +0.142 C 
ATOM     12  N   LIG    1        4.785   1.533  -0.036  0.00  0.00    -0.187 NA
BRANCH  11  15
ATOM     13  C   LIG    1       -0.017   1.380   0.010  0.00  0.00    +0.001 A 
ATOM     14  C   LIG    1        1.165   2.092   0.002  0.00  0.00    +0.013 A 
ATOM     15  C   LIG    1        2.386   1.414  -0.013  0.00  0.00    +0.036 A 
ATOM     16  C   LIG    1        2.400   0.012  -0.021  0.00  0.00    +0.125 A 
ATOM     17  C   LIG    1        1.204  -0.687  -0.013  0.00  0.00    +0.046 A 
ATOM     18  C   LIG    1        0.002  -0.004   0.002  0.00  0.00    +0.004 A 
BRANCH  16  19
ATOM     19  O   LIG    1        3.581  -0.658  -0.036  0.00  0.00    -0.506 OA
ATOM     20  H   LIG    1        3.932  -0.857   0.843  0.00  0.00    +0.292 HD
ENDBRANCH  16  19
ENDBRANCH  11  15
ENDBRANCH   7  12
ENDBRANCH   1   9
BRANCH   3  21
ATOM     21  C   LIG    1        9.449   5.867  -0.048  0.00  0.00    +0.282 C 
ATOM     22  N   LIG    1        8.248   6.479  -0.028  0.00  0.00    -0.202 N 
ATOM     23  H   LIG    1        7.435   5.950  -0.023  0.00  0.00    +0.178 HD
ATOM     24  O   LIG    1       10.468   6.529  -0.054  0.00  0.00    -0.267 OA
BRANCH  22  25
ATOM     25  N   LIG    1        8.175   7.878  -0.015  0.00  0.00    -0.187 NA
ATOM     26  C   LIG    1        7.018   8.467   0.004  0.00  0.00    +0.142 C 
BRANCH  26  27
ATOM     27  C   LIG    1        6.941   9.938   0.018  0.00  0.00    +0.036 A 
ATOM     28  C   LIG    1        8.114  10.706   0.004  0.00  0.00    +0.125 A 
ATOM     29  C   LIG    1        8.030  12.088   0.018  0.00  0.00    +0.046 A 
ATOM     30  C   LIG    1        6.794  12.708   0.044  0.00  0.00    +0.004 A 
ATOM     31  C   LIG    1        5.633  11.954   0.057  0.00  0.00    +0.001 A 
ATOM     32  C   LIG    1        5.698  10.576   0.038  0.00  0.00    +0.013 A 
BRANCH  28  33
ATOM     33  O   LIG    1        9.327  10.097  -0.021  0.00  0.00    -0.506 OA
ATOM     34  H   LIG    1        9.664   9.928  -0.911  0.00  0.00    +0.292 HD
ENDBRANCH  28  33
ENDBRANCH  26  27
ENDBRANCH  22  25
ENDBRANCH   3  21
TORSDOF 8
