REMARK  Name = ZINC00858629
REMARK                            x       y       z     vdW  Elec       q    Type
REMARK                         _______ _______ _______ _____ _____    ______ ____
ROOT
ATOM      1  N   LIG    1       -0.242   1.246   2.466  0.00  0.00    -0.315 N 
ATOM      2  H   LIG    1        0.662   0.625   2.555  0.00  0.00    +0.149 HD
ATOM      3  C   LIG    1       -0.718   1.572   1.248  0.00  0.00    +0.213 C 
ATOM      4  O   LIG    1       -1.714   2.256   1.150  0.00  0.00    -0.276 OA
ENDROOT
BRANCH   1   5
ATOM      5  C   LIG    1       -0.927   1.718   3.671  0.00  0.00    +0.109 C 
BRANCH   5   6
ATOM      6  C   LIG    1       -0.187   1.212   4.911  0.00  0.00    +0.054 C 
BRANCH   6  10
ATOM      7  C   LIG    1       -2.187   2.589   8.425  0.00  0.00    +0.000 A 
ATOM      8  C   LIG    1       -2.541   1.379   7.858  0.00  0.00    +0.000 A 
ATOM      9  C   LIG    1       -1.894   0.934   6.720  0.00  0.00    +0.004 A 
ATOM     10  C   LIG    1       -0.893   1.698   6.151  0.00  0.00    -0.046 A 
ATOM     11  C   LIG    1       -0.534   2.905   6.721  0.00  0.00    +0.004 A 
ATOM     12  C   LIG    1       -1.185   3.353   7.856  0.00  0.00    +0.000 A 
ENDBRANCH   6  10
ENDBRANCH   5   6
ENDBRANCH   1   5
BRANCH   3  13
ATOM     13  C   LIG    1       -0.013   1.086   0.008  0.00  0.00    +0.099 C 
BRANCH  13  14
ATOM     14  C   LIG    1       -0.753   1.593  -1.232  0.00  0.00    -0.002 C 
ATOM     15  C   LIG    1       -2.147   0.964  -1.286  0.00  0.00    +0.004 C 
ATOM     16  C   LIG    1       -2.886   1.471  -2.526  0.00  0.00    +0.000 C 
ATOM     17  C   LIG    1       -2.103   1.083  -3.781  0.00  0.00    +0.000 C 
ATOM     18  C   LIG    1       -0.709   1.712  -3.727  0.00  0.00    +0.000 C 
ATOM     19  C   LIG    1        0.031   1.205  -2.487  0.00  0.00    +0.004 C 
ENDBRANCH  13  14
ENDBRANCH   3  13
TORSDOF 5
