REMARK  Name = ZINC01026781
REMARK                            x       y       z     vdW  Elec       q    Type
REMARK                         _______ _______ _______ _____ _____    ______ ____
ROOT
ATOM      1  N   LIG    1        0.253  -4.196  -0.016  0.00  0.00    -0.278 N 
ENDROOT
BRANCH   1   2
ATOM      2  C   LIG    1        1.513  -4.784   0.141  0.00  0.00    +0.036 A 
ATOM      3  C   LIG    1        1.795  -5.531   1.278  0.00  0.00    +0.026 A 
ATOM      4  C   LIG    1        3.038  -6.111   1.431  0.00  0.00    +0.040 A 
ATOM      5  C   LIG    1        4.005  -5.949   0.453  0.00  0.00    +0.124 A 
ATOM      6  F   LIG    1        5.221  -6.516   0.605  0.00  0.00    -0.205 F 
ATOM      7  C   LIG    1        3.726  -5.204  -0.681  0.00  0.00    +0.040 A 
ATOM      8  C   LIG    1        2.482  -4.627  -0.841  0.00  0.00    +0.026 A 
ENDBRANCH   1   2
BRANCH   1   9
ATOM      9  C   LIG    1        0.133  -2.853  -0.029  0.00  0.00    +0.142 C 
ATOM     10  S   LIG    1       -1.419  -2.134  -0.094  0.00  0.00    -0.018 S 
BRANCH   9  11
ATOM     11  N   LIG    1        1.234  -2.078   0.010  0.00  0.00    -0.296 N 
ATOM     12  H   LIG    1        1.513  -1.591  -0.781  0.00  0.00    +0.154 HD
BRANCH  11  17
ATOM     13  C   LIG    1        2.232  -2.441   3.530  0.00  0.00    +0.002 A 
ATOM     14  C   LIG    1        3.443  -1.772   3.529  0.00  0.00    +0.012 A 
ATOM     15  C   LIG    1        3.922  -1.206   2.362  0.00  0.00    +0.057 A 
ATOM     16  C   LIG    1        3.192  -1.305   1.194  0.00  0.00    +0.035 A 
ATOM     17  C   LIG    1        1.976  -1.976   1.192  0.00  0.00    +0.033 A 
ATOM     18  C   LIG    1        1.498  -2.544   2.365  0.00  0.00    +0.023 A 
BRANCH  15  19
ATOM     19  C   LIG    1        5.242  -0.478   2.366  0.00  0.00    +0.417 C 
ATOM     20  F   LIG    1        5.043   0.851   1.977  0.00  0.00    -0.166 F 
ATOM     21  F   LIG    1        6.119  -1.099   1.471  0.00  0.00    -0.166 F 
ATOM     22  F   LIG    1        5.788  -0.510   3.653  0.00  0.00    -0.166 F 
ENDBRANCH  15  19
ENDBRANCH  11  17
ENDBRANCH   9  11
ENDBRANCH   1   9
BRANCH   1  23
ATOM     23  C   LIG    1       -0.935  -5.039  -0.168  0.00  0.00    +0.148 C 
BRANCH  23  24
ATOM     24  C   LIG    1       -1.165  -5.325  -1.630  0.00  0.00    -0.026 A 
ATOM     25  C   LIG    1       -1.950  -4.473  -2.384  0.00  0.00    +0.009 A 
ATOM     26  C   LIG    1       -2.163  -4.731  -3.725  0.00  0.00    +0.050 A 
ATOM     27  C   LIG    1       -1.590  -5.846  -4.317  0.00  0.00    +0.166 A 
ATOM     28  C   LIG    1       -0.800  -6.704  -3.557  0.00  0.00    +0.167 A 
ATOM     29  O   LIG    1       -0.357  -7.715  -4.359  0.00  0.00    -0.453 OA
ATOM     30  C   LIG    1       -1.214  -7.692  -5.516  0.00  0.00    +0.466 C 
ATOM     31  O   LIG    1       -1.643  -6.319  -5.596  0.00  0.00    -0.453 OA
ATOM     32  C   LIG    1       -0.586  -6.436  -2.214  0.00  0.00    +0.054 A 
ENDBRANCH  23  24
ENDBRANCH   1  23
TORSDOF 7
