REMARK  Name = ZINC00856799
REMARK                            x       y       z     vdW  Elec       q    Type
REMARK                         _______ _______ _______ _____ _____    ______ ____
ROOT
ATOM      1  C   LIG    1       -1.249  -2.028   1.399  0.00  0.00    +0.027 C 
ENDROOT
BRANCH   1   2
ATOM      2  C   LIG    1       -1.308  -1.278   0.068  0.00  0.00    +0.027 C 
BRANCH   2   7
ATOM      3  C   LIG    1       -3.672  -5.090  -2.139  0.00  0.00    +0.041 C 
ATOM      4  C   LIG    1       -2.443  -4.179  -2.193  0.00  0.00    +0.064 C 
ATOM      5  C   LIG    1       -1.174  -5.032  -2.154  0.00  0.00    +0.041 C 
ATOM      6  C   LIG    1       -2.458  -3.229  -0.992  0.00  0.00    +0.038 C 
ATOM      7  C   LIG    1       -1.258  -2.282  -1.086  0.00  0.00    +0.001 C 
ATOM      8  C   LIG    1       -1.317  -1.532  -2.421  0.00  0.00    +0.032 C 
ATOM      9  C   LIG    1       -1.347  -2.547  -3.566  0.00  0.00    +0.161 C 
ATOM     10  O   LIG    1       -2.468  -3.417  -3.402  0.00  0.00    -0.374 OA
ENDBRANCH   2   7
BRANCH   2  11
ATOM     11  C   LIG    1       -0.133  -0.339  -0.033  0.00  0.00    -0.002 A 
ATOM     12  C   LIG    1        1.155  -0.837   0.013  0.00  0.00    +0.007 A 
ATOM     13  C   LIG    1        2.233   0.024  -0.079  0.00  0.00    +0.001 A 
ATOM     14  C   LIG    1        2.026   1.384  -0.217  0.00  0.00    +0.004 A 
ATOM     15  C   LIG    1        0.740   1.886  -0.263  0.00  0.00    +0.046 A 
ATOM     16  C   LIG    1       -0.344   1.025  -0.171  0.00  0.00    +0.124 A 
BRANCH  16  17
ATOM     17  O   LIG    1       -1.610   1.516  -0.221  0.00  0.00    -0.495 OA
ATOM     18  C   LIG    1       -1.752   2.931  -0.365  0.00  0.00    +0.277 C 
ENDBRANCH  16  17
ENDBRANCH   2  11
ENDBRANCH   1   2
BRANCH   1  19
ATOM     19  C   LIG    1       -1.424  -1.037   2.552  0.00  0.00    +0.109 C 
BRANCH  19  20
ATOM     20  N   LIG    1       -1.367  -1.756   3.827  0.00  0.00    -0.291 N 
ATOM     21  C   LIG    1       -0.186  -1.927   4.452  0.00  0.00    +0.282 C 
ATOM     22  O   LIG    1        0.845  -1.566   3.915  0.00  0.00    -0.267 OA
BRANCH  21  23
ATOM     23  C   LIG    1       -0.142  -2.549   5.780  0.00  0.00    +0.189 A 
ATOM     24  C   LIG    1        0.975  -2.736   6.542  0.00  0.00    +0.054 A 
ATOM     25  C   LIG    1        0.556  -3.359   7.728  0.00  0.00    +0.042 A 
ATOM     26  C   LIG    1       -0.781  -3.531   7.635  0.00  0.00    +0.196 A 
ATOM     27  O   LIG    1       -1.198  -3.042   6.459  0.00  0.00    -0.458 OA
ENDBRANCH  21  23
BRANCH  20  28
ATOM     28  C   LIG    1       -2.595  -2.288   4.423  0.00  0.00    +0.143 C 
BRANCH  28  29
ATOM     29  C   LIG    1       -2.829  -3.691   3.924  0.00  0.00    -0.030 A 
ATOM     30  C   LIG    1       -3.677  -3.911   2.855  0.00  0.00    +0.009 A 
ATOM     31  C   LIG    1       -3.888  -5.195   2.393  0.00  0.00    +0.046 A 
ATOM     32  C   LIG    1       -3.257  -6.266   3.009  0.00  0.00    +0.120 A 
ATOM     33  C   LIG    1       -2.411  -6.043   4.086  0.00  0.00    +0.046 A 
ATOM     34  C   LIG    1       -2.198  -4.756   4.541  0.00  0.00    +0.009 A 
BRANCH  32  35
ATOM     35  O   LIG    1       -3.467  -7.531   2.560  0.00  0.00    -0.495 OA
ATOM     36  C   LIG    1       -4.351  -7.686   1.447  0.00  0.00    +0.277 C 
ENDBRANCH  32  35
ENDBRANCH  28  29
ENDBRANCH  20  28
ENDBRANCH  19  20
ENDBRANCH   1  19
TORSDOF 10
