REMARK  Name = ZINC00901191
REMARK                            x       y       z     vdW  Elec       q    Type
REMARK                         _______ _______ _______ _____ _____    ______ ____
ROOT
ATOM      1  C   LIG    1        1.196  -0.686  -0.013  0.00  0.00    +0.050 A 
ATOM      2  C   LIG    1        0.002  -0.004   0.002  0.00  0.00    +0.050 A 
ATOM      3  C   LIG    1       -0.017   1.394   0.010  0.00  0.00    +0.129 A 
ATOM      4  C   LIG    1        1.185   2.103   0.002  0.00  0.00    +0.077 A 
ATOM      5  C   LIG    1        2.409   1.404  -0.013  0.00  0.00    +0.077 A 
ATOM      6  C   LIG    1        3.673   2.161  -0.022  0.00  0.00    +0.190 C 
ATOM      7  C   LIG    1        3.643   3.635  -0.014  0.00  0.00    +0.055 C 
ATOM      8  C   LIG    1        2.479   4.299   0.001  0.00  0.00    +0.055 C 
ATOM      9  O   LIG    1        4.737   1.572  -0.035  0.00  0.00    -0.287 OA
ATOM     10  C   LIG    1        1.195   3.576   0.009  0.00  0.00    +0.190 C 
ATOM     11  O   LIG    1        0.147   4.193   0.022  0.00  0.00    -0.287 OA
ATOM     12  C   LIG    1        2.409   0.008  -0.021  0.00  0.00    +0.129 A 
ENDROOT
BRANCH   3  13
ATOM     13  O   LIG    1       -1.198   2.058   0.019  0.00  0.00    -0.506 OA
ATOM     14  H   LIG    1       -1.537   2.246   0.905  0.00  0.00    +0.292 HD
ENDBRANCH   3  13
BRANCH  12  15
ATOM     15  O   LIG    1        3.581  -0.672  -0.035  0.00  0.00    -0.506 OA
ATOM     16  H   LIG    1        3.913  -0.865  -0.923  0.00  0.00    +0.292 HD
ENDBRANCH  12  15
TORSDOF 2
