REMARK  Name = ZINC00901537
REMARK                            x       y       z     vdW  Elec       q    Type
REMARK                         _______ _______ _______ _____ _____    ______ ____
ROOT
ATOM      1  C   LIG    1        2.680  -2.398  -1.892  0.00  0.00    -0.091 C 
ATOM      2  N   LIG    1        2.479  -2.731  -0.475  0.00  0.00    +0.386 N 
ATOM      3  C   LIG    1        2.462  -4.191  -0.307  0.00  0.00    -0.069 C 
ATOM      4  C   LIG    1        3.682  -4.784  -1.011  0.00  0.00    +0.017 C 
ATOM      5  C   LIG    1        4.930  -4.093  -0.516  0.00  0.00    -0.044 A 
ATOM      6  C   LIG    1        6.147  -4.743  -0.720  0.00  0.00    +0.053 A 
ATOM      7  C   LIG    1        7.296  -4.115  -0.269  0.00  0.00    +0.167 A 
ATOM      8  C   LIG    1        7.231  -2.869   0.372  0.00  0.00    +0.166 A 
ATOM      9  O   LIG    1        8.484  -2.486   0.708  0.00  0.00    -0.453 OA
ATOM     10  C   LIG    1        9.365  -3.317  -0.077  0.00  0.00    +0.466 C 
ATOM     11  C   LIG    1        6.017  -2.232   0.571  0.00  0.00    +0.052 A 
ATOM     12  O   LIG    1        8.589  -4.506  -0.332  0.00  0.00    -0.453 OA
ATOM     13  C   LIG    1        4.862  -2.870   0.112  0.00  0.00    -0.053 A 
ATOM     14  C   LIG    1        1.191  -2.192  -0.019  0.00  0.00    -0.035 C 
ATOM     15  C   LIG    1        1.213  -0.687  -0.015  0.00  0.00    -0.015 A 
ATOM     16  C   LIG    1        0.002  -0.004   0.002  0.00  0.00    +0.163 A 
ATOM     17  C   LIG    1       -0.017   1.385   0.010  0.00  0.00    +0.162 A 
ATOM     18  C   LIG    1        1.177   2.089   0.002  0.00  0.00    +0.050 A 
ATOM     19  C   LIG    1        2.377   1.406  -0.015  0.00  0.00    +0.007 A 
ATOM     20  C   LIG    1        2.397   0.020  -0.025  0.00  0.00    -0.043 A 
ATOM     21  C   LIG    1        3.723  -0.674  -0.080  0.00  0.00    +0.025 C 
ATOM     22  C   LIG    1        3.555  -2.142   0.327  0.00  0.00    -0.030 C 
ENDROOT
BRANCH  16  23
ATOM     23  O   LIG    1       -1.168  -0.698   0.011  0.00  0.00    -0.491 OA
ATOM     24  C   LIG    1       -1.740  -1.022  -1.258  0.00  0.00    +0.277 C 
ENDBRANCH  16  23
BRANCH  17  25
ATOM     25  O   LIG    1       -1.202   2.052   0.019  0.00  0.00    -0.491 OA
ATOM     26  C   LIG    1       -1.143   3.480   0.026  0.00  0.00    +0.277 C 
ENDBRANCH  17  25
TORSDOF 2
