REMARK  Name = ZINC01166726
REMARK                            x       y       z     vdW  Elec       q    Type
REMARK                         _______ _______ _______ _____ _____    ______ ____
ROOT
ATOM      1  C   LIG    1        5.367   3.793  -0.204  0.00  0.00    +0.015 A 
ATOM      2  C   LIG    1        6.744   3.827  -0.216  0.00  0.00    +0.024 A 
ATOM      3  C   LIG    1        7.472   2.654  -0.050  0.00  0.00    +0.034 A 
ATOM      4  C   LIG    1        6.813   1.443   0.134  0.00  0.00    +0.024 A 
ATOM      5  C   LIG    1        5.436   1.403   0.153  0.00  0.00    +0.015 A 
ATOM      6  C   LIG    1        4.702   2.579  -0.013  0.00  0.00    +0.037 A 
ENDROOT
BRANCH   6   7
ATOM      7  C   LIG    1        3.225   2.539   0.006  0.00  0.00    +0.228 A 
ATOM      8  N   LIG    1        2.444   3.580  -0.139  0.00  0.00    -0.209 NA
ATOM      9  C   LIG    1        1.152   3.169  -0.067  0.00  0.00    +0.111 A 
ATOM     10  C   LIG    1       -0.076   3.830  -0.153  0.00  0.00    +0.051 A 
ATOM     11  C   LIG    1       -1.247   3.113  -0.036  0.00  0.00    +0.043 A 
ATOM     12 CL   LIG    1       -2.774   3.932  -0.142  0.00  0.00    -0.083 Cl
ATOM     13  C   LIG    1       -1.213   1.739   0.159  0.00  0.00    +0.024 A 
ATOM     14  C   LIG    1       -0.007   1.075   0.251  0.00  0.00    +0.050 A 
ATOM     15  C   LIG    1        1.181   1.780   0.136  0.00  0.00    +0.156 A 
ATOM     16  O   LIG    1        2.485   1.427   0.176  0.00  0.00    -0.435 OA
ENDBRANCH   6   7
BRANCH   3  17
ATOM     17  N   LIG    1        8.867   2.692  -0.068  0.00  0.00    -0.283 N 
ATOM     18  H   LIG    1        9.336   3.466   0.283  0.00  0.00    +0.155 HD
ATOM     19  C   LIG    1        9.563   1.654  -0.573  0.00  0.00    +0.255 C 
ATOM     20  O   LIG    1        8.979   0.730  -1.097  0.00  0.00    -0.272 OA
BRANCH  19  21
ATOM     21  C   LIG    1       11.068   1.641  -0.484  0.00  0.00    +0.324 C 
BRANCH  21  22
ATOM     22  O   LIG    1       11.570   0.445  -1.085  0.00  0.00    -0.483 OA
BRANCH  22  23
ATOM     23  C   LIG    1       12.918   0.277  -1.089  0.00  0.00    +0.121 A 
ATOM     24  C   LIG    1       13.741   1.245  -0.532  0.00  0.00    +0.047 A 
ATOM     25  C   LIG    1       15.111   1.069  -0.533  0.00  0.00    +0.023 A 
ATOM     26  C   LIG    1       15.664  -0.067  -1.098  0.00  0.00    +0.041 A 
ATOM     27 CL   LIG    1       17.386  -0.283  -1.104  0.00  0.00    -0.084 Cl
ATOM     28  C   LIG    1       14.845  -1.031  -1.659  0.00  0.00    +0.023 A 
ATOM     29  C   LIG    1       13.474  -0.862  -1.655  0.00  0.00    +0.047 A 
ENDBRANCH  22  23
ENDBRANCH  21  22
ENDBRANCH  19  21
ENDBRANCH   3  17
TORSDOF 5
