REMARK  Name = ZINC00976703
REMARK                            x       y       z     vdW  Elec       q    Type
REMARK                         _______ _______ _______ _____ _____    ______ ____
ROOT
ATOM      1  S   LIG    1       -1.512  -0.905   0.012  0.00  0.00    -0.008 S 
ATOM      2  N   LIG    1       -1.143  -2.225   0.606  0.00  0.00    -0.096 NA
ATOM      3  S   LIG    1       -1.254  -3.341  -0.619  0.00  0.00    +0.106 S 
ATOM      4  C   LIG    1       -1.757  -2.441  -2.051  0.00  0.00    +0.128 A 
ATOM      5  C   LIG    1       -2.005  -2.847  -3.348  0.00  0.00    +0.032 A 
ATOM      6  C   LIG    1       -2.396  -1.924  -4.300  0.00  0.00    +0.034 A 
ATOM      7  C   LIG    1       -2.535  -0.594  -3.949  0.00  0.00    +0.123 A 
ATOM      8  C   LIG    1       -2.285  -0.190  -2.652  0.00  0.00    +0.050 A 
ATOM      9  O   LIG    1        0.065  -3.809  -0.868  0.00  0.00    -0.146 OA
ATOM     10  O   LIG    1       -2.325  -4.213  -0.284  0.00  0.00    -0.146 OA
ATOM     11  C   LIG    1       -1.894  -1.114  -1.694  0.00  0.00    +0.054 A 
ENDROOT
BRANCH   1  18
ATOM     12  C   LIG    1       -0.017   1.378   0.010  0.00  0.00    +0.017 A 
ATOM     13  C   LIG    1        1.171   2.086   0.002  0.00  0.00    +0.016 A 
ATOM     14  C   LIG    1        2.378   1.411  -0.013  0.00  0.00    +0.018 A 
ATOM     15 BR   LIG    1        4.003   2.378  -0.024  0.00  0.00    -0.050 Br
ATOM     16  C   LIG    1        2.396   0.027  -0.021  0.00  0.00    +0.016 A 
ATOM     17  C   LIG    1        1.208  -0.679  -0.013  0.00  0.00    +0.017 A 
ATOM     18  C   LIG    1        0.002  -0.004   0.002  0.00  0.00    +0.025 A 
ENDBRANCH   1  18
BRANCH   7  19
ATOM     19  N   LIG    1       -2.953   0.398  -4.965  0.00  0.00    +0.006 N 
ATOM     20  O   LIG    1       -3.075   1.561  -4.658  0.00  0.00    -0.130 OA
BRANCH  19  21
ATOM     21  O   LIG    1       -3.171   0.046  -6.100  0.00  0.00    -0.396 OA
ATOM     22  H   LIG    1       -3.076  -0.856  -6.337  0.00  0.00    +0.329 HD
ENDBRANCH  19  21
ENDBRANCH   7  19
TORSDOF 3
