REMARK  Name = ZINC00988000
REMARK                            x       y       z     vdW  Elec       q    Type
REMARK                         _______ _______ _______ _____ _____    ______ ____
ROOT
ATOM      1  C   LIG    1        1.687   8.273  -5.086  0.00  0.00    +0.109 A 
ATOM      2  C   LIG    1        0.295   8.322  -4.969  0.00  0.00    +0.090 A 
ATOM      3 BR   LIG    1       -0.876   9.385  -6.005  0.00  0.00    -0.044 Br
ATOM      4  C   LIG    1       -0.072   7.448  -3.956  0.00  0.00    +0.171 A 
ATOM      5  N   LIG    1       -1.263   7.114  -3.440  0.00  0.00    -0.233 NA
ATOM      6  C   LIG    1       -1.362   6.243  -2.462  0.00  0.00    +0.142 A 
ATOM      7  C   LIG    1       -0.218   5.639  -1.933  0.00  0.00    +0.137 A 
ATOM      8  C   LIG    1        1.018   5.974  -2.446  0.00  0.00    +0.101 A 
ATOM      9  N   LIG    1        1.083   6.885  -3.473  0.00  0.00    -0.210 N 
ATOM     10  N   LIG    1        2.157   7.418  -4.195  0.00  0.00    -0.163 NA
ENDROOT
BRANCH   1  14
ATOM     11  C   LIG    1        4.023  10.508  -7.849  0.00  0.00    +0.000 A 
ATOM     12  C   LIG    1        4.517  10.243  -6.584  0.00  0.00    +0.001 A 
ATOM     13  C   LIG    1        3.763   9.519  -5.684  0.00  0.00    +0.010 A 
ATOM     14  C   LIG    1        2.502   9.054  -6.050  0.00  0.00    +0.003 A 
ATOM     15  C   LIG    1        2.011   9.319  -7.327  0.00  0.00    +0.010 A 
ATOM     16  C   LIG    1        2.771  10.049  -8.218  0.00  0.00    +0.001 A 
ENDBRANCH   1  14
BRANCH   8  17
ATOM     17  C   LIG    1        2.248   5.359  -1.906  0.00  0.00    +0.002 A 
ATOM     18  C   LIG    1        2.677   5.668  -0.613  0.00  0.00    +0.010 A 
ATOM     19  C   LIG    1        3.823   5.085  -0.113  0.00  0.00    +0.001 A 
ATOM     20  C   LIG    1        4.554   4.207  -0.893  0.00  0.00    +0.000 A 
ATOM     21  C   LIG    1        4.138   3.902  -2.177  0.00  0.00    +0.001 A 
ATOM     22  C   LIG    1        2.990   4.472  -2.688  0.00  0.00    +0.010 A 
ENDBRANCH   8  17
BRANCH   7  23
ATOM     23  S   LIG    1       -0.352   4.471  -0.621  0.00  0.00    +0.029 S 
ATOM     24  O   LIG    1        0.618   4.838   0.351  0.00  0.00    -0.164 OA
ATOM     25  O   LIG    1       -1.736   4.364  -0.312  0.00  0.00    -0.164 OA
BRANCH  23  26
ATOM     26  C   LIG    1        0.143   2.907  -1.263  0.00  0.00    +0.094 A 
ATOM     27  C   LIG    1        1.469   2.521  -1.196  0.00  0.00    +0.027 A 
ATOM     28  C   LIG    1        1.858   1.294  -1.700  0.00  0.00    +0.002 A 
ATOM     29  C   LIG    1        0.921   0.453  -2.271  0.00  0.00    +0.000 A 
ATOM     30  C   LIG    1       -0.404   0.841  -2.342  0.00  0.00    +0.002 A 
ATOM     31  C   LIG    1       -0.794   2.066  -1.833  0.00  0.00    +0.027 A 
ENDBRANCH  23  26
ENDBRANCH   7  23
TORSDOF 4
