REMARK  Name = ZINC01212741
REMARK                            x       y       z     vdW  Elec       q    Type
REMARK                         _______ _______ _______ _____ _____    ______ ____
ROOT
ATOM      1  C   LIG    1       -1.201  -0.756   0.010  0.00  0.00    +0.048 A 
ATOM      2  C   LIG    1       -1.102  -2.139   0.020  0.00  0.00    +0.042 A 
ATOM      3  C   LIG    1        0.166  -2.741   0.004  0.00  0.00    +0.072 A 
ATOM      4  N   LIG    1        1.271  -2.023  -0.021  0.00  0.00    -0.247 NA
ATOM      5  C   LIG    1        1.242  -0.689  -0.031  0.00  0.00    +0.072 A 
ATOM      6  C   LIG    1        2.435   0.058  -0.058  0.00  0.00    +0.028 A 
ATOM      7  C   LIG    1        2.379   1.418  -0.069  0.00  0.00    +0.002 A 
ATOM      8  C   LIG    1        1.157   2.087  -0.053  0.00  0.00    +0.001 A 
ATOM      9  C   LIG    1       -0.017   1.396  -0.028  0.00  0.00    +0.011 A 
ATOM     10  C   LIG    1        0.002  -0.004  -0.017  0.00  0.00    +0.013 A 
ENDROOT
BRANCH   3  11
ATOM     11  C   LIG    1        0.264  -4.220   0.016  0.00  0.00    +0.000 A 
ATOM     12  C   LIG    1       -0.892  -4.998   0.048  0.00  0.00    +0.010 A 
ATOM     13  C   LIG    1       -0.795  -6.375   0.052  0.00  0.00    +0.001 A 
ATOM     14  C   LIG    1        0.448  -6.983   0.037  0.00  0.00    +0.000 A 
ATOM     15  C   LIG    1        1.599  -6.216   0.011  0.00  0.00    +0.001 A 
ATOM     16  C   LIG    1        1.513  -4.839   0.000  0.00  0.00    +0.010 A 
ENDBRANCH   3  11
BRANCH   1  19
ATOM     17  N   LIG    1       -3.648  -0.817  -0.068  0.00  0.00    -0.305 N 
ATOM     18  H   LIG    1       -3.596  -1.782  -0.146  0.00  0.00    +0.150 HD
ATOM     19  C   LIG    1       -2.520  -0.086   0.026  0.00  0.00    +0.245 C 
ATOM     20  O   LIG    1       -2.585   1.123   0.125  0.00  0.00    -0.270 OA
BRANCH  17  22
ATOM     21  C   LIG    1       -5.310   0.309  -1.466  0.00  0.00    +0.033 C 
ATOM     22  C   LIG    1       -4.954  -0.153  -0.051  0.00  0.00    +0.100 C 
BRANCH  22  23
ATOM     23  C   LIG    1       -6.002  -1.118   0.441  0.00  0.00    -0.027 A 
ATOM     24  C   LIG    1       -5.971  -2.438   0.034  0.00  0.00    +0.005 A 
ATOM     25  C   LIG    1       -6.930  -3.325   0.488  0.00  0.00    +0.000 A 
ATOM     26  C   LIG    1       -7.925  -2.888   1.342  0.00  0.00    +0.000 A 
ATOM     27  C   LIG    1       -7.959  -1.566   1.745  0.00  0.00    +0.000 A 
ATOM     28  C   LIG    1       -6.998  -0.681   1.294  0.00  0.00    +0.005 A 
ENDBRANCH  22  23
ENDBRANCH  17  22
ENDBRANCH   1  19
TORSDOF 4
