REMARK  Name = ZINC01187103
REMARK                            x       y       z     vdW  Elec       q    Type
REMARK                         _______ _______ _______ _____ _____    ______ ____
ROOT
ATOM      1  C   LIG    1        0.574  -4.251  -0.025  0.00  0.00    +0.130 A 
ATOM      2  C   LIG    1        1.958  -4.266  -0.038  0.00  0.00    +0.050 A 
ATOM      3  C   LIG    1        2.376  -2.933  -0.036  0.00  0.00    +0.050 A 
ATOM      4  C   LIG    1        1.250  -2.158  -0.021  0.00  0.00    +0.136 A 
ATOM      5  O   LIG    1        0.172  -2.962  -0.009  0.00  0.00    -0.455 OA
ENDROOT
BRANCH   1  11
ATOM      6  C   LIG    1       -5.036  -6.767   0.018  0.00  0.00    +0.139 C 
ATOM      7  N   LIG    1       -3.934  -5.802   0.012  0.00  0.00    -0.258 N 
ATOM      8  C   LIG    1       -2.687  -6.243  -0.003  0.00  0.00    +0.258 C 
ATOM      9  C   LIG    1       -1.624  -5.225  -0.008  0.00  0.00    +0.080 C 
ATOM     10  S   LIG    1       -2.596  -3.725   0.016  0.00  0.00    -0.061 S 
ATOM     11  C   LIG    1       -0.268  -5.383  -0.022  0.00  0.00    +0.066 C 
ATOM     12  O   LIG    1       -2.432  -7.434  -0.012  0.00  0.00    -0.269 OA
ATOM     13  C   LIG    1       -4.213  -4.482   0.022  0.00  0.00    +0.120 C 
ATOM     14  S   LIG    1       -5.745  -3.719   0.041  0.00  0.00    -0.027 S 
ENDBRANCH   1  11
BRANCH   4  15
ATOM     15  C   LIG    1        1.223  -0.683  -0.013  0.00  0.00    +0.020 A 
ATOM     16  C   LIG    1        0.002  -0.004   0.002  0.00  0.00    +0.031 A 
ATOM     17  C   LIG    1       -0.017   1.376   0.010  0.00  0.00    +0.043 A 
ATOM     18 CL   LIG    1       -1.533   2.222   0.021  0.00  0.00    -0.083 Cl
ATOM     19  C   LIG    1        1.171   2.088   0.002  0.00  0.00    +0.040 A 
ATOM     20  C   LIG    1        2.385   1.421  -0.013  0.00  0.00    +0.043 A 
ATOM     21 CL   LIG    1        3.868   2.323  -0.022  0.00  0.00    -0.083 Cl
ATOM     22  C   LIG    1        2.418   0.041  -0.021  0.00  0.00    +0.031 A 
ENDBRANCH   4  15
TORSDOF 2
