REMARK  Name = ZINC00896042
REMARK                            x       y       z     vdW  Elec       q    Type
REMARK                         _______ _______ _______ _____ _____    ______ ____
ROOT
ATOM      1  C   LIG    1       -1.201  -0.638   0.010  0.00  0.00    +0.162 A 
ATOM      2  C   LIG    1       -2.374   0.097   0.019  0.00  0.00    +0.053 A 
ATOM      3  C   LIG    1       -3.603  -0.545   0.027  0.00  0.00    -0.038 A 
ATOM      4  C   LIG    1       -3.661  -1.923   0.022  0.00  0.00    -0.023 A 
ATOM      5  C   LIG    1       -4.974  -2.663   0.017  0.00  0.00    +0.089 C 
ATOM      6  N   LIG    1       -6.064  -1.776   0.435  0.00  0.00    -0.309 NA
ATOM      7  H   LIG    1       -6.956  -2.245   0.372  0.00  0.00    +0.123 HD
ATOM      8  C   LIG    1       -6.058  -0.545  -0.370  0.00  0.00    +0.086 C 
ATOM      9  C   LIG    1       -2.488  -2.663   0.015  0.00  0.00    +0.054 A 
ATOM     10  C   LIG    1       -4.852   0.299   0.043  0.00  0.00    +0.050 C 
ATOM     11  C   LIG    1       -1.259  -2.028   0.003  0.00  0.00    +0.159 A 
ENDROOT
BRANCH   1  13
ATOM     12  C   LIG    1       -0.017   1.425   0.010  0.00  0.00    +0.277 C 
ATOM     13  O   LIG    1        0.002  -0.004   0.002  0.00  0.00    -0.491 OA
ENDBRANCH   1  13
BRANCH  11  14
ATOM     14  O   LIG    1       -0.113  -2.760  -0.010  0.00  0.00    -0.503 OA
ATOM     15  H   LIG    1        0.226  -2.976   0.870  0.00  0.00    +0.292 HD
ENDBRANCH  11  14
BRANCH   5  16
ATOM     16  C   LIG    1       -4.889  -3.847   0.982  0.00  0.00    +0.058 C 
BRANCH  16  17
ATOM     17  C   LIG    1       -6.154  -4.661   0.890  0.00  0.00    -0.045 A 
ATOM     18  C   LIG    1       -7.228  -4.363   1.708  0.00  0.00    +0.007 A 
ATOM     19  C   LIG    1       -8.388  -5.108   1.626  0.00  0.00    +0.045 A 
ATOM     20  C   LIG    1       -8.475  -6.156   0.722  0.00  0.00    +0.117 A 
ATOM     21  C   LIG    1       -7.397  -6.454  -0.098  0.00  0.00    +0.045 A 
ATOM     22  C   LIG    1       -6.240  -5.702  -0.016  0.00  0.00    +0.007 A 
BRANCH  20  23
ATOM     23  O   LIG    1       -9.616  -6.891   0.640  0.00  0.00    -0.507 OA
ATOM     24  H   LIG    1      -10.259  -6.549   0.004  0.00  0.00    +0.292 HD
ENDBRANCH  20  23
ENDBRANCH  16  17
ENDBRANCH   5  16
TORSDOF 5
