REMARK  Name = ZINC01413825
REMARK                            x       y       z     vdW  Elec       q    Type
REMARK                         _______ _______ _______ _____ _____    ______ ____
ROOT
ATOM      1  C   LIG    1       -0.018   1.503   0.010  0.00  0.00    +0.064 C 
ATOM      2  C   LIG    1        0.002  -0.004   0.002  0.00  0.00    +0.033 A 
ATOM      3  C   LIG    1        0.006  -0.682  -1.190  0.00  0.00    +0.085 A 
ATOM      4  C   LIG    1        0.026  -2.152  -1.178  0.00  0.00    +0.075 A 
ATOM      5  N   LIG    1        0.026  -2.555  -2.491  0.00  0.00    -0.288 N 
ATOM      6  N   LIG    1        0.007  -1.438  -3.330  0.00  0.00    -0.194 N 
ATOM      7  H   LIG    1        0.037  -3.478  -2.790  0.00  0.00    +0.188 HD
ATOM      8  C   LIG    1        0.041  -2.795   0.041  0.00  0.00    +0.098 A 
ATOM      9  C   LIG    1        0.035  -2.026   1.211  0.00  0.00    +0.254 A 
ATOM     10  O   LIG    1        0.049  -2.587   2.295  0.00  0.00    -0.268 OA
ATOM     11  C   LIG    1       -0.006  -0.300  -2.608  0.00  0.00    +0.283 A 
ATOM     12  O   LIG    1       -0.024   0.833  -3.050  0.00  0.00    -0.265 OA
ATOM     13  N   LIG    1        0.022  -0.684   1.167  0.00  0.00    -0.311 N 
ENDROOT
BRANCH   6  14
ATOM     14  C   LIG    1        0.002  -1.493  -4.714  0.00  0.00    +0.196 A 
ATOM     15  N   LIG    1       -0.010  -0.504  -5.577  0.00  0.00    -0.221 NA
ATOM     16  C   LIG    1       -0.013  -0.707  -6.912  0.00  0.00    +0.081 A 
ATOM     17  C   LIG    1       -0.025   0.262  -7.942  0.00  0.00    +0.029 A 
ATOM     18  C   LIG    1       -0.028  -0.116  -9.259  0.00  0.00    +0.002 A 
ATOM     19  C   LIG    1       -0.019  -1.453  -9.630  0.00  0.00    +0.001 A 
ATOM     20  C   LIG    1       -0.007  -2.427  -8.649  0.00  0.00    +0.017 A 
ATOM     21  C   LIG    1       -0.004  -2.058  -7.327  0.00  0.00    +0.041 A 
ATOM     22  S   LIG    1        0.016  -2.929  -5.779  0.00  0.00    -0.048 S 
ENDBRANCH   6  14
BRANCH  13  23
ATOM     23  C   LIG    1        0.024   0.067   2.425  0.00  0.00    +0.130 C 
BRANCH  23  24
ATOM     24  C   LIG    1       -1.418   0.308   2.877  0.00  0.00    +0.059 C 
BRANCH  24  25
ATOM     25  C   LIG    1       -1.417   1.080   4.171  0.00  0.00    -0.021 A 
ATOM     26  C   LIG    1       -1.487   0.564   5.408  0.00  0.00    +0.087 A 
ATOM     27  N   LIG    1       -1.460   1.570   6.335  0.00  0.00    -0.360 N 
ATOM     28  C   LIG    1       -1.371   2.789   5.701  0.00  0.00    +0.047 A 
ATOM     29  C   LIG    1       -1.312   4.102   6.154  0.00  0.00    +0.026 A 
ATOM     30  C   LIG    1       -1.208   5.135   5.248  0.00  0.00    +0.002 A 
ATOM     31  C   LIG    1       -1.175   4.880   3.885  0.00  0.00    +0.001 A 
ATOM     32  C   LIG    1       -1.237   3.597   3.417  0.00  0.00    +0.010 A 
ATOM     33  H   LIG    1       -1.499   1.443   7.296  0.00  0.00    +0.165 HD
ATOM     34  C   LIG    1       -1.333   2.535   4.318  0.00  0.00    +0.003 A 
ENDBRANCH  24  25
ENDBRANCH  23  24
ENDBRANCH  13  23
TORSDOF 4
