REMARK  Name = ZINC00753168
REMARK                            x       y       z     vdW  Elec       q    Type
REMARK                         _______ _______ _______ _____ _____    ______ ____
ROOT
ATOM      1  C   LIG    1       -2.717   2.949   4.763  0.00  0.00    +0.102 C 
ATOM      2  C   LIG    1       -1.699   3.126   5.892  0.00  0.00    +0.022 C 
ENDROOT
BRANCH   1   3
ATOM      3  C   LIG    1       -2.012   2.463   3.523  0.00  0.00    -0.036 A 
ATOM      4  C   LIG    1       -2.366   1.254   2.955  0.00  0.00    +0.004 A 
ATOM      5  C   LIG    1       -1.719   0.808   1.818  0.00  0.00    +0.004 A 
ATOM      6  C   LIG    1       -0.718   1.572   1.248  0.00  0.00    -0.047 A 
ATOM      7  C   LIG    1       -0.360   2.779   1.819  0.00  0.00    +0.004 A 
ATOM      8  C   LIG    1       -1.010   3.227   2.953  0.00  0.00    +0.004 A 
BRANCH   6   9
ATOM      9  C   LIG    1       -0.013   1.086   0.008  0.00  0.00    +0.038 C 
BRANCH   9  10
ATOM     10  C   LIG    1       -0.753   1.593  -1.232  0.00  0.00    -0.013 C 
ATOM     11  C   LIG    1       -2.147   0.964  -1.286  0.00  0.00    +0.007 C 
ATOM     12  C   LIG    1        0.031   1.205  -2.487  0.00  0.00    +0.007 C 
ENDBRANCH   9  10
ENDBRANCH   6   9
ENDBRANCH   1   3
BRANCH   1  15
ATOM     13  N   LIG    1       -4.079   4.897   5.446  0.00  0.00    -0.270 N 
ATOM     14  H   LIG    1       -4.150   4.499   6.328  0.00  0.00    +0.156 HD
ATOM     15  C   LIG    1       -3.384   4.269   4.477  0.00  0.00    +0.225 C 
ATOM     16  O   LIG    1       -3.296   4.767   3.374  0.00  0.00    -0.275 OA
BRANCH  13  23
ATOM     17  C   LIG    1       -5.524   6.145   7.556  0.00  0.00    +0.047 C 
ATOM     18  C   LIG    1       -5.412   6.761   6.185  0.00  0.00    -0.010 A 
ATOM     19  C   LIG    1       -6.020   7.973   5.909  0.00  0.00    +0.008 A 
ATOM     20  C   LIG    1       -5.891   8.502   4.632  0.00  0.00    +0.020 A 
ATOM     21  C   LIG    1       -5.166   7.810   3.683  0.00  0.00    +0.113 A 
ATOM     22  N   LIG    1       -4.592   6.659   3.977  0.00  0.00    -0.240 NA
ATOM     23  C   LIG    1       -4.697   6.119   5.181  0.00  0.00    +0.128 A 
ENDBRANCH  13  23
ENDBRANCH   1  15
TORSDOF 5
