REMARK  Name = ZINC00758699
REMARK                            x       y       z     vdW  Elec       q    Type
REMARK                         _______ _______ _______ _____ _____    ______ ____
ROOT
ATOM      1  S   LIG    1        3.936  -0.581   0.112  0.00  0.00    +0.074 S 
ATOM      2  O   LIG    1        4.792   0.545   0.251  0.00  0.00    -0.150 OA
ATOM      3  O   LIG    1        4.068  -1.511  -0.954  0.00  0.00    -0.150 OA
ENDROOT
BRANCH   1   7
ATOM      4  C   LIG    1       -0.297   1.024  -0.089  0.00  0.00    +0.002 A 
ATOM      5  C   LIG    1        0.142   0.103  -1.022  0.00  0.00    +0.002 A 
ATOM      6  C   LIG    1        1.434  -0.387  -0.960  0.00  0.00    +0.031 A 
ATOM      7  C   LIG    1        2.291   0.044   0.034  0.00  0.00    +0.129 A 
ATOM      8  C   LIG    1        1.853   0.970   0.972  0.00  0.00    +0.052 A 
ATOM      9  C   LIG    1        0.555   1.460   0.908  0.00  0.00    +0.025 A 
BRANCH   8  10
ATOM     10  N   LIG    1        2.717   1.408   1.979  0.00  0.00    -0.356 N 
ATOM     11  H   LIG    1        2.391   2.000   2.674  0.00  0.00    +0.142 HD
ATOM     12  H   LIG    1        3.643   1.120   1.982  0.00  0.00    +0.142 HD
ENDBRANCH   8  10
ENDBRANCH   1   7
BRANCH   1  13
ATOM     13  N   LIG    1        4.064  -1.449   1.516  0.00  0.00    -0.214 N 
ATOM     14  H   LIG    1        4.714  -1.191   2.188  0.00  0.00    +0.174 HD
BRANCH  13  15
ATOM     15  C   LIG    1        3.237  -2.550   1.733  0.00  0.00    +0.074 A 
ATOM     16  C   LIG    1        2.878  -3.366   0.682  0.00  0.00    +0.026 A 
ATOM     17  C   LIG    1        2.054  -4.469   0.885  0.00  0.00    +0.003 A 
ATOM     18  C   LIG    1        1.581  -4.772   2.125  0.00  0.00    +0.010 A 
ATOM     19  C   LIG    1        1.924  -3.965   3.222  0.00  0.00    +0.002 A 
ATOM     20  C   LIG    1        1.450  -4.250   4.517  0.00  0.00    +0.011 A 
ATOM     21  C   LIG    1        1.837  -3.432   5.540  0.00  0.00    +0.020 A 
ATOM     22  C   LIG    1        2.665  -2.341   5.282  0.00  0.00    +0.111 A 
ATOM     23  N   LIG    1        3.099  -2.076   4.074  0.00  0.00    -0.253 NA
ATOM     24  C   LIG    1        2.766  -2.842   3.032  0.00  0.00    +0.093 A 
ENDBRANCH  13  15
ENDBRANCH   1  13
TORSDOF 4
