REMARK  Name = ZINC01033985
REMARK                            x       y       z     vdW  Elec       q    Type
REMARK                         _______ _______ _______ _____ _____    ______ ____
ROOT
ATOM      1  C   LIG    1       -5.953   2.671  -0.320  0.00  0.00    +0.091 A 
ATOM      2  C   LIG    1       -5.518   1.337  -0.366  0.00  0.00    +0.088 A 
ATOM      3  S   LIG    1       -3.777   1.548  -0.024  0.00  0.00    -0.048 S 
ATOM      4  C   LIG    1       -3.780   3.276   0.141  0.00  0.00    +0.164 A 
ATOM      5  N   LIG    1       -5.049   3.589  -0.059  0.00  0.00    -0.224 NA
ENDROOT
BRANCH   1   9
ATOM      6  C   LIG    1      -10.025   3.695  -0.975  0.00  0.00    +0.000 A 
ATOM      7  C   LIG    1       -9.707   2.602  -0.189  0.00  0.00    +0.001 A 
ATOM      8  C   LIG    1       -8.387   2.264   0.028  0.00  0.00    +0.010 A 
ATOM      9  C   LIG    1       -7.372   3.027  -0.548  0.00  0.00    +0.002 A 
ATOM     10  C   LIG    1       -7.698   4.131  -1.336  0.00  0.00    +0.010 A 
ATOM     11  C   LIG    1       -9.022   4.456  -1.549  0.00  0.00    +0.001 A 
ENDBRANCH   1   9
BRANCH   2  12
ATOM     12  C   LIG    1       -6.253   0.155  -0.615  0.00  0.00    +0.202 C 
ATOM     13  O   LIG    1       -6.776  -0.443   0.308  0.00  0.00    -0.286 OA
BRANCH  12  14
ATOM     14  C   LIG    1       -6.386  -0.355  -1.998  0.00  0.00    +0.023 A 
ATOM     15  C   LIG    1       -5.702   0.267  -3.043  0.00  0.00    +0.012 A 
ATOM     16  C   LIG    1       -5.827  -0.217  -4.329  0.00  0.00    +0.001 A 
ATOM     17  C   LIG    1       -6.636  -1.311  -4.585  0.00  0.00    +0.000 A 
ATOM     18  C   LIG    1       -7.320  -1.929  -3.553  0.00  0.00    +0.001 A 
ATOM     19  C   LIG    1       -7.200  -1.458  -2.262  0.00  0.00    +0.012 A 
ENDBRANCH  12  14
ENDBRANCH   2  12
BRANCH   4  20
ATOM     20  N   LIG    1       -2.721   4.114   0.417  0.00  0.00    -0.294 N 
ATOM     21  H   LIG    1       -2.878   5.060   0.567  0.00  0.00    +0.154 HD
BRANCH  20  22
ATOM     22  C   LIG    1       -1.422   3.603   0.480  0.00  0.00    +0.033 A 
ATOM     23  C   LIG    1       -1.044   2.559  -0.354  0.00  0.00    +0.023 A 
ATOM     24  C   LIG    1        0.239   2.052  -0.284  0.00  0.00    +0.002 A 
ATOM     25  C   LIG    1        1.149   2.589   0.607  0.00  0.00    +0.000 A 
ATOM     26  C   LIG    1        0.777   3.632   1.435  0.00  0.00    +0.002 A 
ATOM     27  C   LIG    1       -0.505   4.140   1.375  0.00  0.00    +0.023 A 
ENDBRANCH  20  22
ENDBRANCH   4  20
TORSDOF 5
