REMARK  Name = ZINC00895129
REMARK                            x       y       z     vdW  Elec       q    Type
REMARK                         _______ _______ _______ _____ _____    ______ ____
ROOT
ATOM      1  C   LIG    1       -0.016   1.297   0.009  0.00  0.00    +0.199 A 
ATOM      2  N   LIG    1       -1.306   1.742   0.018  0.00  0.00    -0.329 N 
ATOM      3  C   LIG    1       -2.120   0.642   0.016  0.00  0.00    +0.167 A 
ATOM      4  N   LIG    1       -3.446   0.463   0.022  0.00  0.00    -0.197 NA
ATOM      5  C   LIG    1       -3.969  -0.743   0.018  0.00  0.00    +0.195 A 
ATOM      6  N   LIG    1       -3.194  -1.864   0.008  0.00  0.00    -0.293 N 
ATOM      7  H   LIG    1       -3.612  -2.739   0.005  0.00  0.00    +0.172 HD
ATOM      8  C   LIG    1       -1.847  -1.762   0.002  0.00  0.00    +0.280 A 
ATOM      9  O   LIG    1       -1.145  -2.759  -0.008  0.00  0.00    -0.265 OA
ATOM     10  C   LIG    1       -1.271  -0.470   0.006  0.00  0.00    +0.172 A 
ATOM     11  H   LIG    1       -1.593   2.668   0.024  0.00  0.00    +0.168 HD
ATOM     12  N   LIG    1        0.002  -0.004   0.002  0.00  0.00    -0.229 NA
ENDROOT
BRANCH   5  13
ATOM     13  N   LIG    1       -5.335  -0.877   0.024  0.00  0.00    -0.329 N 
ATOM     14  H   LIG    1       -5.900  -0.088   0.031  0.00  0.00    +0.145 HD
ATOM     15  H   LIG    1       -5.736  -1.760   0.021  0.00  0.00    +0.145 HD
ENDBRANCH   5  13
TORSDOF 1
