REMARK  Name = ZINC00829980
REMARK                            x       y       z     vdW  Elec       q    Type
REMARK                         _______ _______ _______ _____ _____    ______ ____
ROOT
ATOM      1  C   LIG    1        4.846   0.037   0.378  0.00  0.00    +0.228 C 
ENDROOT
BRANCH   1   2
ATOM      2  C   LIG    1        4.992  -0.055   1.875  0.00  0.00    +0.251 C 
ATOM      3  N   LIG    1        6.054   0.508   2.484  0.00  0.00    -0.205 N 
ATOM      4  H   LIG    1        6.724   0.973   1.959  0.00  0.00    +0.177 HD
ATOM      5  O   LIG    1        4.155  -0.636   2.531  0.00  0.00    -0.272 OA
BRANCH   3   6
ATOM      6  N   LIG    1        6.190   0.423   3.876  0.00  0.00    -0.174 NA
ATOM      7  C   LIG    1        7.223   0.971   4.468  0.00  0.00    +0.152 C 
ATOM      8  C   LIG    1        7.534   0.977   5.917  0.00  0.00    +0.028 A 
ATOM      9  C   LIG    1        6.891   0.449   7.031  0.00  0.00    +0.012 A 
ATOM     10  C   LIG    1        7.440   0.623   8.285  0.00  0.00    +0.001 A 
ATOM     11  C   LIG    1        8.628   1.320   8.432  0.00  0.00    +0.002 A 
ATOM     12  C   LIG    1        9.274   1.848   7.332  0.00  0.00    +0.024 A 
ATOM     13  C   LIG    1        8.735   1.683   6.061  0.00  0.00    +0.043 A 
ATOM     14  N   LIG    1        9.174   2.104   4.810  0.00  0.00    -0.280 N 
ATOM     15  H   LIG    1        9.986   2.613   4.659  0.00  0.00    +0.155 HD
ATOM     16  C   LIG    1        8.334   1.712   3.837  0.00  0.00    +0.269 C 
ATOM     17  O   LIG    1        8.463   1.932   2.647  0.00  0.00    -0.268 OA
ENDBRANCH   3   6
ENDBRANCH   1   2
BRANCH   1  18
ATOM     18  N   LIG    1        3.620  -0.649  -0.036  0.00  0.00    -0.194 N 
BRANCH  18  22
ATOM     19  C   LIG    1       -0.022   1.368   0.043  0.00  0.00    +0.000 A 
ATOM     20  C   LIG    1        1.013   1.843  -0.742  0.00  0.00    +0.002 A 
ATOM     21  C   LIG    1        2.222   1.176  -0.770  0.00  0.00    +0.025 A 
ATOM     22  C   LIG    1        2.398   0.028  -0.010  0.00  0.00    +0.052 A 
ATOM     23  C   LIG    1        1.356  -0.447   0.777  0.00  0.00    +0.025 A 
ATOM     24  C   LIG    1        0.150   0.224   0.801  0.00  0.00    +0.002 A 
ENDBRANCH  18  22
BRANCH  18  25
ATOM     25  S   LIG    1        3.682  -2.227  -0.536  0.00  0.00    +0.075 S 
ATOM     26  O   LIG    1        2.356  -2.732  -0.452  0.00  0.00    -0.150 OA
ATOM     27  O   LIG    1        4.770  -2.828   0.151  0.00  0.00    -0.150 OA
BRANCH  25  28
ATOM     28  C   LIG    1        4.109  -2.216  -2.245  0.00  0.00    +0.109 A 
ATOM     29  C   LIG    1        3.117  -2.159  -3.206  0.00  0.00    +0.029 A 
ATOM     30  C   LIG    1        3.453  -2.150  -4.547  0.00  0.00    +0.002 A 
ATOM     31  C   LIG    1        4.781  -2.198  -4.927  0.00  0.00    +0.000 A 
ATOM     32  C   LIG    1        5.773  -2.253  -3.966  0.00  0.00    +0.002 A 
ATOM     33  C   LIG    1        5.438  -2.258  -2.625  0.00  0.00    +0.029 A 
ENDBRANCH  25  28
ENDBRANCH  18  25
ENDBRANCH   1  18
TORSDOF 6
