REMARK  Name = ZINC01028142
REMARK                            x       y       z     vdW  Elec       q    Type
REMARK                         _______ _______ _______ _____ _____    ______ ____
ROOT
ATOM      1  N   LIG    1        4.601  -0.696  -0.488  0.00  0.00    -0.305 N 
ATOM      2  C   LIG    1        4.696   0.750  -0.246  0.00  0.00    +0.126 C 
ATOM      3  C   LIG    1        3.658   1.158   0.805  0.00  0.00    +0.128 C 
ATOM      4  N   LIG    1        2.336   0.687   0.364  0.00  0.00    -0.282 N 
ATOM      5  C   LIG    1        1.282   1.526   0.320  0.00  0.00    +0.307 C 
ATOM      6  N   LIG    1        0.049   1.046   0.066  0.00  0.00    -0.269 N 
ATOM      7  H   LIG    1       -0.064   0.125  -0.217  0.00  0.00    +0.156 HD
ATOM      8  O   LIG    1        1.444   2.716   0.510  0.00  0.00    -0.252 OA
ATOM      9  C   LIG    1        2.194  -0.725  -0.022  0.00  0.00    +0.128 C 
ATOM     10  C   LIG    1        3.291  -1.057  -1.047  0.00  0.00    +0.126 C 
ENDROOT
BRANCH   6  11
ATOM     11  C   LIG    1       -1.070   1.879   0.205  0.00  0.00    +0.035 A 
ATOM     12  C   LIG    1       -0.919   3.258   0.154  0.00  0.00    +0.027 A 
ATOM     13  C   LIG    1       -2.023   4.078   0.285  0.00  0.00    +0.048 A 
ATOM     14  C   LIG    1       -3.280   3.524   0.480  0.00  0.00    +0.130 A 
ATOM     15  C   LIG    1       -3.430   2.146   0.536  0.00  0.00    +0.048 A 
ATOM     16  C   LIG    1       -2.328   1.325   0.399  0.00  0.00    +0.027 A 
BRANCH  14  17
ATOM     17  O   LIG    1       -4.365   4.332   0.615  0.00  0.00    -0.406 OA
BRANCH  17  18
ATOM     18  C   LIG    1       -4.137   5.741   0.547  0.00  0.00    +0.575 C 
ATOM     19  F   LIG    1       -3.256   6.121   1.565  0.00  0.00    -0.133 F 
ATOM     20  F   LIG    1       -5.351   6.418   0.704  0.00  0.00    -0.133 F 
ATOM     21  F   LIG    1       -3.580   6.064  -0.695  0.00  0.00    -0.133 F 
ENDBRANCH  17  18
ENDBRANCH  14  17
ENDBRANCH   6  11
BRANCH   1  24
ATOM     22  C   LIG    1        6.930  -2.533  -2.534  0.00  0.00    +0.170 A 
ATOM     23  N   LIG    1        5.885  -2.351  -1.748  0.00  0.00    -0.204 NA
ATOM     24  C   LIG    1        5.626  -1.129  -1.309  0.00  0.00    +0.181 A 
ATOM     25  S   LIG    1        6.914  -0.216  -2.027  0.00  0.00    +0.049 S 
ATOM     26  N   LIG    1        7.689  -1.502  -2.851  0.00  0.00    -0.187 NA
BRANCH  22  30
ATOM     27  C   LIG    1        7.851  -6.410  -4.015  0.00  0.00    +0.000 A 
ATOM     28  C   LIG    1        8.653  -5.335  -4.354  0.00  0.00    +0.001 A 
ATOM     29  C   LIG    1        8.358  -4.074  -3.876  0.00  0.00    +0.011 A 
ATOM     30  C   LIG    1        7.251  -3.886  -3.050  0.00  0.00    +0.020 A 
ATOM     31  C   LIG    1        6.450  -4.974  -2.708  0.00  0.00    +0.011 A 
ATOM     32  C   LIG    1        6.751  -6.229  -3.197  0.00  0.00    +0.001 A 
ENDBRANCH  22  30
ENDBRANCH   1  24
TORSDOF 5
