REMARK  Name = ZINC01383528
REMARK                            x       y       z     vdW  Elec       q    Type
REMARK                         _______ _______ _______ _____ _____    ______ ____
ROOT
ATOM      1  C   LIG    1       -0.017   1.382   0.010  0.00  0.00    +0.001 A 
ATOM      2  C   LIG    1        1.165   2.098   0.002  0.00  0.00    +0.001 A 
ATOM      3  C   LIG    1        2.382   1.437  -0.013  0.00  0.00    +0.012 A 
ATOM      4  C   LIG    1        2.415   0.047  -0.021  0.00  0.00    +0.032 A 
ATOM      5  C   LIG    1        1.213  -0.683  -0.013  0.00  0.00    +0.014 A 
ATOM      6  C   LIG    1        1.535  -2.132  -0.024  0.00  0.00    +0.105 A 
ATOM      7  C   LIG    1        2.935  -2.277  -0.038  0.00  0.00    +0.052 A 
ATOM      8  C   LIG    1        3.469  -3.558  -0.050  0.00  0.00    +0.044 A 
ATOM      9  C   LIG    1        2.568  -4.635  -0.046  0.00  0.00    +0.094 A 
ATOM     10  N   LIG    1        1.263  -4.401  -0.032  0.00  0.00    -0.149 NA
ATOM     11  N   LIG    1        0.771  -3.216  -0.021  0.00  0.00    -0.148 NA
ATOM     12  C   LIG    1        3.536  -0.923  -0.037  0.00  0.00    +0.196 C 
ATOM     13  O   LIG    1        4.721  -0.658  -0.047  0.00  0.00    -0.287 OA
ATOM     14  C   LIG    1        0.002  -0.004   0.002  0.00  0.00    +0.011 A 
ENDROOT
BRANCH   9  15
ATOM     15  C   LIG    1        3.073  -6.028  -0.058  0.00  0.00    +0.002 A 
ATOM     16  C   LIG    1        4.446  -6.274  -0.067  0.00  0.00    +0.013 A 
ATOM     17  C   LIG    1        4.912  -7.572  -0.078  0.00  0.00    +0.039 A 
ATOM     18  C   LIG    1        4.018  -8.631  -0.080  0.00  0.00    +0.123 A 
ATOM     19  F   LIG    1        4.479  -9.901  -0.092  0.00  0.00    -0.205 F 
ATOM     20  C   LIG    1        2.653  -8.392  -0.071  0.00  0.00    +0.039 A 
ATOM     21  C   LIG    1        2.178  -7.097  -0.054  0.00  0.00    +0.013 A 
ENDBRANCH   9  15
TORSDOF 1
