REMARK  Name = ZINC01037297
REMARK                            x       y       z     vdW  Elec       q    Type
REMARK                         _______ _______ _______ _____ _____    ______ ____
ROOT
ATOM      1  C   LIG    1        1.816  -0.947   4.490  0.00  0.00    +0.269 C 
ATOM      2  N   LIG    1        2.906  -1.575   4.973  0.00  0.00    -0.227 N 
ATOM      3  H   LIG    1        3.347  -2.258   4.444  0.00  0.00    +0.173 HD
ATOM      4  O   LIG    1        1.262  -0.090   5.154  0.00  0.00    -0.268 OA
ENDROOT
BRANCH   1  13
ATOM      5  C   LIG    1       -2.142   0.176   0.788  0.00  0.00    +0.044 C 
ATOM      6  C   LIG    1       -1.163  -0.891   0.371  0.00  0.00    -0.037 A 
ATOM      7  C   LIG    1       -1.282  -1.508  -0.853  0.00  0.00    +0.027 A 
ATOM      8  C   LIG    1       -0.380  -2.490  -1.234  0.00  0.00    +0.040 A 
ATOM      9  C   LIG    1       -0.524  -3.158  -2.577  0.00  0.00    +0.065 C 
ATOM     10  N   LIG    1        0.603  -2.844  -0.429  0.00  0.00    -0.245 NA
ATOM     11  C   LIG    1        0.760  -2.283   0.751  0.00  0.00    +0.111 A 
ATOM     12  S   LIG    1        1.935  -2.501   2.064  0.00  0.00    -0.062 S 
ATOM     13  C   LIG    1        1.313  -1.285   3.208  0.00  0.00    +0.098 A 
ATOM     14  C   LIG    1        0.222  -0.759   2.554  0.00  0.00    +0.054 A 
ATOM     15  C   LIG    1       -0.102  -1.270   1.231  0.00  0.00    +0.032 A 
BRANCH  14  16
ATOM     16  N   LIG    1       -0.549   0.235   3.141  0.00  0.00    -0.356 N 
ATOM     17  H   LIG    1       -0.561   0.333   4.106  0.00  0.00    +0.142 HD
ATOM     18  H   LIG    1       -1.076   0.831   2.586  0.00  0.00    +0.142 HD
ENDBRANCH  14  16
ENDBRANCH   1  13
BRANCH   2  19
ATOM     19  N   LIG    1        3.403  -1.240   6.240  0.00  0.00    -0.210 N 
ATOM     20  C   LIG    1        4.611  -0.430   6.323  0.00  0.00    +0.226 C 
ATOM     21  C   LIG    1        5.258  -0.555   7.669  0.00  0.00    +0.239 C 
ATOM     22  N   LIG    1        4.601  -0.988   8.749  0.00  0.00    -0.261 N 
ATOM     23  C   LIG    1        3.198  -1.377   8.717  0.00  0.00    +0.211 C 
ATOM     24  O   LIG    1        6.427  -0.250   7.783  0.00  0.00    -0.273 OA
ATOM     25  C   LIG    1        2.745  -1.674   7.319  0.00  0.00    +0.250 C 
ATOM     26  O   LIG    1        1.743  -2.339   7.162  0.00  0.00    -0.272 OA
BRANCH  22  27
ATOM     27  C   LIG    1        5.291  -1.071   9.964  0.00  0.00    +0.037 A 
ATOM     28  C   LIG    1        5.424   0.053  10.768  0.00  0.00    +0.023 A 
ATOM     29  C   LIG    1        6.106  -0.033  11.966  0.00  0.00    +0.002 A 
ATOM     30  C   LIG    1        6.656  -1.237  12.365  0.00  0.00    +0.000 A 
ATOM     31  C   LIG    1        6.525  -2.358  11.567  0.00  0.00    +0.002 A 
ATOM     32  C   LIG    1        5.840  -2.281  10.371  0.00  0.00    +0.023 A 
ENDBRANCH  22  27
ENDBRANCH   2  19
TORSDOF 4
