REMARK  Name = ZINC00753167
REMARK                            x       y       z     vdW  Elec       q    Type
REMARK                         _______ _______ _______ _____ _____    ______ ____
ROOT
ATOM      1  C   LIG    1        0.002  -0.004   0.002  0.00  0.00    +0.102 C 
ATOM      2  C   LIG    1        0.742  -0.511   1.242  0.00  0.00    +0.022 C 
ENDROOT
BRANCH   1   3
ATOM      3  C   LIG    1       -1.412  -0.526   0.013  0.00  0.00    -0.036 A 
ATOM      4  C   LIG    1       -2.256  -0.214   1.062  0.00  0.00    +0.004 A 
ATOM      5  C   LIG    1       -3.554  -0.688   1.069  0.00  0.00    +0.004 A 
ATOM      6  C   LIG    1       -4.005  -1.483   0.033  0.00  0.00    -0.047 A 
ATOM      7  C   LIG    1       -3.160  -1.800  -1.014  0.00  0.00    +0.004 A 
ATOM      8  C   LIG    1       -1.863  -1.321  -1.024  0.00  0.00    +0.004 A 
BRANCH   6   9
ATOM      9  C   LIG    1       -5.419  -2.006   0.044  0.00  0.00    +0.038 C 
BRANCH   9  10
ATOM     10  C   LIG    1       -5.457  -3.358   0.758  0.00  0.00    -0.013 C 
ATOM     11  C   LIG    1       -6.866  -3.946   0.661  0.00  0.00    +0.007 C 
ATOM     12  C   LIG    1       -5.084  -3.168   2.230  0.00  0.00    +0.007 C 
ENDBRANCH   9  10
ENDBRANCH   6   9
ENDBRANCH   1   3
BRANCH   1  15
ATOM     13  N   LIG    1        1.139   2.192   0.003  0.00  0.00    -0.270 N 
ATOM     14  H   LIG    1        1.986   1.719  -0.008  0.00  0.00    +0.156 HD
ATOM     15  C   LIG    1       -0.018   1.503   0.010  0.00  0.00    +0.225 C 
ATOM     16  O   LIG    1       -1.077   2.095   0.018  0.00  0.00    -0.275 OA
BRANCH  13  23
ATOM     17  C   LIG    1        3.635   3.559  -0.013  0.00  0.00    +0.047 C 
ATOM     18  C   LIG    1        2.318   4.291   0.003  0.00  0.00    -0.010 A 
ATOM     19  C   LIG    1        2.285   5.675   0.011  0.00  0.00    +0.008 A 
ATOM     20  C   LIG    1        1.050   6.308   0.026  0.00  0.00    +0.020 A 
ATOM     21  C   LIG    1       -0.101   5.544   0.033  0.00  0.00    +0.113 A 
ATOM     22  N   LIG    1       -0.038   4.226   0.020  0.00  0.00    -0.240 NA
ATOM     23  C   LIG    1        1.121   3.586   0.011  0.00  0.00    +0.128 A 
ENDBRANCH  13  23
ENDBRANCH   1  15
TORSDOF 5
