REMARK  Name = ZINC01135954
REMARK                            x       y       z     vdW  Elec       q    Type
REMARK                         _______ _______ _______ _____ _____    ______ ____
ROOT
ATOM      1  C   LIG    1        3.517  -2.524  -6.582  0.00  0.00    +0.037 A 
ATOM      2  C   LIG    1        2.474  -2.844  -7.456  0.00  0.00    +0.015 A 
ATOM      3  C   LIG    1        2.755  -3.278  -8.731  0.00  0.00    +0.025 A 
ATOM      4  C   LIG    1        4.077  -3.400  -9.150  0.00  0.00    +0.051 A 
ATOM      5  C   LIG    1        5.118  -3.082  -8.282  0.00  0.00    +0.025 A 
ATOM      6  C   LIG    1        4.843  -2.642  -7.008  0.00  0.00    +0.015 A 
ENDROOT
BRANCH   1   9
ATOM      7  N   LIG    1        1.939  -1.946  -4.805  0.00  0.00    -0.259 N 
ATOM      8  H   LIG    1        1.215  -2.171  -5.410  0.00  0.00    +0.157 HD
ATOM      9  C   LIG    1        3.218  -2.058  -5.215  0.00  0.00    +0.250 C 
ATOM     10  O   LIG    1        4.126  -1.776  -4.457  0.00  0.00    -0.270 OA
BRANCH   7  14
ATOM     11  C   LIG    1        0.762  -0.705  -1.141  0.00  0.00    +0.103 A 
ATOM     12  N   LIG    1        2.050  -0.770  -1.415  0.00  0.00    -0.145 NA
ATOM     13  N   LIG    1        2.479  -1.149  -2.539  0.00  0.00    -0.126 NA
ATOM     14  C   LIG    1        1.658  -1.506  -3.517  0.00  0.00    +0.188 A 
ATOM     15  S   LIG    1        0.083  -1.267  -2.699  0.00  0.00    -0.035 S 
BRANCH  11  17
ATOM     16  C   LIG    1       -0.213   1.221   0.079  0.00  0.00    +0.011 C 
ATOM     17  C   LIG    1        0.062  -0.284   0.125  0.00  0.00    +0.061 C 
ENDBRANCH  11  17
ENDBRANCH   7  14
ENDBRANCH   1   9
BRANCH   4  18
ATOM     18  N   LIG    1        4.359  -3.839 -10.440  0.00  0.00    -0.206 N 
ATOM     19  C   LIG    1        3.871  -3.081 -11.595  0.00  0.00    +0.157 C 
BRANCH  18  20
ATOM     20  S   LIG    1        5.244  -5.219 -10.669  0.00  0.00    +0.074 S 
ATOM     21  O   LIG    1        5.918  -5.478  -9.445  0.00  0.00    -0.150 OA
ATOM     22  O   LIG    1        5.936  -5.058 -11.900  0.00  0.00    -0.150 OA
BRANCH  20  23
ATOM     23  C   LIG    1        4.101  -6.539 -10.902  0.00  0.00    +0.109 A 
ATOM     24  C   LIG    1        3.639  -7.255  -9.813  0.00  0.00    +0.029 A 
ATOM     25  C   LIG    1        2.742  -8.290  -9.997  0.00  0.00    +0.002 A 
ATOM     26  C   LIG    1        2.306  -8.610 -11.269  0.00  0.00    +0.000 A 
ATOM     27  C   LIG    1        2.766  -7.894 -12.358  0.00  0.00    +0.002 A 
ATOM     28  C   LIG    1        3.660  -6.856 -12.174  0.00  0.00    +0.029 A 
ENDBRANCH  20  23
ENDBRANCH  18  20
ENDBRANCH   4  18
TORSDOF 6
