REMARK  Name = ZINC01186119
REMARK                            x       y       z     vdW  Elec       q    Type
REMARK                         _______ _______ _______ _____ _____    ______ ____
ROOT
ATOM      1  N   LIG    1        0.002  -0.004   0.002  0.00  0.00    -0.140 N 
ATOM      2  H   LIG    1        0.849  -0.478  -0.009  0.00  0.00    +0.196 HD
ATOM      3  C   LIG    1       -1.156  -0.694   0.009  0.00  0.00    +0.276 C 
ATOM      4  O   LIG    1       -2.217  -0.100   0.023  0.00  0.00    -0.267 OA
ENDROOT
BRANCH   3   5
ATOM      5  C   LIG    1       -1.136  -2.172   0.001  0.00  0.00    +0.040 A 
ATOM      6  C   LIG    1        0.081  -2.856  -0.020  0.00  0.00    +0.014 A 
ATOM      7  C   LIG    1        0.093  -4.235  -0.022  0.00  0.00    +0.021 A 
ATOM      8  C   LIG    1       -1.098  -4.941  -0.015  0.00  0.00    +0.041 A 
ATOM      9 CL   LIG    1       -1.075  -6.677  -0.024  0.00  0.00    -0.084 Cl
ATOM     10  C   LIG    1       -2.308  -4.268   0.001  0.00  0.00    +0.021 A 
ATOM     11  C   LIG    1       -2.333  -2.889   0.009  0.00  0.00    +0.014 A 
ENDBRANCH   3   5
BRANCH   1  12
ATOM     12  O   LIG    1       -0.014   1.214   0.009  0.00  0.00    -0.342 OA
BRANCH  12  13
ATOM     13  C   LIG    1        1.175   1.840   0.001  0.00  0.00    +0.362 C 
ATOM     14  O   LIG    1        2.203   1.192  -0.013  0.00  0.00    -0.243 OA
BRANCH  13  20
ATOM     15  C   LIG    1        0.113   5.441   0.030  0.00  0.00    +0.001 A 
ATOM     16  C   LIG    1        1.339   6.084   0.022  0.00  0.00    +0.001 A 
ATOM     17  C   LIG    1        2.511   5.351   0.007  0.00  0.00    +0.016 A 
ATOM     18  C   LIG    1        2.466   3.970  -0.000  0.00  0.00    +0.032 A 
ATOM     19 BR   LIG    1        4.070   2.969  -0.021  0.00  0.00    -0.049 Br
ATOM     20  C   LIG    1        1.232   3.316   0.008  0.00  0.00    +0.075 A 
ATOM     21  C   LIG    1        0.052   4.064   0.018  0.00  0.00    +0.016 A 
ENDBRANCH  13  20
ENDBRANCH  12  13
ENDBRANCH   1  12
TORSDOF 4
