REMARK  Name = ZINC01204184
REMARK                            x       y       z     vdW  Elec       q    Type
REMARK                         _______ _______ _______ _____ _____    ______ ____
ROOT
ATOM      1  C   LIG    1       -2.361   1.105   0.110  0.00  0.00    +0.034 A 
ATOM      2  C   LIG    1       -2.284  -0.281   0.192  0.00  0.00    +0.025 A 
ATOM      3  C   LIG    1       -3.436  -1.038   0.287  0.00  0.00    +0.022 A 
ATOM      4  C   LIG    1       -4.673  -0.423   0.291  0.00  0.00    +0.053 A 
ATOM      5 CL   LIG    1       -6.118  -1.379   0.405  0.00  0.00    -0.083 Cl
ATOM      6  C   LIG    1       -4.761   0.968   0.204  0.00  0.00    +0.057 A 
ATOM      7  C   LIG    1       -3.597   1.732   0.113  0.00  0.00    +0.038 A 
ENDROOT
BRANCH   6   8
ATOM      8  C   LIG    1       -6.083   1.630   0.209  0.00  0.00    +0.230 A 
ATOM      9  N   LIG    1       -7.233   1.008   0.285  0.00  0.00    -0.209 NA
ATOM     10  C   LIG    1       -8.229   1.930   0.266  0.00  0.00    +0.110 A 
ATOM     11  C   LIG    1       -9.623   1.846   0.320  0.00  0.00    +0.035 A 
ATOM     12  C   LIG    1      -10.379   2.995   0.272  0.00  0.00    -0.048 A 
ATOM     13  C   LIG    1      -11.882   2.906   0.331  0.00  0.00    +0.044 C 
ATOM     14  C   LIG    1       -9.766   4.236   0.170  0.00  0.00    +0.007 A 
ATOM     15  C   LIG    1       -8.391   4.335   0.115  0.00  0.00    +0.049 A 
ATOM     16  C   LIG    1       -7.613   3.188   0.162  0.00  0.00    +0.156 A 
ATOM     17  O   LIG    1       -6.282   2.959   0.129  0.00  0.00    -0.435 OA
ENDBRANCH   6   8
BRANCH   1  19
ATOM     18  C   LIG    1       -1.125   3.076   0.610  0.00  0.00    +0.217 C 
ATOM     19  N   LIG    1       -1.191   1.867   0.018  0.00  0.00    -0.285 N 
ATOM     20  H   LIG    1       -0.426   1.524  -0.472  0.00  0.00    +0.155 HD
ATOM     21  O   LIG    1       -2.107   3.540   1.150  0.00  0.00    -0.275 OA
BRANCH  18  22
ATOM     22  C   LIG    1        0.169   3.848   0.605  0.00  0.00    +0.096 C 
BRANCH  22  24
ATOM     23  C   LIG    1        1.288   5.958   1.339  0.00  0.00    +0.004 C 
ATOM     24  C   LIG    1       -0.026   5.174   1.343  0.00  0.00    +0.006 C 
ENDBRANCH  22  24
ENDBRANCH  18  22
ENDBRANCH   1  19
TORSDOF 4
