REMARK  Name = ZINC01136094
REMARK                            x       y       z     vdW  Elec       q    Type
REMARK                         _______ _______ _______ _____ _____    ______ ____
ROOT
ATOM      1  C   LIG    1        0.611   5.987  -0.186  0.00  0.00    +0.028 C 
ATOM      2  C   LIG    1        1.121   5.517  -1.352  0.00  0.00    +0.078 C 
ATOM      3  C   LIG    1        1.863   6.230  -2.411  0.00  0.00    +0.263 C 
ATOM      4  N   LIG    1        2.250   5.511  -3.451  0.00  0.00    -0.224 N 
ATOM      5  C   LIG    1        1.969   4.195  -3.542  0.00  0.00    +0.125 C 
ATOM      6  S   LIG    1        2.373   3.105  -4.799  0.00  0.00    -0.027 S 
ATOM      7  O   LIG    1        2.108   7.419  -2.329  0.00  0.00    -0.269 OA
ATOM      8  S   LIG    1        1.074   3.864  -2.032  0.00  0.00    -0.061 S 
ENDROOT
BRANCH   1  11
ATOM      9  C   LIG    1       -0.380   2.803   1.531  0.00  0.00    +0.166 A 
ATOM     10  C   LIG    1        0.172   3.675   0.613  0.00  0.00    +0.057 A 
ATOM     11  C   LIG    1        0.031   5.057   0.790  0.00  0.00    -0.017 A 
ATOM     12  C   LIG    1       -0.660   5.549   1.905  0.00  0.00    +0.057 A 
ATOM     13  C   LIG    1       -1.204   4.670   2.821  0.00  0.00    +0.166 A 
ATOM     14  C   LIG    1       -1.066   3.296   2.638  0.00  0.00    +0.201 A 
BRANCH   9  16
ATOM     15  C   LIG    1        0.468   1.024   0.200  0.00  0.00    +0.277 C 
ATOM     16  O   LIG    1       -0.248   1.460   1.357  0.00  0.00    -0.491 OA
ENDBRANCH   9  16
BRANCH  13  17
ATOM     17  O   LIG    1       -1.875   5.146   3.904  0.00  0.00    -0.491 OA
ATOM     18  C   LIG    1       -1.978   6.566   4.030  0.00  0.00    +0.277 C 
ENDBRANCH  13  17
BRANCH  14  19
ATOM     19  O   LIG    1       -1.603   2.434   3.542  0.00  0.00    -0.501 OA
ATOM     20  H   LIG    1       -1.005   2.199   4.265  0.00  0.00    +0.292 HD
ENDBRANCH  14  19
ENDBRANCH   1  11
BRANCH   4  21
ATOM     21  C   LIG    1        2.962   6.131  -4.486  0.00  0.00    +0.043 A 
ATOM     22  C   LIG    1        4.299   5.821  -4.694  0.00  0.00    +0.024 A 
ATOM     23  C   LIG    1        4.997   6.431  -5.718  0.00  0.00    +0.002 A 
ATOM     24  C   LIG    1        4.368   7.358  -6.529  0.00  0.00    +0.012 A 
ATOM     25  C   LIG    1        3.038   7.673  -6.322  0.00  0.00    +0.057 A 
ATOM     26  C   LIG    1        2.333   7.062  -5.303  0.00  0.00    +0.036 A 
BRANCH  25  27
ATOM     27  C   LIG    1        2.357   8.683  -7.208  0.00  0.00    +0.417 C 
ATOM     28  F   LIG    1        0.996   8.372  -7.309  0.00  0.00    -0.166 F 
ATOM     29  F   LIG    1        2.938   8.655  -8.480  0.00  0.00    -0.166 F 
ATOM     30  F   LIG    1        2.503   9.960  -6.657  0.00  0.00    -0.166 F 
ENDBRANCH  25  27
ENDBRANCH   4  21
TORSDOF 6
