REMARK  Name = ZINC01255325
REMARK                            x       y       z     vdW  Elec       q    Type
REMARK                         _______ _______ _______ _____ _____    ______ ____
ROOT
ATOM      1  C   LIG    1        1.248  -2.163  -0.022  0.00  0.00    +0.077 C 
ATOM      2  N   LIG    1        2.394  -2.745  -0.130  0.00  0.00    -0.273 NA
ATOM      3  C   LIG    1        2.506  -4.203  -0.166  0.00  0.00    +0.237 C 
ATOM      4  C   LIG    1        1.786  -4.714  -1.382  0.00  0.00    +0.210 C 
ATOM      5  N   LIG    1        0.520  -4.592  -1.534  0.00  0.00    -0.215 NA
ATOM      6  C   LIG    1       -0.334  -4.032  -0.635  0.00  0.00    +0.077 A 
ATOM      7  C   LIG    1       -1.575  -4.658  -0.448  0.00  0.00    +0.030 A 
ATOM      8  C   LIG    1       -2.493  -4.138   0.450  0.00  0.00    +0.022 A 
ATOM      9  C   LIG    1       -2.198  -2.986   1.162  0.00  0.00    +0.042 A 
ATOM     10 CL   LIG    1       -3.362  -2.331   2.271  0.00  0.00    -0.084 Cl
ATOM     11  C   LIG    1       -0.983  -2.359   0.993  0.00  0.00    +0.032 A 
ATOM     12  C   LIG    1       -0.034  -2.875   0.100  0.00  0.00    +0.027 A 
ENDROOT
BRANCH   1  18
ATOM     13  C   LIG    1        1.778   1.402   1.041  0.00  0.00    +0.001 A 
ATOM     14  C   LIG    1        1.170   2.087   0.004  0.00  0.00    +0.001 A 
ATOM     15  C   LIG    1        0.587   1.395  -1.042  0.00  0.00    +0.020 A 
ATOM     16  C   LIG    1        0.609   0.013  -1.057  0.00  0.00    +0.050 A 
ATOM     17 CL   LIG    1       -0.123  -0.854  -2.370  0.00  0.00    -0.083 Cl
ATOM     18  C   LIG    1        1.221  -0.682  -0.013  0.00  0.00    +0.019 A 
ATOM     19  C   LIG    1        1.806   0.023   1.038  0.00  0.00    +0.011 A 
ENDBRANCH   1  18
BRANCH   4  20
ATOM     20  O   LIG    1        2.500  -5.323  -2.351  0.00  0.00    -0.494 OA
ATOM     21  H   LIG    1        1.968  -5.624  -3.100  0.00  0.00    +0.293 HD
ENDBRANCH   4  20
TORSDOF 2
