REMARK  Name = ZINC01021234
REMARK                            x       y       z     vdW  Elec       q    Type
REMARK                         _______ _______ _______ _____ _____    ______ ____
ROOT
ATOM      1  N   LIG    1        1.139   2.192   0.003  0.00  0.00    -0.204 N 
ATOM      2  H   LIG    1        1.986   1.719  -0.008  0.00  0.00    +0.177 HD
ATOM      3  C   LIG    1       -0.018   1.503   0.010  0.00  0.00    +0.276 C 
ATOM      4  O   LIG    1       -1.077   2.095   0.018  0.00  0.00    -0.270 OA
ENDROOT
BRANCH   3   5
ATOM      5  C   LIG    1        0.002  -0.004   0.002  0.00  0.00    +0.297 C 
ATOM      6  C   LIG    1        0.579  -0.506  -1.328  0.00  0.00    +0.283 C 
ATOM      7  O   LIG    1        0.572  -1.938  -1.308  0.00  0.00    -0.484 OA
ATOM      8  C   LIG    1       -0.572  -2.537  -0.877  0.00  0.00    +0.162 A 
ATOM      9  C   LIG    1       -0.786  -3.878  -1.160  0.00  0.00    +0.049 A 
ATOM     10  C   LIG    1       -1.940  -4.502  -0.725  0.00  0.00    +0.004 A 
ATOM     11  C   LIG    1       -2.883  -3.792  -0.005  0.00  0.00    +0.004 A 
ATOM     12  C   LIG    1       -2.676  -2.456   0.279  0.00  0.00    +0.049 A 
ATOM     13  C   LIG    1       -1.521  -1.823  -0.156  0.00  0.00    +0.163 A 
ATOM     14  O   LIG    1       -1.333  -0.506   0.130  0.00  0.00    -0.472 OA
ENDBRANCH   3   5
BRANCH   1  16
ATOM     15  C   LIG    1        2.236   4.258   0.004  0.00  0.00    +0.142 C 
ATOM     16  N   LIG    1        1.121   3.593   0.011  0.00  0.00    -0.187 NA
BRANCH  15  23
ATOM     17  C   LIG    1        4.732   5.716  -0.011  0.00  0.00    +0.044 C 
ATOM     18  C   LIG    1        3.414   6.448   0.004  0.00  0.00    -0.035 A 
ATOM     19  C   LIG    1        3.391   7.826   0.011  0.00  0.00    +0.049 A 
ATOM     20  C   LIG    1        2.179   8.505   0.025  0.00  0.00    +0.121 A 
ATOM     21  C   LIG    1        0.983   7.802   0.034  0.00  0.00    +0.091 A 
ATOM     22  C   LIG    1        0.994   6.418   0.021  0.00  0.00    +0.129 A 
ATOM     23  C   LIG    1        2.216   5.731   0.012  0.00  0.00    +0.039 A 
BRANCH  20  24
ATOM     24  O   LIG    1        2.165   9.864   0.032  0.00  0.00    -0.507 OA
ATOM     25  H   LIG    1        2.153  10.261  -0.849  0.00  0.00    +0.292 HD
ENDBRANCH  20  24
BRANCH  22  26
ATOM     26  O   LIG    1       -0.176   5.728   0.023  0.00  0.00    -0.506 OA
ATOM     27  H   LIG    1       -0.511   5.524   0.907  0.00  0.00    +0.292 HD
ENDBRANCH  22  26
ENDBRANCH  15  23
ENDBRANCH   1  16
TORSDOF 5
