REMARK  Name = ZINC00825638
REMARK                            x       y       z     vdW  Elec       q    Type
REMARK                         _______ _______ _______ _____ _____    ______ ____
ROOT
ATOM      1  N   LIG    1       -2.504   9.749   0.082  0.00  0.00    -0.206 N 
ATOM      2  H   LIG    1       -3.219   9.094   0.084  0.00  0.00    +0.177 HD
ATOM      3  C   LIG    1       -1.219   9.344   0.067  0.00  0.00    +0.242 C 
ATOM      4  O   LIG    1       -0.324  10.163   0.064  0.00  0.00    -0.273 OA
ENDROOT
BRANCH   1   6
ATOM      5  C   LIG    1       -4.045  11.507   0.106  0.00  0.00    +0.138 C 
ATOM      6  N   LIG    1       -2.807  11.117   0.092  0.00  0.00    -0.188 NA
BRANCH   5   9
ATOM      7  C   LIG    1       -5.991  14.719   0.143  0.00  0.00    +0.166 A 
ATOM      8  C   LIG    1       -5.695  13.368   0.133  0.00  0.00    +0.059 A 
ATOM      9  C   LIG    1       -4.363  12.946   0.118  0.00  0.00    +0.002 A 
ATOM     10  C   LIG    1       -3.334  13.891   0.120  0.00  0.00    +0.059 A 
ATOM     11  C   LIG    1       -3.636  15.241   0.125  0.00  0.00    +0.166 A 
ATOM     12  C   LIG    1       -4.964  15.658   0.140  0.00  0.00    +0.204 A 
BRANCH   7  14
ATOM     13  C   LIG    1       -8.291  14.114   0.162  0.00  0.00    +0.277 C 
ATOM     14  O   LIG    1       -7.287  15.131   0.158  0.00  0.00    -0.491 OA
ENDBRANCH   7  14
BRANCH  11  15
ATOM     15  O   LIG    1       -2.635  16.162   0.121  0.00  0.00    -0.491 OA
ATOM     16  C   LIG    1       -1.296  15.663   0.106  0.00  0.00    +0.277 C 
ENDBRANCH  11  15
BRANCH  12  17
ATOM     17  O   LIG    1       -5.258  16.986   0.151  0.00  0.00    -0.488 OA
ATOM     18  C   LIG    1       -5.386  17.611   1.429  0.00  0.00    +0.277 C 
ENDBRANCH  12  17
ENDBRANCH   5   9
ENDBRANCH   1   6
BRANCH   3  19
ATOM     19  C   LIG    1       -0.893   7.872   0.055  0.00  0.00    +0.173 C 
BRANCH  19  20
ATOM     20  S   LIG    1        0.904   7.652   0.037  0.00  0.00    -0.096 S 
BRANCH  20  21
ATOM     21  C   LIG    1        0.997   5.893   0.026  0.00  0.00    +0.098 A 
ATOM     22  C   LIG    1        2.255   5.273   0.011  0.00  0.00    +0.035 A 
ATOM     23  C   LIG    1        2.342   3.914   0.001  0.00  0.00    +0.012 A 
ATOM     24  C   LIG    1        1.146   3.167   0.008  0.00  0.00    +0.000 A 
ATOM     25  C   LIG    1        1.163   1.764   0.000  0.00  0.00    +0.010 A 
ATOM     26  C   LIG    1       -0.013   1.076   0.008  0.00  0.00    +0.001 A 
ATOM     27  C   LIG    1       -1.233   1.747   0.017  0.00  0.00    +0.002 A 
ATOM     28  C   LIG    1       -1.286   3.107   0.031  0.00  0.00    +0.028 A 
ATOM     29  C   LIG    1       -0.094   3.852   0.024  0.00  0.00    +0.072 A 
ATOM     30  N   LIG    1       -0.118   5.189   0.032  0.00  0.00    -0.240 NA
ENDBRANCH  20  21
ENDBRANCH  19  20
ENDBRANCH   3  19
TORSDOF 8
