REMARK  Name = ZINC01324237
REMARK                            x       y       z     vdW  Elec       q    Type
REMARK                         _______ _______ _______ _____ _____    ______ ____
ROOT
ATOM      1  S   LIG    1       -1.512  -0.905   0.012  0.00  0.00    +0.045 S 
ATOM      2  O   LIG    1       -2.492  -0.046   0.577  0.00  0.00    -0.155 OA
ATOM      3  O   LIG    1       -1.219  -2.186   0.553  0.00  0.00    -0.155 OA
ENDROOT
BRANCH   1  11
ATOM      4  C   LIG    1       -0.017   1.378   0.010  0.00  0.00    +0.030 A 
ATOM      5  C   LIG    1        1.171   2.086   0.002  0.00  0.00    +0.023 A 
ATOM      6  C   LIG    1        2.378   1.412  -0.013  0.00  0.00    +0.059 A 
ATOM      7 CL   LIG    1        3.869   2.301  -0.023  0.00  0.00    -0.082 Cl
ATOM      8  C   LIG    1        2.397   0.027  -0.021  0.00  0.00    +0.061 A 
ATOM      9 CL   LIG    1        3.912  -0.821  -0.040  0.00  0.00    -0.082 Cl
ATOM     10  C   LIG    1        1.208  -0.680  -0.013  0.00  0.00    +0.050 A 
ATOM     11  C   LIG    1        0.002  -0.004   0.002  0.00  0.00    +0.105 A 
ENDBRANCH   1  11
BRANCH   1  12
ATOM     12  N   LIG    1       -1.948  -1.147  -1.567  0.00  0.00    -0.237 NA
ATOM     13  H   LIG    1       -1.183  -1.656  -2.009  0.00  0.00    +0.126 HD
BRANCH  12  14
ATOM     14  N   LIG    1       -3.096  -1.827  -1.862  0.00  0.00    +0.401 N 
ATOM     15  H   LIG    1       -3.207  -1.881  -2.863  0.00  0.00    -0.063 HD
ATOM     16  H   LIG    1       -3.886  -1.343  -1.462  0.00  0.00    -0.063 HD
ATOM     17  H   LIG    1       -3.043  -2.759  -1.478  0.00  0.00    -0.063 HD
ENDBRANCH  12  14
ENDBRANCH   1  12
TORSDOF 3
