REMARK  Name = ZINC00966733
REMARK                            x       y       z     vdW  Elec       q    Type
REMARK                         _______ _______ _______ _____ _____    ______ ____
ROOT
ATOM      1  N   LIG    1        4.914   1.323   0.237  0.00  0.00    -0.224 N 
ATOM      2  C   LIG    1        6.037   2.017   0.155  0.00  0.00    +0.263 C 
ATOM      3  C   LIG    1        7.270   1.249  -0.117  0.00  0.00    +0.077 C 
ATOM      4  S   LIG    1        6.615  -0.411  -0.218  0.00  0.00    -0.061 S 
ATOM      5  C   LIG    1        8.548   1.685  -0.253  0.00  0.00    +0.028 C 
ATOM      6  O   LIG    1        6.054   3.225   0.296  0.00  0.00    -0.269 OA
ATOM      7  C   LIG    1        4.901  -0.017   0.085  0.00  0.00    +0.125 C 
ATOM      8  S   LIG    1        3.563  -1.082   0.163  0.00  0.00    -0.027 S 
ENDROOT
BRANCH   5   9
ATOM      9  C   LIG    1        9.648   0.716  -0.352  0.00  0.00    -0.024 A 
ATOM     10  C   LIG    1        9.495  -0.576   0.164  0.00  0.00    +0.011 A 
ATOM     11  C   LIG    1       10.529  -1.481   0.062  0.00  0.00    +0.039 A 
ATOM     12  C   LIG    1       11.723  -1.111  -0.539  0.00  0.00    +0.123 A 
ATOM     13  F   LIG    1       12.734  -2.002  -0.630  0.00  0.00    -0.205 F 
ATOM     14  C   LIG    1       11.883   0.169  -1.047  0.00  0.00    +0.039 A 
ATOM     15  C   LIG    1       10.855   1.083  -0.957  0.00  0.00    +0.011 A 
ENDBRANCH   5   9
BRANCH   1  20
ATOM     16  C   LIG    1        2.300   3.224   2.001  0.00  0.00    +0.003 A 
ATOM     17  C   LIG    1        1.337   3.336   1.018  0.00  0.00    +0.015 A 
ATOM     18  C   LIG    1        1.554   2.767  -0.238  0.00  0.00    +0.061 A 
ATOM     19  C   LIG    1        2.749   2.096  -0.498  0.00  0.00    +0.039 A 
ATOM     20  C   LIG    1        3.712   1.995   0.494  0.00  0.00    +0.043 A 
ATOM     21  C   LIG    1        3.484   2.560   1.743  0.00  0.00    +0.024 A 
BRANCH  18  22
ATOM     22  C   LIG    1        0.522   2.879  -1.290  0.00  0.00    +0.337 C 
ATOM     23  O   LIG    1        0.715   2.387  -2.384  0.00  0.00    -0.245 OA
BRANCH  22  24
ATOM     24  O   LIG    1       -0.629   3.531  -1.038  0.00  0.00    -0.477 OA
ATOM     25  H   LIG    1       -0.777   3.911  -0.195  0.00  0.00    +0.295 HD
ENDBRANCH  22  24
ENDBRANCH  18  22
ENDBRANCH   1  20
TORSDOF 4
