REMARK  Name = ZINC01037297
REMARK                            x       y       z     vdW  Elec       q    Type
REMARK                         _______ _______ _______ _____ _____    ______ ____
ROOT
ATOM      1  C   LIG    1        3.699  -0.689  -0.038  0.00  0.00    +0.095 A 
ATOM      2  C   LIG    1        3.865  -2.087  -0.053  0.00  0.00    +0.074 A 
ATOM      3  C   LIG    1        5.199  -2.346  -0.066  0.00  0.00    +0.129 A 
ATOM      4  N   LIG    1        5.853  -1.151  -0.060  0.00  0.00    -0.218 N 
ATOM      5  N   LIG    1        4.892  -0.132  -0.048  0.00  0.00    -0.165 NA
ENDROOT
BRANCH   1   9
ATOM      6  C   LIG    1       -0.017   1.379   0.010  0.00  0.00    +0.000 A 
ATOM      7  C   LIG    1        1.169   2.092   0.002  0.00  0.00    +0.001 A 
ATOM      8  C   LIG    1        2.377   1.426  -0.013  0.00  0.00    +0.010 A 
ATOM      9  C   LIG    1        2.402   0.033  -0.021  0.00  0.00    +0.002 A 
ATOM     10  C   LIG    1        1.205  -0.680  -0.013  0.00  0.00    +0.010 A 
ATOM     11  C   LIG    1        0.002  -0.004   0.002  0.00  0.00    +0.001 A 
ENDBRANCH   1   9
BRANCH   4  12
ATOM     12  C   LIG    1        7.242  -0.973  -0.069  0.00  0.00    +0.067 A 
ATOM     13  C   LIG    1        8.064  -1.870   0.601  0.00  0.00    +0.028 A 
ATOM     14  C   LIG    1        9.433  -1.692   0.589  0.00  0.00    +0.002 A 
ATOM     15  C   LIG    1        9.987  -0.620  -0.088  0.00  0.00    +0.000 A 
ATOM     16  C   LIG    1        9.171   0.276  -0.755  0.00  0.00    +0.002 A 
ATOM     17  C   LIG    1        7.802   0.099  -0.752  0.00  0.00    +0.028 A 
ENDBRANCH   4  12
BRANCH   3  18
ATOM     18  N   LIG    1        5.792  -3.607  -0.083  0.00  0.00    -0.266 N 
ATOM     19  H   LIG    1        6.758  -3.689  -0.091  0.00  0.00    +0.157 HD
ATOM     20  C   LIG    1        5.021  -4.713  -0.087  0.00  0.00    +0.252 C 
ATOM     21  O   LIG    1        3.810  -4.611  -0.077  0.00  0.00    -0.270 OA
BRANCH  20  22
ATOM     22  C   LIG    1        5.649  -6.050  -0.104  0.00  0.00    +0.072 A 
ATOM     23  C   LIG    1        7.040  -6.172  -0.110  0.00  0.00    +0.016 A 
ATOM     24  C   LIG    1        7.620  -7.423  -0.127  0.00  0.00    +0.001 A 
ATOM     25  C   LIG    1        6.827  -8.558  -0.137  0.00  0.00    +0.003 A 
ATOM     26  C   LIG    1        5.450  -8.448  -0.132  0.00  0.00    +0.039 A 
ATOM     27  C   LIG    1        4.853  -7.200  -0.109  0.00  0.00    +0.135 A 
ATOM     28  F   LIG    1        3.507  -7.092  -0.098  0.00  0.00    -0.205 F 
ENDBRANCH  20  22
ENDBRANCH   3  18
TORSDOF 4
