REMARK  Name = ZINC01225749
REMARK                            x       y       z     vdW  Elec       q    Type
REMARK                         _______ _______ _______ _____ _____    ______ ____
ROOT
ATOM      1  N   LIG    1       -2.090   0.331   0.060  0.00  0.00    -0.217 N 
ATOM      2  C   LIG    1       -2.839   0.372   1.181  0.00  0.00    +0.262 C 
ATOM      3  C   LIG    1       -4.072  -0.433   1.225  0.00  0.00    +0.101 C 
ATOM      4  C   LIG    1       -4.396  -1.230   0.029  0.00  0.00    +0.262 C 
ATOM      5  N   LIG    1       -3.553  -1.173  -1.023  0.00  0.00    -0.217 N 
ATOM      6  O   LIG    1       -5.398  -1.919  -0.011  0.00  0.00    -0.269 OA
ATOM      7  C   LIG    1       -4.893  -0.441   2.344  0.00  0.00    +0.028 C 
ATOM      8  O   LIG    1       -2.505   1.056   2.131  0.00  0.00    -0.269 OA
ATOM      9  C   LIG    1       -2.449  -0.413  -0.995  0.00  0.00    +0.158 C 
ATOM     10  S   LIG    1       -1.440  -0.398  -2.378  0.00  0.00    -0.017 S 
ENDROOT
BRANCH   7  11
ATOM     11  C   LIG    1       -6.156  -1.065   2.288  0.00  0.00    +0.001 A 
ATOM     12  C   LIG    1       -7.097  -0.951   1.280  0.00  0.00    +0.091 A 
ATOM     13  N   LIG    1       -8.175  -1.696   1.583  0.00  0.00    -0.360 N 
ATOM     14  C   LIG    1       -8.004  -2.335   2.795  0.00  0.00    +0.047 A 
ATOM     15  C   LIG    1       -8.807  -3.198   3.534  0.00  0.00    +0.026 A 
ATOM     16  C   LIG    1       -8.359  -3.691   4.741  0.00  0.00    +0.002 A 
ATOM     17  C   LIG    1       -7.112  -3.334   5.230  0.00  0.00    +0.001 A 
ATOM     18  C   LIG    1       -6.302  -2.480   4.512  0.00  0.00    +0.010 A 
ATOM     19  H   LIG    1       -8.966  -1.773   1.027  0.00  0.00    +0.165 HD
ATOM     20  C   LIG    1       -6.740  -1.980   3.291  0.00  0.00    +0.007 A 
ENDBRANCH   7  11
BRANCH   1  27
ATOM     21  C   LIG    1       -2.257   2.996  -0.926  0.00  0.00    +0.045 C 
ATOM     22  C   LIG    1       -0.951   2.393  -0.479  0.00  0.00    -0.029 A 
ATOM     23  C   LIG    1        0.213   3.135  -0.548  0.00  0.00    +0.005 A 
ATOM     24  C   LIG    1        1.412   2.582  -0.138  0.00  0.00    +0.000 A 
ATOM     25  C   LIG    1        1.451   1.285   0.341  0.00  0.00    +0.002 A 
ATOM     26  C   LIG    1        0.292   0.538   0.412  0.00  0.00    +0.024 A 
ATOM     27  C   LIG    1       -0.913   1.089  -0.004  0.00  0.00    +0.046 A 
ENDBRANCH   1  27
BRANCH   5  28
ATOM     28  C   LIG    1       -3.840  -1.922  -2.171  0.00  0.00    +0.046 A 
ATOM     29  C   LIG    1       -4.608  -1.369  -3.188  0.00  0.00    +0.024 A 
ATOM     30  C   LIG    1       -4.884  -2.107  -4.322  0.00  0.00    +0.002 A 
ATOM     31  C   LIG    1       -4.407  -3.400  -4.441  0.00  0.00    +0.000 A 
ATOM     32  C   LIG    1       -3.647  -3.955  -3.428  0.00  0.00    +0.005 A 
ATOM     33  C   LIG    1       -3.362  -3.220  -2.294  0.00  0.00    -0.029 A 
ATOM     34  C   LIG    1       -2.533  -3.825  -1.190  0.00  0.00    +0.045 C 
ENDBRANCH   5  28
TORSDOF 3
