REMARK  Name = ZINC01400050
REMARK                            x       y       z     vdW  Elec       q    Type
REMARK                         _______ _______ _______ _____ _____    ______ ____
ROOT
ATOM      1  C   LIG    1       -1.238   1.726   0.456  0.00  0.00    +0.055 A 
ATOM      2  C   LIG    1       -1.085   3.058   0.001  0.00  0.00    +0.040 A 
ATOM      3  C   LIG    1        0.078   3.715   0.261  0.00  0.00    +0.106 A 
ATOM      4 CL   LIG    1        0.303   5.346  -0.287  0.00  0.00    -0.078 Cl
ATOM      5  C   LIG    1        1.098   3.060   0.979  0.00  0.00    +0.270 A 
ATOM      6  N   LIG    1        0.928   1.795   1.407  0.00  0.00    -0.309 N 
ATOM      7  O   LIG    1        2.142   3.643   1.216  0.00  0.00    -0.266 OA
ATOM      8  C   LIG    1       -0.214   1.127   1.161  0.00  0.00    +0.102 A 
ENDROOT
BRANCH   1  11
ATOM      9  C   LIG    1       -3.685   3.107   0.204  0.00  0.00    +0.138 C 
ATOM     10  N   LIG    1       -3.660   1.644   0.130  0.00  0.00    -0.270 N 
ATOM     11  C   LIG    1       -2.484   0.987   0.184  0.00  0.00    +0.252 C 
ATOM     12  O   LIG    1       -2.452  -0.216   0.008  0.00  0.00    -0.270 OA
BRANCH  10  13
ATOM     13  C   LIG    1       -4.855   0.930   0.003  0.00  0.00    +0.036 A 
ATOM     14  C   LIG    1       -4.851  -0.456   0.094  0.00  0.00    +0.023 A 
ATOM     15  C   LIG    1       -6.034  -1.158  -0.025  0.00  0.00    +0.002 A 
ATOM     16  C   LIG    1       -7.221  -0.484  -0.247  0.00  0.00    +0.000 A 
ATOM     17  C   LIG    1       -7.228   0.896  -0.344  0.00  0.00    +0.002 A 
ATOM     18  C   LIG    1       -6.049   1.604  -0.220  0.00  0.00    +0.023 A 
ENDBRANCH  10  13
ENDBRANCH   1  11
BRANCH   6  19
ATOM     19  C   LIG    1        2.003   1.136   2.152  0.00  0.00    +0.163 C 
BRANCH  19  20
ATOM     20  C   LIG    1        2.918   0.424   1.190  0.00  0.00    +0.009 A 
ATOM     21  C   LIG    1        2.671  -0.893   0.846  0.00  0.00    +0.047 A 
ATOM     22 CL   LIG    1        1.306  -1.726   1.522  0.00  0.00    -0.083 Cl
ATOM     23  C   LIG    1        3.509  -1.544  -0.043  0.00  0.00    +0.020 A 
ATOM     24  C   LIG    1        4.599  -0.883  -0.577  0.00  0.00    +0.003 A 
ATOM     25  C   LIG    1        4.849   0.431  -0.228  0.00  0.00    +0.020 A 
ATOM     26  C   LIG    1        4.009   1.085   0.655  0.00  0.00    +0.047 A 
ATOM     27 CL   LIG    1        4.324   2.736   1.092  0.00  0.00    -0.083 Cl
ENDBRANCH  19  20
ENDBRANCH   6  19
TORSDOF 4
