REMARK  Name = ZINC00752468
REMARK                            x       y       z     vdW  Elec       q    Type
REMARK                         _______ _______ _______ _____ _____    ______ ____
ROOT
ATOM      1  C   LIG    1        1.286  -0.478  -0.688  0.00  0.00    +0.034 C 
ATOM      2  C   LIG    1        2.483   0.135   0.042  0.00  0.00    +0.083 C 
ATOM      3  C   LIG    1        2.378   1.642   0.011  0.00  0.00    +0.115 C 
ATOM      4  C   LIG    1        1.176   2.246   0.003  0.00  0.00    +0.046 C 
ATOM      5  C   LIG    1       -0.018   1.500   0.010  0.00  0.00    +0.164 C 
ATOM      6  O   LIG    1       -1.085   2.082   0.018  0.00  0.00    -0.292 OA
ATOM      7  C   LIG    1        1.073   3.752  -0.013  0.00  0.00    +0.101 C 
ATOM      8  C   LIG    1        2.377   4.364   0.419  0.00  0.00    +0.098 C 
ATOM      9  C   LIG    1        3.518   3.632   0.398  0.00  0.00    +0.198 C 
ATOM     10  O   LIG    1        3.521   2.354  -0.010  0.00  0.00    -0.445 OA
ATOM     11  C   LIG    1        0.002  -0.004   0.002  0.00  0.00    +0.088 C 
ENDROOT
BRANCH   1  15
ATOM     12  C   LIG    1        1.524  -4.740  -0.505  0.00  0.00    +0.000 A 
ATOM     13  C   LIG    1        1.496  -4.101  -1.731  0.00  0.00    +0.000 A 
ATOM     14  C   LIG    1        1.419  -2.722  -1.790  0.00  0.00    +0.004 A 
ATOM     15  C   LIG    1        1.369  -1.982  -0.623  0.00  0.00    -0.043 A 
ATOM     16  C   LIG    1        1.402  -2.620   0.602  0.00  0.00    +0.004 A 
ATOM     17  C   LIG    1        1.474  -4.000   0.661  0.00  0.00    +0.000 A 
ENDBRANCH   1  15
BRANCH   7  18
ATOM     18  C   LIG    1        0.743   4.216  -1.409  0.00  0.00    -0.034 A 
ATOM     19  C   LIG    1        1.603   3.931  -2.453  0.00  0.00    +0.007 A 
ATOM     20  C   LIG    1        1.297   4.352  -3.734  0.00  0.00    +0.033 A 
ATOM     21  C   LIG    1        0.137   5.066  -3.969  0.00  0.00    +0.122 A 
ATOM     22  C   LIG    1       -0.720   5.355  -2.923  0.00  0.00    +0.033 A 
ATOM     23  C   LIG    1       -0.417   4.930  -1.643  0.00  0.00    +0.007 A 
BRANCH  21  24
ATOM     24  N   LIG    1       -0.187   5.522  -5.339  0.00  0.00    +0.006 N 
ATOM     25  O   LIG    1       -1.209   6.151  -5.546  0.00  0.00    -0.130 OA
BRANCH  24  26
ATOM     26  O   LIG    1        0.568   5.267  -6.260  0.00  0.00    -0.396 OA
ATOM     27  H   LIG    1        1.354   4.783  -6.101  0.00  0.00    +0.329 HD
ENDBRANCH  24  26
ENDBRANCH  21  24
ENDBRANCH   7  18
BRANCH   9  28
ATOM     28  N   LIG    1        4.695   4.212   0.801  0.00  0.00    -0.328 N 
ATOM     29  H   LIG    1        5.518   3.698   0.789  0.00  0.00    +0.145 HD
ATOM     30  H   LIG    1        4.704   5.136   1.097  0.00  0.00    +0.145 HD
ENDBRANCH   9  28
BRANCH   8  31
ATOM     31  C   LIG    1        2.413   5.726   0.857  0.00  0.00    +0.101 C 
ATOM     32  N   LIG    1        2.442   6.808   1.204  0.00  0.00    -0.191 NA
ENDBRANCH   8  31
TORSDOF 6
