REMARK  Name = ZINC00970406
REMARK                            x       y       z     vdW  Elec       q    Type
REMARK                         _______ _______ _______ _____ _____    ______ ____
ROOT
ATOM      1  C   LIG    1       -2.073   0.531   3.713  0.00  0.00    +0.096 C 
ATOM      2  C   LIG    1       -3.081  -0.515   4.100  0.00  0.00    +0.007 A 
ATOM      3  C   LIG    1       -2.667  -1.671   4.737  0.00  0.00    +0.008 A 
ATOM      4  C   LIG    1       -3.591  -2.634   5.095  0.00  0.00    +0.001 A 
ATOM      5  C   LIG    1       -4.933  -2.446   4.816  0.00  0.00    +0.004 A 
ATOM      6  C   LIG    1       -5.351  -1.293   4.180  0.00  0.00    +0.046 A 
ATOM      7  C   LIG    1       -4.425  -0.323   3.821  0.00  0.00    +0.132 A 
ATOM      8  O   LIG    1       -4.836   0.807   3.200  0.00  0.00    -0.460 OA
ATOM      9  C   LIG    1       -4.079   1.918   3.241  0.00  0.00    +0.114 C 
ATOM     10  C   LIG    1       -4.763   3.248   3.024  0.00  0.00    +0.081 C 
ATOM     11  C   LIG    1       -3.804   4.216   2.351  0.00  0.00    -0.021 C 
ATOM     12  C   LIG    1       -4.487   5.573   2.170  0.00  0.00    +0.012 C 
ATOM     13  C   LIG    1       -3.378   3.664   0.989  0.00  0.00    +0.012 C 
ATOM     14  C   LIG    1       -2.573   4.375   3.251  0.00  0.00    +0.086 C 
ATOM     15  C   LIG    1       -1.970   3.019   3.495  0.00  0.00    +0.164 C 
ATOM     16  O   LIG    1       -0.779   2.928   3.717  0.00  0.00    -0.292 OA
ATOM     17  C   LIG    1       -2.759   1.853   3.472  0.00  0.00    +0.045 C 
ENDROOT
BRANCH   1  24
ATOM     18  C   LIG    1       -0.019   1.526   0.010  0.00  0.00    +0.012 C 
ATOM     19  C   LIG    1        0.002  -0.004   0.002  0.00  0.00    -0.021 C 
ATOM     20  C   LIG    1        0.713  -0.500  -1.259  0.00  0.00    +0.012 C 
ATOM     21  C   LIG    1       -1.434  -0.537   0.028  0.00  0.00    +0.086 C 
ATOM     22  C   LIG    1       -2.101  -0.104   1.307  0.00  0.00    +0.164 C 
ATOM     23  O   LIG    1       -3.312   0.069   1.327  0.00  0.00    -0.292 OA
ATOM     24  C   LIG    1       -1.367   0.100   2.454  0.00  0.00    +0.044 C 
ATOM     25  C   LIG    1       -0.002  -0.081   2.478  0.00  0.00    +0.102 C 
ATOM     26  C   LIG    1        0.742  -0.514   1.242  0.00  0.00    +0.080 C 
BRANCH  25  27
ATOM     27  O   LIG    1        0.614   0.112   3.517  0.00  0.00    -0.511 OA
ATOM     28  H   LIG    1        0.158   0.382   4.289  0.00  0.00    +0.292 HD
ENDBRANCH  25  27
ENDBRANCH   1  24
TORSDOF 2
