REMARK  Name = ZINC01300995
REMARK                            x       y       z     vdW  Elec       q    Type
REMARK                         _______ _______ _______ _____ _____    ______ ____
ROOT
ATOM      1  N   LIG    1        4.236  -1.514   3.591  0.00  0.00    -0.167 N 
ATOM      2  C   LIG    1        3.050  -0.995   3.861  0.00  0.00    +0.273 C 
ATOM      3  C   LIG    1        2.036  -1.915   4.418  0.00  0.00    +0.078 C 
ATOM      4  S   LIG    1        2.965  -3.441   4.475  0.00  0.00    -0.060 S 
ATOM      5  C   LIG    1        0.753  -1.669   4.785  0.00  0.00    +0.028 C 
ATOM      6  O   LIG    1        2.805   0.180   3.660  0.00  0.00    -0.268 OA
ATOM      7  C   LIG    1        4.500  -2.818   3.810  0.00  0.00    +0.137 C 
ATOM      8  S   LIG    1        5.957  -3.670   3.522  0.00  0.00    -0.026 S 
ENDROOT
BRANCH   5   9
ATOM      9  C   LIG    1       -0.019  -2.699   5.493  0.00  0.00    -0.024 A 
ATOM     10  C   LIG    1        0.614  -3.858   5.957  0.00  0.00    +0.009 A 
ATOM     11  C   LIG    1       -0.117  -4.820   6.621  0.00  0.00    +0.016 A 
ATOM     12  C   LIG    1       -1.474  -4.642   6.829  0.00  0.00    +0.018 A 
ATOM     13 BR   LIG    1       -2.468  -5.968   7.741  0.00  0.00    -0.050 Br
ATOM     14  C   LIG    1       -2.108  -3.498   6.373  0.00  0.00    +0.016 A 
ATOM     15  C   LIG    1       -1.390  -2.524   5.713  0.00  0.00    +0.009 A 
ENDBRANCH   5   9
BRANCH   1  16
ATOM     16  N   LIG    1        5.238  -0.692   3.061  0.00  0.00    -0.100 NA
ATOM     17  H   LIG    1        5.846  -0.224   3.654  0.00  0.00    +0.172 HD
BRANCH  16  18
ATOM     18  S   LIG    1        5.386  -0.519   1.420  0.00  0.00    +0.074 S 
ATOM     19  O   LIG    1        6.380   0.473   1.204  0.00  0.00    -0.152 OA
ATOM     20  O   LIG    1        5.488  -1.830   0.881  0.00  0.00    -0.152 OA
BRANCH  18  24
ATOM     21  C   LIG    1        1.487   1.205  -0.102  0.00  0.00    +0.000 A 
ATOM     22  C   LIG    1        2.511   2.048   0.286  0.00  0.00    +0.002 A 
ATOM     23  C   LIG    1        3.701   1.522   0.751  0.00  0.00    +0.028 A 
ATOM     24  C   LIG    1        3.868   0.152   0.828  0.00  0.00    +0.107 A 
ATOM     25  C   LIG    1        2.844  -0.692   0.441  0.00  0.00    +0.028 A 
ATOM     26  C   LIG    1        1.654  -0.165  -0.026  0.00  0.00    +0.002 A 
ENDBRANCH  18  24
ENDBRANCH  16  18
ENDBRANCH   1  16
TORSDOF 4
