REMARK  Name = ZINC01012980
REMARK                            x       y       z     vdW  Elec       q    Type
REMARK                         _______ _______ _______ _____ _____    ______ ____
ROOT
ATOM      1  C   LIG    1        1.762   1.956   1.086  0.00  0.00    +0.163 A 
ATOM      2  C   LIG    1        2.990   2.588   1.110  0.00  0.00    +0.057 A 
ATOM      3  C   LIG    1        3.771   2.636  -0.051  0.00  0.00    -0.019 A 
ATOM      4  C   LIG    1        3.306   2.038  -1.228  0.00  0.00    +0.026 A 
ATOM      5  C   LIG    1        2.082   1.405  -1.242  0.00  0.00    +0.059 A 
ATOM      6  I   LIG    1        1.387   0.512  -3.004  0.00  0.00    -0.040 I 
ATOM      7  C   LIG    1        1.308   1.359  -0.089  0.00  0.00    +0.172 A 
ENDROOT
BRANCH   3   8
ATOM      8  C   LIG    1        5.076   3.311  -0.033  0.00  0.00    +0.028 C 
ATOM      9  C   LIG    1        5.471   4.050  -1.100  0.00  0.00    +0.080 C 
ATOM     10  C   LIG    1        4.711   4.453  -2.300  0.00  0.00    +0.258 C 
ATOM     11  N   LIG    1        5.357   5.184  -3.192  0.00  0.00    -0.243 N 
ATOM     12  H   LIG    1        4.894   5.471  -3.995  0.00  0.00    +0.159 HD
ATOM     13  C   LIG    1        6.645   5.542  -3.012  0.00  0.00    +0.283 C 
ATOM     14  O   LIG    1        7.355   6.205  -3.744  0.00  0.00    -0.262 OA
ATOM     15  O   LIG    1        3.549   4.129  -2.459  0.00  0.00    -0.269 OA
ATOM     16  S   LIG    1        7.054   4.811  -1.435  0.00  0.00    -0.026 S 
ENDBRANCH   3   8
BRANCH   1  18
ATOM     17  C   LIG    1        1.524   2.546   3.377  0.00  0.00    +0.277 C 
ATOM     18  O   LIG    1        0.997   1.913   2.210  0.00  0.00    -0.491 OA
ENDBRANCH   1  18
BRANCH   7  19
ATOM     19  O   LIG    1        0.102   0.733  -0.108  0.00  0.00    -0.503 OA
ATOM     20  H   LIG    1        0.142  -0.206   0.117  0.00  0.00    +0.292 HD
ENDBRANCH   7  19
TORSDOF 3
