REMARK  Name = ZINC01124348
REMARK                            x       y       z     vdW  Elec       q    Type
REMARK                         _______ _______ _______ _____ _____    ______ ____
ROOT
ATOM      1  C   LIG    1        2.400  -4.611   1.206  0.00  0.00    +0.048 A 
ATOM      2  C   LIG    1        2.168  -3.424   1.896  0.00  0.00    +0.025 A 
ATOM      3  C   LIG    1        2.883  -3.138   3.036  0.00  0.00    +0.015 A 
ATOM      4  C   LIG    1        3.843  -4.042   3.502  0.00  0.00    +0.037 A 
ATOM      5  C   LIG    1        4.073  -5.233   2.807  0.00  0.00    +0.015 A 
ATOM      6  C   LIG    1        3.351  -5.515   1.670  0.00  0.00    +0.025 A 
ENDROOT
BRANCH   4   7
ATOM      7  C   LIG    1        4.611  -3.738   4.724  0.00  0.00    +0.249 C 
ATOM      8  N   LIG    1        5.536  -4.610   5.172  0.00  0.00    -0.264 N 
ATOM      9  H   LIG    1        5.697  -5.437   4.691  0.00  0.00    +0.157 HD
ATOM     10  O   LIG    1        4.410  -2.702   5.327  0.00  0.00    -0.270 OA
BRANCH   8  11
ATOM     11  C   LIG    1        6.262  -4.324   6.327  0.00  0.00    +0.168 A 
ATOM     12  C   LIG    1        6.130  -3.167   7.127  0.00  0.00    +0.091 A 
ATOM     13  C   LIG    1        7.002  -3.262   8.147  0.00  0.00    +0.136 A 
ATOM     14  C   LIG    1        7.196  -2.245   9.242  0.00  0.00    +0.089 C 
ATOM     15  O   LIG    1        7.668  -4.420   8.020  0.00  0.00    -0.358 OA
ATOM     16  N   LIG    1        7.184  -5.081   6.866  0.00  0.00    -0.063 NA
ENDBRANCH   8  11
ENDBRANCH   4   7
BRANCH   1  17
ATOM     17  N   LIG    1        1.676  -4.896   0.053  0.00  0.00    -0.216 N 
ATOM     18  H   LIG    1        2.098  -4.817  -0.816  0.00  0.00    +0.174 HD
BRANCH  17  19
ATOM     19  S   LIG    1        0.093  -5.370   0.166  0.00  0.00    +0.072 S 
ATOM     20  O   LIG    1       -0.546  -4.448   1.038  0.00  0.00    -0.150 OA
ATOM     21  O   LIG    1       -0.357  -5.599  -1.162  0.00  0.00    -0.150 OA
BRANCH  19  26
ATOM     22  C   LIG    1        0.023 -10.718   2.958  0.00  0.00    +0.044 C 
ATOM     23  C   LIG    1        0.041  -9.382   2.261  0.00  0.00    -0.050 A 
ATOM     24  C   LIG    1       -0.152  -8.221   2.986  0.00  0.00    +0.005 A 
ATOM     25  C   LIG    1       -0.136  -6.996   2.346  0.00  0.00    +0.029 A 
ATOM     26  C   LIG    1        0.074  -6.931   0.982  0.00  0.00    +0.109 A 
ATOM     27  C   LIG    1        0.268  -8.092   0.257  0.00  0.00    +0.029 A 
ATOM     28  C   LIG    1        0.256  -9.317   0.897  0.00  0.00    +0.005 A 
ENDBRANCH  19  26
ENDBRANCH  17  19
ENDBRANCH   1  17
TORSDOF 5
