REMARK  Name = ZINC01088182
REMARK                            x       y       z     vdW  Elec       q    Type
REMARK                         _______ _______ _______ _____ _____    ______ ____
ROOT
ATOM      1  C   LIG    1       -0.017   1.374   0.010  0.00  0.00    +0.046 A 
ATOM      2  C   LIG    1        1.186   2.086   0.002  0.00  0.00    +0.079 A 
ATOM      3  C   LIG    1        2.402   1.394  -0.013  0.00  0.00    +0.056 A 
ATOM      4 CL   LIG    1        3.901   2.268  -0.024  0.00  0.00    -0.083 Cl
ATOM      5  C   LIG    1        2.405   0.013  -0.021  0.00  0.00    +0.042 A 
ATOM      6  C   LIG    1        1.210  -0.685  -0.014  0.00  0.00    +0.069 A 
ATOM      7 CL   LIG    1        1.223  -2.421  -0.024  0.00  0.00    -0.081 Cl
ATOM      8  C   LIG    1        0.002  -0.004   0.002  0.00  0.00    +0.124 A 
ENDROOT
BRANCH   8   9
ATOM      9  S   LIG    1       -1.513  -0.903   0.012  0.00  0.00    +0.057 S 
ATOM     10  O   LIG    1       -2.557   0.060  -0.000  0.00  0.00    -0.153 OA
ATOM     11  O   LIG    1       -1.395  -1.887   1.031  0.00  0.00    -0.153 OA
BRANCH   9  12
ATOM     12  N   LIG    1       -1.607  -1.720  -1.426  0.00  0.00    -0.203 NA
ATOM     13  H   LIG    1       -1.188  -1.354  -2.220  0.00  0.00    +0.144 HD
ATOM     14  H   LIG    1       -2.080  -2.566  -1.473  0.00  0.00    +0.144 HD
ENDBRANCH   9  12
ENDBRANCH   8   9
BRANCH   2  15
ATOM     15  C   LIG    1        1.174   3.560   0.009  0.00  0.00    +0.338 C 
ATOM     16  O   LIG    1        0.110   4.162   0.022  0.00  0.00    -0.245 OA
BRANCH  15  17
ATOM     17  O   LIG    1        2.228   4.181   0.003  0.00  0.00    -0.477 OA
ATOM     18  H   LIG    1        3.043   3.719  -0.007  0.00  0.00    +0.295 HD
ENDBRANCH  15  17
ENDBRANCH   2  15
TORSDOF 4
