REMARK  Name = ZINC01094957
REMARK                            x       y       z     vdW  Elec       q    Type
REMARK                         _______ _______ _______ _____ _____    ______ ____
ROOT
ATOM      1  C   LIG    1        5.786  -1.866   1.477  0.00  0.00    +0.066 C 
ATOM      2  C   LIG    1        6.522  -2.284   2.593  0.00  0.00    +0.132 C 
ATOM      3  C   LIG    1        7.783  -2.997   2.434  0.00  0.00    +0.229 C 
ATOM      4  N   LIG    1        8.526  -2.979   1.381  0.00  0.00    -0.230 NA
ATOM      5  C   LIG    1        8.232  -2.225   0.167  0.00  0.00    +0.205 C 
ATOM      6  S   LIG    1        6.435  -2.231  -0.126  0.00  0.00    -0.085 S 
ENDROOT
BRANCH   5   7
ATOM      7  C   LIG    1        8.931  -2.866  -1.004  0.00  0.00    +0.029 A 
ATOM      8  C   LIG    1        9.069  -4.240  -1.060  0.00  0.00    +0.010 A 
ATOM      9  C   LIG    1        9.711  -4.828  -2.133  0.00  0.00    +0.001 A 
ATOM     10  C   LIG    1       10.217  -4.044  -3.154  0.00  0.00    +0.004 A 
ATOM     11  C   LIG    1       10.082  -2.670  -3.103  0.00  0.00    +0.046 A 
ATOM     12  C   LIG    1        9.433  -2.078  -2.029  0.00  0.00    +0.123 A 
BRANCH  12  13
ATOM     13  O   LIG    1        9.294  -0.727  -1.979  0.00  0.00    -0.506 OA
ATOM     14  H   LIG    1       10.025  -0.272  -1.538  0.00  0.00    +0.292 HD
ENDBRANCH  12  13
ENDBRANCH   5   7
BRANCH   2  15
ATOM     15  C   LIG    1        6.029  -2.005   3.908  0.00  0.00    +0.106 C 
ATOM     16  N   LIG    1        5.638  -1.784   4.952  0.00  0.00    -0.191 NA
ENDBRANCH   2  15
BRANCH   3  17
ATOM     17  O   LIG    1        8.209  -3.743   3.480  0.00  0.00    -0.492 OA
ATOM     18  H   LIG    1        7.698  -3.784   4.264  0.00  0.00    +0.294 HD
ENDBRANCH   3  17
BRANCH   1  19
ATOM     19  S   LIG    1        4.257  -1.011   1.666  0.00  0.00    -0.112 S 
BRANCH  19  20
ATOM     20  C   LIG    1        3.711  -0.707  -0.038  0.00  0.00    +0.110 C 
BRANCH  20  24
ATOM     21  C   LIG    1       -0.017   1.378   0.010  0.00  0.00    +0.000 A 
ATOM     22  C   LIG    1        1.171   2.086   0.002  0.00  0.00    +0.000 A 
ATOM     23  C   LIG    1        2.377   1.411  -0.013  0.00  0.00    +0.004 A 
ATOM     24  C   LIG    1        2.396   0.029  -0.020  0.00  0.00    -0.037 A 
ATOM     25  C   LIG    1        1.208  -0.679  -0.012  0.00  0.00    +0.004 A 
ATOM     26  C   LIG    1        0.002  -0.004   0.002  0.00  0.00    +0.000 A 
ENDBRANCH  20  24
ENDBRANCH  19  20
ENDBRANCH   1  19
TORSDOF 7
