REMARK  Name = ZINC00945066
REMARK                            x       y       z     vdW  Elec       q    Type
REMARK                         _______ _______ _______ _____ _____    ______ ____
ROOT
ATOM      1  C   LIG    1       -1.159  -3.549  -0.017  0.00  0.00    +0.173 C 
ENDROOT
BRANCH   1   2
ATOM      2  N   LIG    1       -0.513  -2.256  -0.254  0.00  0.00    -0.222 N 
ATOM      3  C   LIG    1       -1.157  -1.075  -0.278  0.00  0.00    +0.255 C 
ATOM      4  C   LIG    1       -0.172  -0.006  -0.545  0.00  0.00    +0.049 A 
ATOM      5  C   LIG    1       -0.250   1.371  -0.678  0.00  0.00    +0.014 A 
ATOM      6  C   LIG    1        0.898   2.103  -0.934  0.00  0.00    +0.001 A 
ATOM      7  C   LIG    1        2.120   1.469  -1.059  0.00  0.00    +0.001 A 
ATOM      8  C   LIG    1        2.214   0.092  -0.928  0.00  0.00    +0.014 A 
ATOM      9  C   LIG    1        1.074  -0.653  -0.671  0.00  0.00    +0.049 A 
ATOM     10  O   LIG    1       -2.349  -0.915  -0.109  0.00  0.00    -0.270 OA
ATOM     11  C   LIG    1        0.804  -2.093  -0.477  0.00  0.00    +0.255 C 
ATOM     12  O   LIG    1        1.632  -2.981  -0.512  0.00  0.00    -0.270 OA
ENDBRANCH   1   2
BRANCH   1  13
ATOM     13  C   LIG    1       -2.198  -3.794  -1.081  0.00  0.00    +0.241 C 
ATOM     14  N   LIG    1       -2.549  -5.055  -1.402  0.00  0.00    -0.252 N 
ATOM     15  H   LIG    1       -2.191  -5.801  -0.897  0.00  0.00    +0.158 HD
ATOM     16  O   LIG    1       -2.718  -2.856  -1.648  0.00  0.00    -0.273 OA
BRANCH  14  17
ATOM     17  C   LIG    1       -3.431  -5.286  -2.462  0.00  0.00    +0.241 A 
ATOM     18  N   LIG    1       -3.848  -6.480  -2.871  0.00  0.00    -0.188 NA
ATOM     19  C   LIG    1       -4.671  -6.340  -3.892  0.00  0.00    +0.236 A 
ATOM     20  N   LIG    1       -4.791  -5.018  -4.152  0.00  0.00    -0.252 N 
ATOM     21  H   LIG    1       -5.329  -4.608  -4.848  0.00  0.00    +0.191 HD
ATOM     22  N   LIG    1       -3.984  -4.357  -3.212  0.00  0.00    -0.136 NA
BRANCH  19  23
ATOM     23  C   LIG    1       -5.343  -7.434  -4.621  0.00  0.00    +0.376 C 
ATOM     24  O   LIG    1       -6.083  -7.179  -5.551  0.00  0.00    -0.241 OA
BRANCH  23  25
ATOM     25  O   LIG    1       -5.136  -8.714  -4.257  0.00  0.00    -0.462 OA
ATOM     26  C   LIG    1       -5.830  -9.737  -5.019  0.00  0.00    +0.280 C 
ENDBRANCH  23  25
ENDBRANCH  19  23
ENDBRANCH  14  17
ENDBRANCH   1  13
BRANCH   1  28
ATOM     27  C   LIG    1       -2.422  -4.919   1.648  0.00  0.00    +0.009 C 
ATOM     28  C   LIG    1       -1.831  -3.538   1.358  0.00  0.00    +0.013 C 
ATOM     29  C   LIG    1       -0.794  -3.193   2.429  0.00  0.00    +0.009 C 
ENDBRANCH   1  28
TORSDOF 6
