REMARK  Name = ZINC01081630
REMARK                            x       y       z     vdW  Elec       q    Type
REMARK                         _______ _______ _______ _____ _____    ______ ____
ROOT
ATOM      1  C   LIG    1        1.950   6.949   0.016  0.00  0.00    +0.069 A 
ATOM      2  C   LIG    1        2.895   8.053   0.018  0.00  0.00    -0.023 A 
ATOM      3  C   LIG    1        4.197   7.695   0.003  0.00  0.00    -0.004 A 
ATOM      4  C   LIG    1        5.385   8.608  -0.003  0.00  0.00    +0.046 C 
ATOM      5  C   LIG    1        4.914  10.016   0.388  0.00  0.00    -0.009 C 
ATOM      6  C   LIG    1        6.024  11.028   0.097  0.00  0.00    +0.008 C 
ATOM      7  C   LIG    1        3.671  10.367  -0.435  0.00  0.00    +0.008 C 
ATOM      8  S   LIG    1        4.181   5.925  -0.007  0.00  0.00    -0.077 S 
ATOM      9  C   LIG    1        2.484   9.520   0.028  0.00  0.00    +0.037 C 
ATOM     10  C   LIG    1        2.468   5.661   0.009  0.00  0.00    +0.085 A 
ENDROOT
BRANCH  10  11
ATOM     11  N   LIG    1        1.783   4.457   0.009  0.00  0.00    -0.275 N 
ATOM     12  H   LIG    1        0.813   4.452   0.019  0.00  0.00    +0.156 HD
ATOM     13  C   LIG    1        2.464   3.294  -0.004  0.00  0.00    +0.255 C 
ATOM     14  O   LIG    1        3.681   3.302  -0.016  0.00  0.00    -0.269 OA
BRANCH  13  15
ATOM     15  C   LIG    1        1.738   2.021  -0.004  0.00  0.00    +0.074 A 
ATOM     16  C   LIG    1        2.241   0.729  -0.015  0.00  0.00    +0.021 A 
ATOM     17  C   LIG    1        1.329  -0.296  -0.012  0.00  0.00    +0.008 A 
ATOM     18  C   LIG    1        0.002  -0.004   0.002  0.00  0.00    +0.046 A 
ATOM     19  S   LIG    1       -0.021   1.729   0.012  0.00  0.00    -0.092 S 
ENDBRANCH  13  15
ENDBRANCH  10  11
BRANCH   1  21
ATOM     20  N   LIG    1       -0.168   7.298  -1.138  0.00  0.00    -0.298 N 
ATOM     21  C   LIG    1        0.504   7.186   0.025  0.00  0.00    +0.249 C 
ATOM     22  O   LIG    1       -0.091   7.282   1.083  0.00  0.00    -0.270 OA
BRANCH  20  24
ATOM     23  C   LIG    1        0.563   5.719  -2.857  0.00  0.00    +0.024 C 
ATOM     24  C   LIG    1        0.548   7.183  -2.411  0.00  0.00    +0.104 C 
ENDBRANCH  20  24
BRANCH  20  25
ATOM     25  C   LIG    1       -1.613   7.536  -1.130  0.00  0.00    +0.104 C 
ATOM     26  C   LIG    1       -1.883   9.042  -1.124  0.00  0.00    +0.024 C 
ENDBRANCH  20  25
ENDBRANCH   1  21
TORSDOF 5
