REMARK  Name = ZINC00831028
REMARK                            x       y       z     vdW  Elec       q    Type
REMARK                         _______ _______ _______ _____ _____    ______ ____
ROOT
ATOM      1  N   LIG    1        1.565  -2.916   5.681  0.00  0.00    -0.174 NA
ATOM      2  C   LIG    1        1.317  -1.899   6.712  0.00  0.00    +0.126 C 
ATOM      3  C   LIG    1       -0.174  -1.541   6.699  0.00  0.00    +0.126 C 
ATOM      4  N   LIG    1       -0.956  -2.785   6.729  0.00  0.00    -0.174 NA
ATOM      5  C   LIG    1       -0.709  -3.802   5.698  0.00  0.00    +0.126 C 
ATOM      6  C   LIG    1        0.779  -4.158   5.708  0.00  0.00    +0.126 C 
ENDROOT
BRANCH   1   7
ATOM      7  S   LIG    1        2.704  -2.665   4.505  0.00  0.00    +0.061 S 
ATOM      8  O   LIG    1        3.632  -1.728   5.033  0.00  0.00    -0.153 OA
ATOM      9  O   LIG    1        3.098  -3.949   4.041  0.00  0.00    -0.153 OA
BRANCH   7  13
ATOM     10  C   LIG    1        0.626  -0.618   1.042  0.00  0.00    +0.120 A 
ATOM     11  C   LIG    1        1.202   0.138   2.051  0.00  0.00    +0.047 A 
ATOM     12  C   LIG    1        1.835  -0.488   3.107  0.00  0.00    +0.032 A 
ATOM     13  C   LIG    1        1.895  -1.869   3.158  0.00  0.00    +0.106 A 
ATOM     14  C   LIG    1        1.322  -2.625   2.152  0.00  0.00    +0.032 A 
ATOM     15  C   LIG    1        0.682  -2.003   1.098  0.00  0.00    +0.047 A 
BRANCH  10  17
ATOM     16  C   LIG    1       -0.017   1.425   0.010  0.00  0.00    +0.277 C 
ATOM     17  O   LIG    1        0.002  -0.004   0.002  0.00  0.00    -0.495 OA
ENDBRANCH  10  17
ENDBRANCH   7  13
ENDBRANCH   1   7
BRANCH   4  18
ATOM     18  S   LIG    1       -2.095  -3.036   7.905  0.00  0.00    +0.061 S 
ATOM     19  O   LIG    1       -1.729  -2.217   9.007  0.00  0.00    -0.153 OA
ATOM     20  O   LIG    1       -2.256  -4.443   8.021  0.00  0.00    -0.153 OA
BRANCH  18  21
ATOM     21  C   LIG    1       -3.623  -2.404   7.294  0.00  0.00    +0.106 A 
ATOM     22  C   LIG    1       -3.965  -1.084   7.523  0.00  0.00    +0.032 A 
ATOM     23  C   LIG    1       -5.162  -0.586   7.045  0.00  0.00    +0.047 A 
ATOM     24  C   LIG    1       -6.020  -1.412   6.334  0.00  0.00    +0.120 A 
ATOM     25  C   LIG    1       -5.674  -2.736   6.105  0.00  0.00    +0.047 A 
ATOM     26  C   LIG    1       -4.474  -3.227   6.580  0.00  0.00    +0.032 A 
BRANCH  24  27
ATOM     27  O   LIG    1       -7.198  -0.925   5.863  0.00  0.00    -0.495 OA
ATOM     28  C   LIG    1       -8.032  -1.832   5.139  0.00  0.00    +0.277 C 
ENDBRANCH  24  27
ENDBRANCH  18  21
ENDBRANCH   4  18
TORSDOF 6
