REMARK  Name = ZINC00905485
REMARK                            x       y       z     vdW  Elec       q    Type
REMARK                         _______ _______ _______ _____ _____    ______ ____
ROOT
ATOM      1  C   LIG    1        1.326  -7.978   2.610  0.00  0.00    +0.039 A 
ATOM      2  C   LIG    1        1.327  -8.032   4.005  0.00  0.00    +0.015 A 
ATOM      3  C   LIG    1        1.346  -9.254   4.645  0.00  0.00    +0.029 A 
ATOM      4  C   LIG    1        1.364 -10.425   3.907  0.00  0.00    +0.105 A 
ATOM      5  C   LIG    1        1.363 -10.378   2.524  0.00  0.00    +0.029 A 
ATOM      6  C   LIG    1        1.338  -9.163   1.872  0.00  0.00    +0.015 A 
ENDROOT
BRANCH   1  10
ATOM      7  C   LIG    1        1.276  -4.553   1.507  0.00  0.00    +0.278 A 
ATOM      8  N   LIG    1        1.279  -5.219   0.375  0.00  0.00    -0.101 NA
ATOM      9  N   LIG    1        1.297  -6.482   0.622  0.00  0.00    -0.106 NA
ATOM     10  C   LIG    1        1.306  -6.673   1.918  0.00  0.00    +0.249 A 
ATOM     11  O   LIG    1        1.298  -5.455   2.506  0.00  0.00    -0.411 OA
BRANCH   7  12
ATOM     12  S   LIG    1        1.254  -2.800   1.685  0.00  0.00    -0.061 S 
BRANCH  12  13
ATOM     13  C   LIG    1        1.229  -2.186  -0.022  0.00  0.00    +0.115 C 
BRANCH  13  19
ATOM     14  C   LIG    1       -0.017   1.378   0.010  0.00  0.00    +0.000 A 
ATOM     15  C   LIG    1        1.171   2.086   0.002  0.00  0.00    +0.001 A 
ATOM     16  C   LIG    1        2.377   1.412  -0.013  0.00  0.00    +0.020 A 
ATOM     17  C   LIG    1        2.397   0.029  -0.021  0.00  0.00    +0.045 A 
ATOM     18 CL   LIG    1        3.912  -0.818  -0.041  0.00  0.00    -0.083 Cl
ATOM     19  C   LIG    1        1.208  -0.679  -0.013  0.00  0.00    -0.019 A 
ATOM     20  C   LIG    1        0.002  -0.004   0.002  0.00  0.00    +0.006 A 
ENDBRANCH  13  19
ENDBRANCH  12  13
ENDBRANCH   7  12
ENDBRANCH   1  10
BRANCH   4  21
ATOM     21  S   LIG    1        1.389 -11.981   4.732  0.00  0.00    +0.059 S 
ATOM     22  O   LIG    1        1.937 -11.748   6.022  0.00  0.00    -0.153 OA
ATOM     23  O   LIG    1        1.954 -12.914   3.822  0.00  0.00    -0.153 OA
BRANCH  21  24
ATOM     24  N   LIG    1       -0.186 -12.439   4.963  0.00  0.00    -0.185 NA
ATOM     25  H   LIG    1       -0.542 -12.514   5.861  0.00  0.00    +0.148 HD
BRANCH  24  26
ATOM     26  C   LIG    1       -1.040 -12.729   3.809  0.00  0.00    +0.148 C 
BRANCH  26  27
ATOM     27  C   LIG    1       -2.274 -13.462   4.269  0.00  0.00    +0.005 A 
ATOM     28  C   LIG    1       -3.470 -12.958   4.660  0.00  0.00    +0.012 A 
ATOM     29  C   LIG    1       -4.471 -13.830   5.045  0.00  0.00    +0.008 A 
ATOM     30  C   LIG    1       -4.227 -15.163   5.021  0.00  0.00    +0.045 A 
ATOM     31  S   LIG    1       -2.542 -15.220   4.434  0.00  0.00    -0.100 S 
ENDBRANCH  26  27
ENDBRANCH  24  26
ENDBRANCH  21  24
ENDBRANCH   4  21
TORSDOF 8
