REMARK  Name = ZINC01405687
REMARK                            x       y       z     vdW  Elec       q    Type
REMARK                         _______ _______ _______ _____ _____    ______ ____
ROOT
ATOM      1  N   LIG    1       -2.539   5.229   0.054  0.00  0.00    -0.324 N 
ATOM      2  H   LIG    1       -1.722   5.752   0.048  0.00  0.00    +0.148 HD
ENDROOT
BRANCH   1   3
ATOM      3  C   LIG    1       -2.477   3.852   0.046  0.00  0.00    +0.130 A 
ATOM      4  C   LIG    1       -1.230   3.180   0.030  0.00  0.00    +0.040 A 
ATOM      5  C   LIG    1       -0.013   3.872   0.022  0.00  0.00    +0.015 A 
ATOM      6  C   LIG    1        1.157   3.172   0.007  0.00  0.00    +0.021 A 
ATOM      7  C   LIG    1        1.157   1.778   0.001  0.00  0.00    +0.043 A 
ATOM      8 CL   LIG    1        2.668   0.923  -0.018  0.00  0.00    -0.083 Cl
ATOM      9  C   LIG    1       -0.013   1.076   0.008  0.00  0.00    +0.048 A 
ATOM     10  C   LIG    1       -1.233   1.764   0.017  0.00  0.00    +0.077 A 
ATOM     11  N   LIG    1       -2.410   1.122   0.032  0.00  0.00    -0.235 NA
ATOM     12  C   LIG    1       -3.535   1.796   0.047  0.00  0.00    +0.223 A 
ATOM     13  N   LIG    1       -3.582   3.119   0.054  0.00  0.00    -0.220 NA
ENDBRANCH   1   3
BRANCH   1  14
ATOM     14  C   LIG    1       -3.840   5.903   0.070  0.00  0.00    +0.138 C 
BRANCH  14  23
ATOM     15  C   LIG    1       -3.531   8.073   1.275  0.00  0.00    +0.009 A 
ATOM     16  C   LIG    1       -3.335   9.442   1.285  0.00  0.00    +0.050 A 
ATOM     17  C   LIG    1       -3.252  10.139   0.091  0.00  0.00    +0.166 A 
ATOM     18  C   LIG    1       -3.360   9.456  -1.119  0.00  0.00    +0.167 A 
ATOM     19  O   LIG    1       -3.247  10.356  -2.139  0.00  0.00    -0.453 OA
ATOM     20  C   LIG    1       -3.478  11.646  -1.541  0.00  0.00    +0.466 C 
ATOM     21  C   LIG    1       -3.550   8.084  -1.121  0.00  0.00    +0.054 A 
ATOM     22  O   LIG    1       -3.071  11.466  -0.172  0.00  0.00    -0.453 OA
ATOM     23  C   LIG    1       -3.632   7.395   0.075  0.00  0.00    -0.027 A 
ENDBRANCH  14  23
ENDBRANCH   1  14
TORSDOF 3
