REMARK  Name = ZINC00825997
REMARK                            x       y       z     vdW  Elec       q    Type
REMARK                         _______ _______ _______ _____ _____    ______ ____
ROOT
ATOM      1  C   LIG    1       -0.811   1.074  -0.266  0.00  0.00    +0.028 C 
ATOM      2  C   LIG    1        0.255   0.025  -0.587  0.00  0.00    +0.081 C 
ATOM      3  C   LIG    1       -0.415  -1.326  -0.872  0.00  0.00    +0.050 C 
ATOM      4  C   LIG    1        0.662  -2.340  -1.257  0.00  0.00    +0.115 C 
ATOM      5  C   LIG    1        1.766  -2.351  -0.233  0.00  0.00    -0.005 A 
ATOM      6  C   LIG    1        2.593  -3.459  -0.151  0.00  0.00    +0.007 A 
ATOM      7  C   LIG    1        3.616  -3.498   0.776  0.00  0.00    +0.000 A 
ATOM      8  C   LIG    1        3.822  -2.429   1.629  0.00  0.00    +0.002 A 
ATOM      9  C   LIG    1        3.002  -1.321   1.554  0.00  0.00    +0.024 A 
ATOM     10  C   LIG    1        1.970  -1.281   0.623  0.00  0.00    +0.042 A 
ATOM     11  N   LIG    1        1.145  -0.150   0.569  0.00  0.00    -0.264 N 
ATOM     12  C   LIG    1        1.166   0.762   1.561  0.00  0.00    +0.251 C 
ATOM     13  O   LIG    1        0.571   1.815   1.433  0.00  0.00    -0.270 OA
ENDROOT
BRANCH  12  14
ATOM     14  C   LIG    1        1.912   0.483   2.806  0.00  0.00    +0.037 A 
ATOM     15  C   LIG    1        1.847  -0.781   3.394  0.00  0.00    +0.013 A 
ATOM     16  C   LIG    1        2.546  -1.036   4.556  0.00  0.00    +0.001 A 
ATOM     17  C   LIG    1        3.311  -0.041   5.138  0.00  0.00    +0.000 A 
ATOM     18  C   LIG    1        3.379   1.215   4.561  0.00  0.00    +0.001 A 
ATOM     19  C   LIG    1        2.689   1.481   3.396  0.00  0.00    +0.013 A 
ENDBRANCH  12  14
BRANCH   4  20
ATOM     20  N   LIG    1        0.063  -3.674  -1.337  0.00  0.00    -0.264 N 
ATOM     21  C   LIG    1       -0.434  -4.257  -0.228  0.00  0.00    +0.217 C 
ATOM     22  C   LIG    1       -0.455  -3.501   1.076  0.00  0.00    +0.109 C 
ATOM     23  O   LIG    1       -0.864  -5.390  -0.279  0.00  0.00    -0.276 OA
BRANCH  20  24
ATOM     24  C   LIG    1        0.008  -4.344  -2.564  0.00  0.00    +0.037 A 
ATOM     25  C   LIG    1       -0.638  -3.761  -3.647  0.00  0.00    +0.023 A 
ATOM     26  C   LIG    1       -0.691  -4.425  -4.857  0.00  0.00    +0.002 A 
ATOM     27  C   LIG    1       -0.102  -5.668  -4.991  0.00  0.00    +0.000 A 
ATOM     28  C   LIG    1        0.542  -6.252  -3.915  0.00  0.00    +0.002 A 
ATOM     29  C   LIG    1        0.603  -5.591  -2.704  0.00  0.00    +0.023 A 
ENDBRANCH  20  24
ENDBRANCH   4  20
TORSDOF 3
