REMARK  Name = ZINC01030814
REMARK                            x       y       z     vdW  Elec       q    Type
REMARK                         _______ _______ _______ _____ _____    ______ ____
ROOT
ATOM      1  C   LIG    1        3.641  -0.639  -0.037  0.00  0.00    +0.058 A 
ATOM      2  C   LIG    1        4.613  -0.628  -1.063  0.00  0.00    +0.176 A 
ATOM      3  N   LIG    1        5.614  -1.379  -0.711  0.00  0.00    -0.157 NA
ATOM      4  N   LIG    1        5.410  -1.948   0.549  0.00  0.00    -0.181 N 
ATOM      5  C   LIG    1        6.178  -2.791   1.311  0.00  0.00    +0.217 A 
ATOM      6  C   LIG    1        5.701  -3.185   2.565  0.00  0.00    +0.095 A 
ATOM      7  C   LIG    1        4.463  -2.717   2.988  0.00  0.00    +0.078 A 
ATOM      8  N   LIG    1        3.751  -1.893   2.194  0.00  0.00    -0.227 NA
ATOM      9  C   LIG    1        4.199  -1.520   1.027  0.00  0.00    +0.168 A 
ENDROOT
BRANCH   1  13
ATOM     10  C   LIG    1       -0.017   1.384   0.010  0.00  0.00    +0.000 A 
ATOM     11  C   LIG    1        1.169   2.106   0.002  0.00  0.00    +0.001 A 
ATOM     12  C   LIG    1        2.370   1.456  -0.013  0.00  0.00    +0.009 A 
ATOM     13  C   LIG    1        2.402   0.046  -0.021  0.00  0.00    -0.012 A 
ATOM     14  C   LIG    1        1.190  -0.676  -0.013  0.00  0.00    +0.009 A 
ATOM     15  C   LIG    1        0.002  -0.004   0.002  0.00  0.00    +0.001 A 
ENDBRANCH   1  13
BRANCH   7  16
ATOM     16  C   LIG    1        3.928  -3.121   4.305  0.00  0.00    +0.003 A 
ATOM     17  C   LIG    1        4.668  -3.971   5.132  0.00  0.00    +0.010 A 
ATOM     18  C   LIG    1        4.163  -4.344   6.360  0.00  0.00    +0.003 A 
ATOM     19  C   LIG    1        2.926  -3.879   6.773  0.00  0.00    +0.032 A 
ATOM     20  C   LIG    1        2.188  -3.037   5.959  0.00  0.00    +0.122 A 
ATOM     21  C   LIG    1        2.683  -2.651   4.731  0.00  0.00    +0.042 A 
BRANCH  20  22
ATOM     22  N   LIG    1        0.867  -2.546   6.410  0.00  0.00    +0.006 N 
ATOM     23  O   LIG    1        0.395  -2.909   7.585  0.00  0.00    -0.130 OA
BRANCH  22  24
ATOM     24  O   LIG    1        0.163  -1.745   5.637  0.00  0.00    -0.396 OA
ATOM     25  H   LIG    1        0.499  -1.486   4.801  0.00  0.00    +0.329 HD
ENDBRANCH  22  24
ENDBRANCH  20  22
ENDBRANCH   7  16
BRANCH   2  26
ATOM     26  C   LIG    1        4.505   0.134  -2.359  0.00  0.00    +0.437 C 
ATOM     27  F   LIG    1        3.159   0.248  -2.723  0.00  0.00    -0.164 F 
ATOM     28  F   LIG    1        5.203  -0.549  -3.361  0.00  0.00    -0.164 F 
ATOM     29  F   LIG    1        5.055   1.411  -2.197  0.00  0.00    -0.164 F 
ENDBRANCH   2  26
BRANCH   5  30
ATOM     30  O   LIG    1        7.373  -3.220   0.866  0.00  0.00    -0.492 OA
ATOM     31  H   LIG    1        7.684  -2.950   0.024  0.00  0.00    +0.294 HD
ENDBRANCH   5  30
TORSDOF 6
