REMARK  Name = ZINC00966822
REMARK                            x       y       z     vdW  Elec       q    Type
REMARK                         _______ _______ _______ _____ _____    ______ ____
ROOT
ATOM      1  C   LIG    1       -2.499   1.014   0.019  0.00  0.00    +0.028 C 
ATOM      2  C   LIG    1       -2.598  -0.155  -0.660  0.00  0.00    +0.080 C 
ATOM      3  C   LIG    1       -1.557  -0.914  -1.387  0.00  0.00    +0.258 C 
ATOM      4  N   LIG    1       -1.940  -2.042  -1.962  0.00  0.00    -0.243 N 
ATOM      5  H   LIG    1       -1.288  -2.572  -2.445  0.00  0.00    +0.159 HD
ATOM      6  C   LIG    1       -3.218  -2.467  -1.897  0.00  0.00    +0.283 C 
ATOM      7  O   LIG    1       -3.705  -3.472  -2.380  0.00  0.00    -0.262 OA
ATOM      8  O   LIG    1       -0.407  -0.523  -1.449  0.00  0.00    -0.269 OA
ATOM      9  S   LIG    1       -4.023  -1.199  -0.930  0.00  0.00    -0.026 S 
ENDROOT
BRANCH   1  12
ATOM     10  C   LIG    1        1.153   1.383   0.787  0.00  0.00    +0.002 A 
ATOM     11  C   LIG    1       -0.083   0.809   0.573  0.00  0.00    +0.008 A 
ATOM     12  C   LIG    1       -1.180   1.618   0.255  0.00  0.00    -0.023 A 
ATOM     13  C   LIG    1       -1.015   3.005   0.169  0.00  0.00    +0.023 A 
ATOM     14  C   LIG    1        0.227   3.563   0.386  0.00  0.00    +0.018 A 
ATOM     15 BR   LIG    1        0.455   5.436   0.261  0.00  0.00    -0.050 Br
ATOM     16  C   LIG    1        1.309   2.754   0.694  0.00  0.00    +0.015 A 
ENDBRANCH   1  12
TORSDOF 1
