REMARK  Name = ZINC00783201
REMARK                            x       y       z     vdW  Elec       q    Type
REMARK                         _______ _______ _______ _____ _____    ______ ____
ROOT
ATOM      1  N   LIG    1       -2.469   4.486  -0.036  0.00  0.00    -0.200 N 
ATOM      2  C   LIG    1       -3.683   3.907  -0.075  0.00  0.00    +0.273 C 
ATOM      3  C   LIG    1       -4.708   4.973   0.072  0.00  0.00    +0.117 C 
ATOM      4  C   LIG    1       -4.030   6.143   0.193  0.00  0.00    +0.129 C 
ATOM      5 CL   LIG    1       -4.720   7.724   0.391  0.00  0.00    -0.076 Cl
ATOM      6  O   LIG    1       -3.902   2.721  -0.208  0.00  0.00    -0.268 OA
ATOM      7  C   LIG    1       -2.601   5.814   0.128  0.00  0.00    +0.271 C 
ATOM      8  O   LIG    1       -1.687   6.611   0.205  0.00  0.00    -0.268 OA
ENDROOT
BRANCH   1  16
ATOM      9  C   LIG    1       -0.053   4.508  -0.088  0.00  0.00    +0.025 A 
ATOM     10  C   LIG    1        1.149   3.836  -0.194  0.00  0.00    +0.023 A 
ATOM     11  C   LIG    1        1.163   2.462  -0.354  0.00  0.00    +0.059 A 
ATOM     12 CL   LIG    1        2.675   1.620  -0.487  0.00  0.00    -0.082 Cl
ATOM     13  C   LIG    1       -0.028   1.757  -0.409  0.00  0.00    +0.061 A 
ATOM     14 CL   LIG    1       -0.008   0.033  -0.610  0.00  0.00    -0.082 Cl
ATOM     15  C   LIG    1       -1.233   2.427  -0.309  0.00  0.00    +0.045 A 
ATOM     16  C   LIG    1       -1.248   3.805  -0.142  0.00  0.00    +0.046 A 
ENDBRANCH   1  16
BRANCH   3  17
ATOM     17  N   LIG    1       -6.078   4.807   0.084  0.00  0.00    -0.320 N 
ATOM     18  C   LIG    1       -6.928   5.444  -0.934  0.00  0.00    +0.133 C 
ATOM     19  C   LIG    1       -7.852   4.369  -1.528  0.00  0.00    +0.178 C 
ATOM     20  O   LIG    1       -8.532   3.696  -0.466  0.00  0.00    -0.377 OA
ATOM     21  C   LIG    1       -7.667   2.992   0.429  0.00  0.00    +0.178 C 
ATOM     22  C   LIG    1       -6.733   3.992   1.120  0.00  0.00    +0.133 C 
ENDBRANCH   3  17
TORSDOF 2
