REMARK  Name = ZINC01032576
REMARK                            x       y       z     vdW  Elec       q    Type
REMARK                         _______ _______ _______ _____ _____    ______ ____
ROOT
ATOM      1  C   LIG    1        1.594   3.142   0.003  0.00  0.00    +0.211 C 
ATOM      2  O   LIG    1        2.762   3.469  -0.006  0.00  0.00    -0.288 OA
ENDROOT
BRANCH   1   3
ATOM      3  C   LIG    1        1.230   1.720  -0.001  0.00  0.00    +0.204 A 
ATOM      4  C   LIG    1        2.088   0.652  -0.014  0.00  0.00    +0.084 A 
ATOM      5  C   LIG    1        1.224  -0.476  -0.012  0.00  0.00    +0.114 A 
ATOM      6  N   LIG    1        0.002  -0.004   0.002  0.00  0.00    -0.078 NA
ATOM      7  O   LIG    1       -0.014   1.204   0.009  0.00  0.00    -0.351 OA
BRANCH   5   8
ATOM      8  C   LIG    1        1.625  -1.905  -0.024  0.00  0.00    +0.005 A 
ATOM      9  C   LIG    1        0.654  -2.904  -0.021  0.00  0.00    +0.011 A 
ATOM     10  C   LIG    1        1.032  -4.231  -0.033  0.00  0.00    +0.022 A 
ATOM     11  C   LIG    1        2.373  -4.571  -0.048  0.00  0.00    +0.059 A 
ATOM     12 CL   LIG    1        2.842  -6.243  -0.062  0.00  0.00    -0.082 Cl
ATOM     13  C   LIG    1        3.343  -3.582  -0.051  0.00  0.00    +0.060 A 
ATOM     14 CL   LIG    1        5.024  -4.016  -0.070  0.00  0.00    -0.082 Cl
ATOM     15  C   LIG    1        2.974  -2.251  -0.045  0.00  0.00    +0.031 A 
ENDBRANCH   5   8
ENDBRANCH   1   3
BRANCH   1  16
ATOM     16  C   LIG    1        0.517   4.195   0.019  0.00  0.00    +0.160 C 
BRANCH  16  17
ATOM     17  S   LIG    1        1.278   5.837   0.020  0.00  0.00    -0.078 S 
BRANCH  17  22
ATOM     18  C   LIG    1       -1.109   8.952   0.060  0.00  0.00    +0.082 A 
ATOM     19  C   LIG    1       -2.381   8.364   0.069  0.00  0.00    +0.048 A 
ATOM     20  C   LIG    1       -2.470   6.986   0.063  0.00  0.00    +0.116 A 
ATOM     21  N   LIG    1       -1.359   6.264   0.043  0.00  0.00    -0.230 NA
ATOM     22  C   LIG    1       -0.167   6.845   0.040  0.00  0.00    +0.189 A 
ATOM     23  N   LIG    1       -0.034   8.162   0.045  0.00  0.00    -0.221 NA
BRANCH  18  26
ATOM     24  C   LIG    1        0.075  12.543   0.069  0.00  0.00    +0.008 A 
ATOM     25  C   LIG    1        0.185  11.172   0.065  0.00  0.00    +0.017 A 
ATOM     26  C   LIG    1       -0.961  10.420   0.066  0.00  0.00    +0.038 A 
ATOM     27  S   LIG    1       -2.227  11.678   0.086  0.00  0.00    -0.095 S 
ATOM     28  C   LIG    1       -1.161  13.109   0.084  0.00  0.00    +0.046 A 
ENDBRANCH  18  26
ENDBRANCH  17  22
ENDBRANCH  16  17
ENDBRANCH   1  16
TORSDOF 6
