REMARK  Name = ZINC00895862
REMARK                            x       y       z     vdW  Elec       q    Type
REMARK                         _______ _______ _______ _____ _____    ______ ____
ROOT
ATOM      1  C   LIG    1       -0.019   1.526   0.010  0.00  0.00    +0.148 C 
ENDROOT
BRANCH   1   2
ATOM      2  C   LIG    1        1.395   2.047  -0.000  0.00  0.00    +0.307 C 
ATOM      3  O   LIG    1        2.333   1.268  -0.013  0.00  0.00    -0.251 OA
BRANCH   2   4
ATOM      4  O   LIG    1        1.602   3.249   0.004  0.00  0.00    -0.481 OA
ATOM      5  H   LIG    1        0.881   3.848   0.014  0.00  0.00    +0.295 HD
ENDBRANCH   2   4
ENDBRANCH   1   2
BRANCH   1   6
ATOM      6  C   LIG    1        0.002  -0.004   0.002  0.00  0.00    +0.217 C 
BRANCH   6   7
ATOM      7  N   LIG    1       -1.372  -0.511   0.012  0.00  0.00    -0.028 N 
ATOM      8  O   LIG    1       -2.203  -0.022  -0.717  0.00  0.00    -0.136 OA
BRANCH   7   9
ATOM      9  O   LIG    1       -1.676  -1.419   0.751  0.00  0.00    -0.400 OA
ATOM     10  H   LIG    1       -1.033  -1.798   1.316  0.00  0.00    +0.329 HD
ENDBRANCH   7   9
ENDBRANCH   6   7
ENDBRANCH   1   6
TORSDOF 5
