REMARK  Name = ZINC01269245
REMARK                            x       y       z     vdW  Elec       q    Type
REMARK                         _______ _______ _______ _____ _____    ______ ____
ROOT
ATOM      1  N   LIG    1       -1.005  -2.212  -0.000  0.00  0.00    -0.241 N 
ATOM      2  C   LIG    1       -1.435  -2.964   0.999  0.00  0.00    +0.259 C 
ATOM      3  C   LIG    1       -1.114  -4.402   0.930  0.00  0.00    +0.077 C 
ATOM      4  S   LIG    1       -0.212  -4.471  -0.611  0.00  0.00    -0.061 S 
ATOM      5  C   LIG    1       -1.422  -5.404   1.803  0.00  0.00    +0.020 C 
ATOM      6  O   LIG    1       -2.063  -2.493   1.929  0.00  0.00    -0.269 OA
ATOM      7  C   LIG    1       -0.314  -2.738  -1.032  0.00  0.00    +0.121 C 
ATOM      8  S   LIG    1        0.315  -1.939  -2.409  0.00  0.00    -0.027 S 
ENDROOT
BRANCH   5   9
ATOM      9  C   LIG    1       -1.009  -6.724   1.534  0.00  0.00    +0.002 C 
ATOM     10  C   LIG    1       -1.315  -7.719   2.401  0.00  0.00    +0.008 C 
BRANCH  10  11
ATOM     11  C   LIG    1       -0.884  -9.096   2.120  0.00  0.00    -0.025 A 
ATOM     12  C   LIG    1       -0.163  -9.384   0.956  0.00  0.00    +0.008 A 
ATOM     13  C   LIG    1        0.243 -10.678   0.703  0.00  0.00    +0.001 A 
ATOM     14  C   LIG    1       -0.072 -11.692   1.591  0.00  0.00    +0.000 A 
ATOM     15  C   LIG    1       -0.790 -11.416   2.742  0.00  0.00    +0.001 A 
ATOM     16  C   LIG    1       -1.197 -10.127   3.013  0.00  0.00    +0.008 A 
ENDBRANCH  10  11
ENDBRANCH   5   9
BRANCH   1  17
ATOM     17  C   LIG    1       -1.293  -0.775   0.010  0.00  0.00    +0.195 C 
BRANCH  17  18
ATOM     18  C   LIG    1        0.002  -0.004   0.002  0.00  0.00    +0.326 C 
ATOM     19  O   LIG    1        1.056  -0.594  -0.011  0.00  0.00    -0.249 OA
BRANCH  18  20
ATOM     20  O   LIG    1       -0.016   1.338   0.009  0.00  0.00    -0.479 OA
ATOM     21  H   LIG    1       -0.834   1.796   0.020  0.00  0.00    +0.295 HD
ENDBRANCH  18  20
ENDBRANCH  17  18
BRANCH  17  22
ATOM     22  C   LIG    1       -2.112  -0.410  -1.229  0.00  0.00    +0.069 C 
BRANCH  22  26
ATOM     23  C   LIG    1       -5.925  -2.326  -1.033  0.00  0.00    +0.000 A 
ATOM     24  C   LIG    1       -5.755  -1.066  -0.489  0.00  0.00    +0.000 A 
ATOM     25  C   LIG    1       -4.521  -0.446  -0.552  0.00  0.00    +0.004 A 
ATOM     26  C   LIG    1       -3.457  -1.086  -1.160  0.00  0.00    -0.045 A 
ATOM     27  C   LIG    1       -3.628  -2.343  -1.708  0.00  0.00    +0.004 A 
ATOM     28  C   LIG    1       -4.860  -2.965  -1.640  0.00  0.00    +0.000 A 
ENDBRANCH  22  26
ENDBRANCH  17  22
ENDBRANCH   1  17
TORSDOF 7
