REMARK  Name = ZINC00967771
REMARK                            x       y       z     vdW  Elec       q    Type
REMARK                         _______ _______ _______ _____ _____    ______ ____
ROOT
ATOM      1  C   LIG    1       -0.013   1.086   0.008  0.00  0.00    -0.093 C 
ATOM      2  N   LIG    1       -0.700   1.560   1.217  0.00  0.00    +0.373 N 
ATOM      3  C   LIG    1       -2.078   1.051   1.227  0.00  0.00    -0.093 C 
ATOM      4  C   LIG    1       -0.720   3.028   1.225  0.00  0.00    -0.093 C 
ATOM      5  C   LIG    1        0.010   1.073   2.407  0.00  0.00    -0.093 C 
ENDROOT
TORSDOF 0
