REMARK  Name = ZINC00752434
REMARK                            x       y       z     vdW  Elec       q    Type
REMARK                         _______ _______ _______ _____ _____    ______ ____
ROOT
ATOM      1  C   LIG    1        4.349  -0.994  -3.843  0.00  0.00    +0.034 C 
ATOM      2  C   LIG    1        5.000  -1.720  -2.664  0.00  0.00    +0.083 C 
ATOM      3  C   LIG    1        4.393  -1.232  -1.370  0.00  0.00    +0.115 C 
ATOM      4  C   LIG    1        3.110  -0.829  -1.322  0.00  0.00    +0.046 C 
ATOM      5  C   LIG    1        2.300  -0.829  -2.473  0.00  0.00    +0.164 C 
ATOM      6  O   LIG    1        1.142  -0.471  -2.388  0.00  0.00    -0.292 OA
ATOM      7  C   LIG    1        2.500  -0.361  -0.023  0.00  0.00    +0.102 C 
ATOM      8  C   LIG    1        3.332  -0.831   1.138  0.00  0.00    +0.098 C 
ATOM      9  C   LIG    1        4.612  -1.231   0.946  0.00  0.00    +0.198 C 
ATOM     10  O   LIG    1        5.174  -1.217  -0.273  0.00  0.00    -0.445 OA
ATOM     11  C   LIG    1        2.841  -1.264  -3.808  0.00  0.00    +0.088 C 
ENDROOT
BRANCH   7  12
ATOM     12  C   LIG    1        2.436   1.145  -0.015  0.00  0.00    -0.027 A 
ATOM     13  C   LIG    1        3.561   1.878  -0.235  0.00  0.00    +0.005 A 
ATOM     14  C   LIG    1        3.522   3.271  -0.231  0.00  0.00    +0.001 A 
ATOM     15  C   LIG    1        2.357   3.939  -0.006  0.00  0.00    +0.008 A 
ATOM     16  C   LIG    1        1.175   3.215   0.225  0.00  0.00    -0.018 A 
ATOM     17  C   LIG    1       -0.046   3.870   0.461  0.00  0.00    +0.008 A 
ATOM     18  C   LIG    1       -1.171   3.136   0.682  0.00  0.00    +0.001 A 
ATOM     19  C   LIG    1       -1.133   1.743   0.672  0.00  0.00    +0.001 A 
ATOM     20  C   LIG    1        0.032   1.075   0.453  0.00  0.00    +0.009 A 
ATOM     21  C   LIG    1        1.215   1.798   0.221  0.00  0.00    -0.014 A 
ENDBRANCH   7  12
BRANCH   1  25
ATOM     22  C   LIG    1        5.985  -2.455  -7.509  0.00  0.00    +0.000 A 
ATOM     23  C   LIG    1        6.107  -1.117  -7.182  0.00  0.00    +0.000 A 
ATOM     24  C   LIG    1        5.577  -0.644  -5.996  0.00  0.00    +0.004 A 
ATOM     25  C   LIG    1        4.926  -1.509  -5.136  0.00  0.00    -0.043 A 
ATOM     26  C   LIG    1        4.809  -2.848  -5.460  0.00  0.00    +0.004 A 
ATOM     27  C   LIG    1        5.335  -3.320  -6.649  0.00  0.00    +0.000 A 
ENDBRANCH   1  25
BRANCH   9  28
ATOM     28  N   LIG    1        5.350  -1.661   2.021  0.00  0.00    -0.328 N 
ATOM     29  H   LIG    1        4.954  -1.675   2.906  0.00  0.00    +0.145 HD
ATOM     30  H   LIG    1        6.267  -1.949   1.895  0.00  0.00    +0.145 HD
ENDBRANCH   9  28
BRANCH   8  31
ATOM     31  C   LIG    1        2.767  -0.856   2.454  0.00  0.00    +0.101 C 
ATOM     32  N   LIG    1        2.320  -0.876   3.498  0.00  0.00    -0.191 NA
ENDBRANCH   8  31
TORSDOF 4
