REMARK  Name = ZINC01105407
REMARK                            x       y       z     vdW  Elec       q    Type
REMARK                         _______ _______ _______ _____ _____    ______ ____
ROOT
ATOM      1  C   LIG    1        3.835  -0.401   0.401  0.00  0.00    +0.107 A 
ATOM      2  C   LIG    1        4.085  -1.746   0.928  0.00  0.00    +0.105 A 
ATOM      3  C   LIG    1        5.316  -2.134   0.440  0.00  0.00    +0.130 A 
ATOM      4  N   LIG    1        5.792  -1.131  -0.319  0.00  0.00    -0.238 N 
ATOM      5  N   LIG    1        4.872  -0.079  -0.338  0.00  0.00    -0.166 NA
ENDROOT
BRANCH   1   9
ATOM      6  C   LIG    1        0.398   1.998   1.115  0.00  0.00    +0.000 A 
ATOM      7  C   LIG    1        0.985   1.307   2.159  0.00  0.00    +0.001 A 
ATOM      8  C   LIG    1        2.101   0.526   1.934  0.00  0.00    +0.010 A 
ATOM      9  C   LIG    1        2.636   0.436   0.650  0.00  0.00    +0.003 A 
ATOM     10  C   LIG    1        2.041   1.135  -0.399  0.00  0.00    +0.010 A 
ATOM     11  C   LIG    1        0.925   1.912  -0.161  0.00  0.00    +0.001 A 
ENDBRANCH   1   9
BRANCH   4  12
ATOM     12  C   LIG    1        7.021  -1.142  -0.992  0.00  0.00    +0.065 A 
ATOM     13  C   LIG    1        7.850  -2.252  -0.909  0.00  0.00    +0.028 A 
ATOM     14  C   LIG    1        9.061  -2.260  -1.574  0.00  0.00    +0.002 A 
ATOM     15  C   LIG    1        9.447  -1.163  -2.322  0.00  0.00    +0.000 A 
ATOM     16  C   LIG    1        8.623  -0.055  -2.406  0.00  0.00    +0.002 A 
ATOM     17  C   LIG    1        7.409  -0.044  -1.749  0.00  0.00    +0.028 A 
ENDBRANCH   4  12
BRANCH   2  18
ATOM     18  C   LIG    1        3.199  -2.528   1.805  0.00  0.00    +0.348 C 
ATOM     19  O   LIG    1        2.090  -2.110   2.078  0.00  0.00    -0.244 OA
BRANCH  18  20
ATOM     20  O   LIG    1        3.616  -3.708   2.306  0.00  0.00    -0.422 OA
BRANCH  20  21
ATOM     21  C   LIG    1        2.738  -4.431   3.050  0.00  0.00    +0.132 A 
ATOM     22  C   LIG    1        1.726  -5.148   2.429  0.00  0.00    +0.048 A 
ATOM     23  C   LIG    1        0.836  -5.883   3.188  0.00  0.00    +0.036 A 
ATOM     24  C   LIG    1        0.953  -5.904   4.566  0.00  0.00    +0.122 A 
ATOM     25  C   LIG    1        1.960  -5.189   5.187  0.00  0.00    +0.036 A 
ATOM     26  C   LIG    1        2.857  -4.458   4.432  0.00  0.00    +0.048 A 
BRANCH  24  27
ATOM     27  N   LIG    1       -0.003  -6.691   5.377  0.00  0.00    +0.006 N 
ATOM     28  O   LIG    1       -0.885  -7.316   4.834  0.00  0.00    -0.130 OA
BRANCH  27  29
ATOM     29  O   LIG    1        0.099  -6.710   6.581  0.00  0.00    -0.396 OA
ATOM     30  H   LIG    1        0.782  -6.226   7.001  0.00  0.00    +0.329 HD
ENDBRANCH  27  29
ENDBRANCH  24  27
ENDBRANCH  20  21
ENDBRANCH  18  20
ENDBRANCH   2  18
TORSDOF 7
