REMARK  Name = ZINC00792646
REMARK                            x       y       z     vdW  Elec       q    Type
REMARK                         _______ _______ _______ _____ _____    ______ ____
ROOT
ATOM      1  C   LIG    1        0.873  -0.533   5.887  0.00  0.00    +0.039 A 
ATOM      2  C   LIG    1        2.060  -1.192   6.183  0.00  0.00    +0.024 A 
ATOM      3  C   LIG    1        2.317  -1.601   7.476  0.00  0.00    +0.009 A 
ATOM      4  C   LIG    1        1.395  -1.356   8.477  0.00  0.00    +0.002 A 
ATOM      5  C   LIG    1        0.212  -0.701   8.186  0.00  0.00    +0.009 A 
ATOM      6  C   LIG    1       -0.049  -0.284   6.895  0.00  0.00    +0.024 A 
ENDROOT
BRANCH   1   8
ATOM      7  C   LIG    1        0.393  -1.032   3.610  0.00  0.00    +0.407 C 
ATOM      8  N   LIG    1        0.610  -0.117   4.577  0.00  0.00    -0.240 N 
ATOM      9  C   LIG    1        0.569   1.311   4.256  0.00  0.00    +0.142 C 
ATOM     10  O   LIG    1        0.508  -2.216   3.857  0.00  0.00    -0.226 OA
BRANCH   7  11
ATOM     11  O   LIG    1        0.050  -0.632   2.371  0.00  0.00    -0.450 OA
BRANCH  11  12
ATOM     12  C   LIG    1       -0.164  -1.655   1.396  0.00  0.00    +0.236 C 
BRANCH  12  14
ATOM     13  C   LIG    1        0.638  -0.195  -0.466  0.00  0.00    +0.010 C 
ATOM     14  C   LIG    1       -0.543  -1.014   0.059  0.00  0.00    +0.021 C 
ATOM     15  C   LIG    1       -0.893  -2.109  -0.950  0.00  0.00    +0.010 C 
ENDBRANCH  12  14
ENDBRANCH  11  12
ENDBRANCH   7  11
ENDBRANCH   1   8
BRANCH   4  16
ATOM     16  C   LIG    1        1.678  -1.804   9.887  0.00  0.00    +0.282 C 
BRANCH  16  17
ATOM     17  C   LIG    1        0.571  -2.751  10.354  0.00  0.00    +0.431 C 
ATOM     18  F   LIG    1       -0.659  -2.086  10.315  0.00  0.00    -0.167 F 
ATOM     19  F   LIG    1        0.834  -3.167  11.664  0.00  0.00    -0.167 F 
ATOM     20  F   LIG    1        0.525  -3.866   9.511  0.00  0.00    -0.167 F 
ENDBRANCH  16  17
BRANCH  16  21
ATOM     21  C   LIG    1        1.728  -0.584  10.810  0.00  0.00    +0.431 C 
ATOM     22  F   LIG    1        2.695   0.314  10.344  0.00  0.00    -0.167 F 
ATOM     23  F   LIG    1        2.059  -0.993  12.106  0.00  0.00    -0.167 F 
ATOM     24  F   LIG    1        0.478   0.042  10.823  0.00  0.00    -0.167 F 
ENDBRANCH  16  21
BRANCH  16  25
ATOM     25  O   LIG    1        2.935  -2.484   9.928  0.00  0.00    -0.369 OA
ATOM     26  H   LIG    1        2.975  -3.269   9.365  0.00  0.00    +0.211 HD
ENDBRANCH  16  25
ENDBRANCH   4  16
TORSDOF 8
