REMARK  Name = ZINC01017885
REMARK                            x       y       z     vdW  Elec       q    Type
REMARK                         _______ _______ _______ _____ _____    ______ ____
ROOT
ATOM      1  C   LIG    1        3.697  -0.687  -0.037  0.00  0.00    +0.007 A 
ATOM      2  C   LIG    1        3.956  -1.715   0.866  0.00  0.00    +0.038 A 
ATOM      3  C   LIG    1        5.184  -2.369   0.819  0.00  0.00    +0.079 A 
ATOM      4  N   LIG    1        6.110  -2.027  -0.071  0.00  0.00    -0.212 NA
ATOM      5  C   LIG    1        5.913  -1.061  -0.948  0.00  0.00    +0.231 A 
ATOM      6  C   LIG    1        4.700  -0.354  -0.974  0.00  0.00    +0.121 A 
ENDROOT
BRANCH   3   7
ATOM      7  C   LIG    1        5.464  -3.463   1.778  0.00  0.00    +0.043 A 
ATOM      8  C   LIG    1        4.502  -3.837   2.715  0.00  0.00    +0.029 A 
ATOM      9  C   LIG    1        4.768  -4.856   3.606  0.00  0.00    +0.019 A 
ATOM     10 BR   LIG    1        3.462  -5.363   4.877  0.00  0.00    -0.050 Br
ATOM     11  C   LIG    1        5.989  -5.510   3.573  0.00  0.00    +0.019 A 
ATOM     12  C   LIG    1        6.950  -5.148   2.649  0.00  0.00    +0.047 A 
ATOM     13  C   LIG    1        6.694  -4.130   1.744  0.00  0.00    +0.126 A 
BRANCH  13  14
ATOM     14  O   LIG    1        7.636  -3.776   0.831  0.00  0.00    -0.506 OA
ATOM     15  H   LIG    1        8.242  -3.088   1.138  0.00  0.00    +0.292 HD
ENDBRANCH  13  14
ENDBRANCH   3   7
BRANCH   1  19
ATOM     16  C   LIG    1       -0.017   1.379   0.010  0.00  0.00    +0.000 A 
ATOM     17  C   LIG    1        1.169   2.093   0.002  0.00  0.00    +0.001 A 
ATOM     18  C   LIG    1        2.377   1.427  -0.013  0.00  0.00    +0.008 A 
ATOM     19  C   LIG    1        2.403   0.033  -0.021  0.00  0.00    -0.016 A 
ATOM     20  C   LIG    1        1.205  -0.680  -0.013  0.00  0.00    +0.008 A 
ATOM     21  C   LIG    1        0.002  -0.004   0.002  0.00  0.00    +0.001 A 
ENDBRANCH   1  19
BRANCH   5  22
ATOM     22  O   LIG    1        6.889  -0.751  -1.835  0.00  0.00    -0.491 OA
ATOM     23  H   LIG    1        7.700  -1.220  -1.822  0.00  0.00    +0.294 HD
ENDBRANCH   5  22
BRANCH   6  24
ATOM     24  C   LIG    1        4.486   0.690  -1.930  0.00  0.00    +0.105 C 
ATOM     25  N   LIG    1        4.316   1.519  -2.688  0.00  0.00    -0.191 NA
ENDBRANCH   6  24
TORSDOF 5
