REMARK  Name = ZINC01022328
REMARK                            x       y       z     vdW  Elec       q    Type
REMARK                         _______ _______ _______ _____ _____    ______ ____
ROOT
ATOM      1  C   LIG    1        4.135  -0.944  -1.466  0.00  0.00    +0.229 C 
ATOM      2  N   LIG    1        5.236  -1.677  -1.725  0.00  0.00    -0.238 N 
ATOM      3  C   LIG    1        5.972  -2.202  -0.655  0.00  0.00    +0.055 A 
ATOM      4  C   LIG    1        6.129  -1.476   0.513  0.00  0.00    +0.025 A 
ATOM      5  C   LIG    1        6.855  -2.005   1.565  0.00  0.00    +0.002 A 
ATOM      6  C   LIG    1        7.425  -3.260   1.462  0.00  0.00    +0.001 A 
ATOM      7  C   LIG    1        7.270  -3.999   0.301  0.00  0.00    +0.017 A 
ATOM      8  C   LIG    1        6.545  -3.475  -0.753  0.00  0.00    +0.035 A 
ATOM      9  S   LIG    1        6.330  -4.394  -2.246  0.00  0.00    -0.086 S 
ATOM     10  C   LIG    1        6.149  -3.117  -3.452  0.00  0.00    +0.035 A 
ATOM     11  C   LIG    1        6.526  -3.327  -4.766  0.00  0.00    +0.017 A 
ATOM     12  C   LIG    1        6.376  -2.310  -5.693  0.00  0.00    +0.001 A 
ATOM     13  C   LIG    1        5.849  -1.092  -5.307  0.00  0.00    +0.002 A 
ATOM     14  C   LIG    1        5.470  -0.877  -3.994  0.00  0.00    +0.025 A 
ATOM     15  C   LIG    1        5.617  -1.888  -3.056  0.00  0.00    +0.055 A 
ATOM     16  O   LIG    1        3.849  -0.663  -0.321  0.00  0.00    -0.275 OA
ENDROOT
BRANCH   1  17
ATOM     17  C   LIG    1        3.259  -0.475  -2.599  0.00  0.00    +0.131 C 
BRANCH  17  21
ATOM     18  C   LIG    1       -0.585   0.597  -1.075  0.00  0.00    +0.000 A 
ATOM     19  C   LIG    1       -0.344  -0.699  -1.492  0.00  0.00    +0.000 A 
ATOM     20  C   LIG    1        0.900  -1.046  -1.985  0.00  0.00    +0.004 A 
ATOM     21  C   LIG    1        1.903  -0.097  -2.061  0.00  0.00    -0.039 A 
ATOM     22  C   LIG    1        1.661   1.199  -1.644  0.00  0.00    +0.004 A 
ATOM     23  C   LIG    1        0.417   1.546  -1.151  0.00  0.00    +0.000 A 
ENDBRANCH  17  21
ENDBRANCH   1  17
TORSDOF 2
