REMARK  Name = ZINC00966965
REMARK                            x       y       z     vdW  Elec       q    Type
REMARK                         _______ _______ _______ _____ _____    ______ ____
ROOT
ATOM      1  C   LIG    1       -1.164   5.650   0.239  0.00  0.00    +0.028 C 
ATOM      2  C   LIG    1       -0.604   4.423   0.097  0.00  0.00    +0.077 C 
ATOM      3  C   LIG    1        0.801   4.055  -0.176  0.00  0.00    +0.263 C 
ATOM      4  N   LIG    1        1.067   2.763  -0.266  0.00  0.00    -0.224 N 
ATOM      5  C   LIG    1        0.103   1.833  -0.118  0.00  0.00    +0.125 C 
ATOM      6  S   LIG    1        0.248   0.129  -0.199  0.00  0.00    -0.027 S 
ATOM      7  O   LIG    1        1.669   4.898  -0.309  0.00  0.00    -0.269 OA
ATOM      8  S   LIG    1       -1.364   2.807   0.177  0.00  0.00    -0.061 S 
ENDROOT
BRANCH   1  12
ATOM      9  C   LIG    1       -5.378   6.037   0.524  0.00  0.00    +0.000 A 
ATOM     10  C   LIG    1       -4.559   7.027   1.040  0.00  0.00    +0.001 A 
ATOM     11  C   LIG    1       -3.188   6.909   0.952  0.00  0.00    +0.008 A 
ATOM     12  C   LIG    1       -2.625   5.784   0.338  0.00  0.00    -0.024 A 
ATOM     13  C   LIG    1       -3.459   4.791  -0.187  0.00  0.00    +0.008 A 
ATOM     14  C   LIG    1       -4.828   4.922  -0.085  0.00  0.00    +0.001 A 
ENDBRANCH   1  12
BRANCH   4  15
ATOM     15  C   LIG    1        2.382   2.351  -0.523  0.00  0.00    +0.043 A 
ATOM     16  C   LIG    1        3.117   1.713   0.469  0.00  0.00    +0.024 A 
ATOM     17  C   LIG    1        4.414   1.305   0.221  0.00  0.00    +0.003 A 
ATOM     18  C   LIG    1        4.989   1.528  -1.013  0.00  0.00    +0.015 A 
ATOM     19  C   LIG    1        4.259   2.168  -2.017  0.00  0.00    +0.061 A 
ATOM     20  C   LIG    1        2.948   2.575  -1.768  0.00  0.00    +0.039 A 
BRANCH  19  21
ATOM     21  C   LIG    1        4.871   2.409  -3.340  0.00  0.00    +0.337 C 
ATOM     22  O   LIG    1        4.235   2.966  -4.212  0.00  0.00    -0.245 OA
BRANCH  21  23
ATOM     23  O   LIG    1        6.136   2.010  -3.579  0.00  0.00    -0.477 OA
ATOM     24  H   LIG    1        6.627   1.581  -2.907  0.00  0.00    +0.295 HD
ENDBRANCH  21  23
ENDBRANCH  19  21
ENDBRANCH   4  15
TORSDOF 4
