REMARK  Name = ZINC00973806
REMARK                            x       y       z     vdW  Elec       q    Type
REMARK                         _______ _______ _______ _____ _____    ______ ____
ROOT
ATOM      1  C   LIG    1       -0.817   3.980  -0.058  0.00  0.00    +0.058 A 
ATOM      2  C   LIG    1        0.534   4.351  -0.074  0.00  0.00    -0.006 A 
ATOM      3  C   LIG    1        0.882   5.705  -0.161  0.00  0.00    +0.029 A 
ATOM      4 BR   LIG    1        2.703   6.215  -0.176  0.00  0.00    -0.050 Br
ATOM      5  C   LIG    1       -0.104   6.665  -0.241  0.00  0.00    +0.065 A 
ATOM      6  C   LIG    1       -1.442   6.296  -0.224  0.00  0.00    +0.167 A 
ATOM      7  O   LIG    1       -2.583   7.042  -0.284  0.00  0.00    -0.453 OA
ATOM      8  C   LIG    1       -3.634   6.177   0.185  0.00  0.00    +0.466 C 
ATOM      9  O   LIG    1       -3.159   4.856  -0.134  0.00  0.00    -0.453 OA
ATOM     10  C   LIG    1       -1.797   4.949  -0.132  0.00  0.00    +0.167 A 
ENDROOT
BRANCH   2  11
ATOM     11  C   LIG    1        1.581   3.325   0.005  0.00  0.00    +0.029 C 
ATOM     12  C   LIG    1        1.455   2.171  -0.699  0.00  0.00    +0.080 C 
ATOM     13  C   LIG    1        0.449   1.790  -1.710  0.00  0.00    +0.258 C 
ATOM     14  N   LIG    1        0.569   0.585  -2.241  0.00  0.00    -0.243 N 
ATOM     15  H   LIG    1       -0.072   0.296  -2.910  0.00  0.00    +0.159 HD
ATOM     16  C   LIG    1        1.562  -0.250  -1.875  0.00  0.00    +0.283 C 
ATOM     17  O   LIG    1        1.790  -1.375  -2.278  0.00  0.00    -0.262 OA
ATOM     18  O   LIG    1       -0.443   2.549  -2.041  0.00  0.00    -0.269 OA
ATOM     19  S   LIG    1        2.462   0.694  -0.656  0.00  0.00    -0.026 S 
ENDBRANCH   2  11
TORSDOF 1
