REMARK  Name = ZINC01081487
REMARK                            x       y       z     vdW  Elec       q    Type
REMARK                         _______ _______ _______ _____ _____    ______ ____
ROOT
ATOM      1  C   LIG    1        2.326   5.706   0.009  0.00  0.00    +0.179 C 
ATOM      2  O   LIG    1        1.266   6.307   0.022  0.00  0.00    -0.288 OA
ENDROOT
BRANCH   1   4
ATOM      3  C   LIG    1        1.175   3.557   0.009  0.00  0.00    +0.011 C 
ATOM      4  C   LIG    1        2.339   4.242   0.002  0.00  0.00    +0.051 C 
BRANCH   3   6
ATOM      5  C   LIG    1       -0.017   1.373   0.010  0.00  0.00    +0.011 A 
ATOM      6  C   LIG    1        1.188   2.087   0.002  0.00  0.00    -0.025 A 
ATOM      7  C   LIG    1        2.403   1.394  -0.013  0.00  0.00    +0.011 A 
ATOM      8  C   LIG    1        2.408   0.016  -0.021  0.00  0.00    +0.039 A 
ATOM      9  C   LIG    1        1.211  -0.684  -0.013  0.00  0.00    +0.123 A 
ATOM     10  F   LIG    1        1.222  -2.035  -0.021  0.00  0.00    -0.205 F 
ATOM     11  C   LIG    1        0.002  -0.004   0.002  0.00  0.00    +0.039 A 
ENDBRANCH   3   6
ENDBRANCH   1   4
BRANCH   1  12
ATOM     12  C   LIG    1        3.588   6.449   0.002  0.00  0.00    +0.051 C 
ATOM     13  C   LIG    1        3.577   7.799   0.008  0.00  0.00    +0.011 C 
BRANCH  13  14
ATOM     14  C   LIG    1        4.844   8.545   0.000  0.00  0.00    -0.025 A 
ATOM     15  C   LIG    1        6.064   7.858  -0.020  0.00  0.00    +0.011 A 
ATOM     16  C   LIG    1        7.247   8.563  -0.028  0.00  0.00    +0.039 A 
ATOM     17  C   LIG    1        7.232   9.950  -0.015  0.00  0.00    +0.123 A 
ATOM     18  F   LIG    1        8.396  10.636  -0.022  0.00  0.00    -0.205 F 
ATOM     19  C   LIG    1        6.027  10.637   0.006  0.00  0.00    +0.039 A 
ATOM     20  C   LIG    1        4.836   9.944   0.007  0.00  0.00    +0.011 A 
ENDBRANCH  13  14
ENDBRANCH   1  12
TORSDOF 4
