REMARK  Name = ZINC00752549
REMARK                            x       y       z     vdW  Elec       q    Type
REMARK                         _______ _______ _______ _____ _____    ______ ____
ROOT
ATOM      1  C   LIG    1        2.486   1.125  -0.040  0.00  0.00    +0.101 C 
ATOM      2  C   LIG    1        3.640   1.986   0.393  0.00  0.00    +0.098 C 
ATOM      3  C   LIG    1        3.526   3.336   0.393  0.00  0.00    +0.198 C 
ATOM      4  O   LIG    1        2.393   3.942   0.006  0.00  0.00    -0.445 OA
ATOM      5  C   LIG    1        1.230   3.263   0.030  0.00  0.00    +0.115 C 
ATOM      6  C   LIG    1       -0.053   4.059   0.086  0.00  0.00    +0.083 C 
ATOM      7  C   LIG    1       -1.162   3.299  -0.644  0.00  0.00    +0.034 C 
ATOM      8  C   LIG    1       -1.335   1.931   0.019  0.00  0.00    +0.088 C 
ATOM      9  C   LIG    1       -0.014   1.210   0.009  0.00  0.00    +0.164 C 
ATOM     10  O   LIG    1        0.002  -0.004   0.002  0.00  0.00    -0.292 OA
ATOM     11  C   LIG    1        1.203   1.918   0.001  0.00  0.00    +0.046 C 
ENDROOT
BRANCH   1  15
ATOM     12  C   LIG    1        3.170  -0.260  -4.025  0.00  0.00    +0.120 A 
ATOM     13  C   LIG    1        3.036  -1.170  -2.986  0.00  0.00    +0.046 A 
ATOM     14  C   LIG    1        2.815  -0.720  -1.699  0.00  0.00    +0.008 A 
ATOM     15  C   LIG    1        2.728   0.637  -1.445  0.00  0.00    -0.034 A 
ATOM     16  C   LIG    1        2.856   1.546  -2.479  0.00  0.00    +0.008 A 
ATOM     17  C   LIG    1        3.083   1.101  -3.767  0.00  0.00    +0.046 A 
BRANCH  12  19
ATOM     18  C   LIG    1        3.516   0.294  -6.311  0.00  0.00    +0.277 C 
ATOM     19  O   LIG    1        3.387  -0.700  -5.292  0.00  0.00    -0.495 OA
ENDBRANCH  12  19
ENDBRANCH   1  15
BRANCH   7  20
ATOM     20  C   LIG    1       -2.451   4.074  -0.554  0.00  0.00    -0.043 A 
ATOM     21  C   LIG    1       -3.005   4.352   0.681  0.00  0.00    +0.004 A 
ATOM     22  C   LIG    1       -4.186   5.067   0.764  0.00  0.00    +0.000 A 
ATOM     23  C   LIG    1       -4.817   5.494  -0.389  0.00  0.00    +0.000 A 
ATOM     24  C   LIG    1       -4.266   5.212  -1.624  0.00  0.00    +0.000 A 
ATOM     25  C   LIG    1       -3.083   4.501  -1.707  0.00  0.00    +0.004 A 
ENDBRANCH   7  20
BRANCH   3  26
ATOM     26  N   LIG    1        4.593   4.100   0.796  0.00  0.00    -0.328 N 
ATOM     27  H   LIG    1        5.417   3.673   1.077  0.00  0.00    +0.145 HD
ATOM     28  H   LIG    1        4.523   5.068   0.799  0.00  0.00    +0.145 HD
ENDBRANCH   3  26
BRANCH   2  29
ATOM     29  C   LIG    1        4.867   1.375   0.809  0.00  0.00    +0.101 C 
ATOM     30  N   LIG    1        5.840   0.890   1.139  0.00  0.00    -0.191 NA
ENDBRANCH   2  29
TORSDOF 5
