REMARK  Name = ZINC00781681
REMARK                            x       y       z     vdW  Elec       q    Type
REMARK                         _______ _______ _______ _____ _____    ______ ____
ROOT
ATOM      1  C   LIG    1       -4.853   8.290  -3.703  0.00  0.00    +0.061 C 
ATOM      2  C   LIG    1       -4.664   7.585  -2.385  0.00  0.00    +0.016 C 
ATOM      3  C   LIG    1       -5.203   8.101  -1.267  0.00  0.00    +0.066 C 
ATOM      4  C   LIG    1       -5.043   7.422   0.061  0.00  0.00    +0.099 C 
ATOM      5  C   LIG    1       -3.911   6.426   0.027  0.00  0.00    +0.024 C 
ATOM      6  C   LIG    1       -3.423   5.977  -1.149  0.00  0.00    +0.016 C 
ATOM      7  C   LIG    1       -2.295   4.976  -1.193  0.00  0.00    +0.060 C 
ATOM      8  C   LIG    1       -2.355   4.080   0.046  0.00  0.00    +0.039 C 
ATOM      9  C   LIG    1       -2.272   4.964   1.294  0.00  0.00    +0.088 C 
ATOM     10  C   LIG    1       -3.384   5.978   1.250  0.00  0.00    +0.162 C 
ATOM     11  O   LIG    1       -3.833   6.416   2.291  0.00  0.00    -0.292 OA
ATOM     12  N   LIG    1       -3.945   6.423  -2.333  0.00  0.00    -0.321 N 
ATOM     13  H   LIG    1       -3.781   5.837  -3.250  0.00  0.00    +0.152 HD
ENDROOT
BRANCH   4  14
ATOM     14  C   LIG    1       -6.323   6.705   0.406  0.00  0.00    +0.002 A 
ATOM     15  C   LIG    1       -7.154   6.902   1.459  0.00  0.00    +0.012 A 
ATOM     16  C   LIG    1       -8.286   6.117   1.575  0.00  0.00    +0.008 A 
ATOM     17  C   LIG    1       -8.531   5.174   0.633  0.00  0.00    +0.045 A 
ATOM     18  S   LIG    1       -7.141   5.381  -0.468  0.00  0.00    -0.101 S 
ENDBRANCH   4  14
BRANCH   8  19
ATOM     19  C   LIG    1       -1.196   3.116   0.030  0.00  0.00    -0.006 A 
ATOM     20  C   LIG    1       -1.213   1.761   0.017  0.00  0.00    +0.011 A 
ATOM     21  C   LIG    1       -0.013   1.076   0.008  0.00  0.00    +0.008 A 
ATOM     22  C   LIG    1        1.146   1.780   0.001  0.00  0.00    +0.045 A 
ATOM     23  S   LIG    1        0.555   3.464   0.015  0.00  0.00    -0.101 S 
ENDBRANCH   8  19
BRANCH   3  24
ATOM     24  C   LIG    1       -5.936   9.308  -1.345  0.00  0.00    +0.338 C 
ATOM     25  O   LIG    1       -6.074   9.869  -2.416  0.00  0.00    -0.245 OA
BRANCH  24  26
ATOM     26  O   LIG    1       -6.484   9.838  -0.231  0.00  0.00    -0.457 OA
BRANCH  26  27
ATOM     27  C   LIG    1       -7.211  11.059  -0.383  0.00  0.00    +0.268 C 
BRANCH  27  28
ATOM     28  C   LIG    1       -7.744  11.496   0.956  0.00  0.00    -0.010 A 
ATOM     29  C   LIG    1       -8.996  11.079   1.370  0.00  0.00    +0.010 A 
ATOM     30  C   LIG    1       -9.485  11.473   2.601  0.00  0.00    +0.046 A 
ATOM     31  C   LIG    1       -8.724  12.299   3.416  0.00  0.00    +0.120 A 
ATOM     32  C   LIG    1       -7.472  12.721   2.996  0.00  0.00    +0.046 A 
ATOM     33  C   LIG    1       -6.984  12.319   1.767  0.00  0.00    +0.010 A 
BRANCH  31  34
ATOM     34  O   LIG    1       -9.206  12.693   4.624  0.00  0.00    -0.495 OA
ATOM     35  C   LIG    1      -10.503  12.219   4.992  0.00  0.00    +0.277 C 
ENDBRANCH  31  34
ENDBRANCH  27  28
ENDBRANCH  26  27
ENDBRANCH  24  26
ENDBRANCH   3  24
TORSDOF 7
