REMARK  Name = ZINC00998893
REMARK                            x       y       z     vdW  Elec       q    Type
REMARK                         _______ _______ _______ _____ _____    ______ ____
ROOT
ATOM      1  C   LIG    1       -0.223   1.002  -1.323  0.00  0.00    +0.028 C 
ATOM      2  C   LIG    1       -1.325   1.651  -0.867  0.00  0.00    +0.078 C 
ATOM      3  C   LIG    1       -1.521   3.089  -0.600  0.00  0.00    +0.256 C 
ATOM      4  N   LIG    1       -2.709   3.459  -0.154  0.00  0.00    -0.260 N 
ATOM      5  H   LIG    1       -2.881   4.395   0.034  0.00  0.00    +0.157 HD
ATOM      6  C   LIG    1       -3.706   2.530   0.045  0.00  0.00    +0.166 C 
ATOM      7  N   LIG    1       -4.933   2.726   0.479  0.00  0.00    -0.225 NA
ATOM      8  O   LIG    1       -0.629   3.897  -0.781  0.00  0.00    -0.269 OA
ATOM      9  S   LIG    1       -2.930   0.995  -0.436  0.00  0.00    -0.049 S 
ENDROOT
BRANCH   7  10
ATOM     10  C   LIG    1       -5.772   1.666   0.651  0.00  0.00    +0.074 A 
ATOM     11  C   LIG    1       -5.373   0.555   1.385  0.00  0.00    +0.028 A 
ATOM     12  C   LIG    1       -6.232  -0.520   1.563  0.00  0.00    +0.003 A 
ATOM     13  C   LIG    1       -7.482  -0.538   1.023  0.00  0.00    +0.008 A 
ATOM     14  C   LIG    1       -7.950   0.548   0.265  0.00  0.00    -0.016 A 
ATOM     15  C   LIG    1       -9.238   0.544  -0.298  0.00  0.00    +0.008 A 
ATOM     16  C   LIG    1       -9.657   1.615  -1.028  0.00  0.00    +0.001 A 
ATOM     17  C   LIG    1       -8.828   2.717  -1.226  0.00  0.00    +0.001 A 
ATOM     18  C   LIG    1       -7.573   2.753  -0.695  0.00  0.00    +0.010 A 
ATOM     19  C   LIG    1       -7.110   1.670   0.061  0.00  0.00    +0.008 A 
ENDBRANCH   7  10
BRANCH   1  22
ATOM     20  C   LIG    1        3.312   2.087  -1.951  0.00  0.00    +0.164 A 
ATOM     21  C   LIG    1        2.231   1.363  -1.488  0.00  0.00    +0.057 A 
ATOM     22  C   LIG    1        0.930   1.768  -1.812  0.00  0.00    -0.019 A 
ATOM     23  C   LIG    1        0.733   2.901  -2.610  0.00  0.00    +0.026 A 
ATOM     24  C   LIG    1        1.818   3.621  -3.063  0.00  0.00    +0.059 A 
ATOM     25  I   LIG    1        1.521   5.322  -4.249  0.00  0.00    -0.040 I 
ATOM     26  C   LIG    1        3.107   3.218  -2.740  0.00  0.00    +0.176 A 
BRANCH  20  27
ATOM     27  O   LIG    1        4.576   1.697  -1.637  0.00  0.00    -0.489 OA
BRANCH  27  29
ATOM     28  C   LIG    1        6.196   0.248  -0.579  0.00  0.00    +0.048 C 
ATOM     29  C   LIG    1        4.712   0.529  -0.825  0.00  0.00    +0.226 C 
ENDBRANCH  27  29
ENDBRANCH  20  27
BRANCH  26  30
ATOM     30  O   LIG    1        4.172   3.929  -3.194  0.00  0.00    -0.478 OA
BRANCH  30  31
ATOM     31  C   LIG    1        4.718   3.544  -4.458  0.00  0.00    +0.324 C 
BRANCH  31  32
ATOM     32  C   LIG    1        5.883   4.438  -4.795  0.00  0.00    +0.248 C 
ATOM     33  N   LIG    1        6.558   4.260  -5.948  0.00  0.00    -0.327 N 
ATOM     34  H   LIG    1        7.308   4.835  -6.165  0.00  0.00    +0.145 HD
ATOM     35  H   LIG    1        6.293   3.556  -6.561  0.00  0.00    +0.145 HD
ATOM     36  O   LIG    1        6.215   5.317  -4.028  0.00  0.00    -0.272 OA
ENDBRANCH  31  32
ENDBRANCH  30  31
ENDBRANCH  26  30
ENDBRANCH   1  22
TORSDOF 7
