REMARK  Name = ZINC00728134
REMARK                            x       y       z     vdW  Elec       q    Type
REMARK                         _______ _______ _______ _____ _____    ______ ____
ROOT
ATOM      1  C   LIG    1       -2.509   3.749   0.030  0.00  0.00    +0.101 C 
ATOM      2  C   LIG    1       -1.211   2.991   0.030  0.00  0.00    +0.098 C 
ATOM      3  C   LIG    1       -1.209   1.636   0.017  0.00  0.00    +0.198 C 
ATOM      4  O   LIG    1       -2.354   0.935   0.018  0.00  0.00    -0.445 OA
ATOM      5  C   LIG    1       -3.493   1.514  -0.407  0.00  0.00    +0.115 C 
ATOM      6  C   LIG    1       -4.612   0.615  -0.876  0.00  0.00    +0.083 C 
ATOM      7  C   LIG    1       -5.961   1.274  -0.580  0.00  0.00    +0.034 C 
ATOM      8  C   LIG    1       -6.007   2.627  -1.298  0.00  0.00    +0.088 C 
ATOM      9  C   LIG    1       -4.833   3.455  -0.851  0.00  0.00    +0.164 C 
ATOM     10  O   LIG    1       -4.919   4.667  -0.864  0.00  0.00    -0.292 OA
ATOM     11  C   LIG    1       -3.636   2.852  -0.420  0.00  0.00    +0.046 C 
ENDROOT
BRANCH   1  15
ATOM     12  C   LIG    1       -3.312   5.159   3.986  0.00  0.00    -0.018 A 
ATOM     13  C   LIG    1       -3.164   6.065   2.937  0.00  0.00    +0.009 A 
ATOM     14  C   LIG    1       -2.905   5.604   1.662  0.00  0.00    +0.005 A 
ATOM     15  C   LIG    1       -2.792   4.246   1.424  0.00  0.00    -0.035 A 
ATOM     16  C   LIG    1       -2.943   3.342   2.460  0.00  0.00    +0.005 A 
ATOM     17  C   LIG    1       -3.197   3.792   3.740  0.00  0.00    +0.009 A 
BRANCH  12  21
ATOM     18  C   LIG    1       -4.110   6.561   7.920  0.00  0.00    +0.000 A 
ATOM     19  C   LIG    1       -3.997   5.203   7.682  0.00  0.00    +0.001 A 
ATOM     20  C   LIG    1       -3.738   4.743   6.407  0.00  0.00    +0.008 A 
ATOM     21  C   LIG    1       -3.590   5.648   5.359  0.00  0.00    -0.018 A 
ATOM     22  C   LIG    1       -3.699   7.015   5.605  0.00  0.00    +0.008 A 
ATOM     23  C   LIG    1       -3.963   7.465   6.883  0.00  0.00    +0.001 A 
ENDBRANCH  12  21
ENDBRANCH   1  15
BRANCH   7  24
ATOM     24  C   LIG    1       -7.076   0.395  -1.084  0.00  0.00    -0.043 A 
ATOM     25  C   LIG    1       -7.154   0.080  -2.428  0.00  0.00    +0.004 A 
ATOM     26  C   LIG    1       -8.175  -0.730  -2.890  0.00  0.00    +0.000 A 
ATOM     27  C   LIG    1       -9.123  -1.217  -2.010  0.00  0.00    +0.000 A 
ATOM     28  C   LIG    1       -9.047  -0.898  -0.666  0.00  0.00    +0.000 A 
ATOM     29  C   LIG    1       -8.024  -0.092  -0.204  0.00  0.00    +0.004 A 
ENDBRANCH   7  24
BRANCH   3  30
ATOM     30  N   LIG    1       -0.011   0.966   0.007  0.00  0.00    -0.328 N 
ATOM     31  H   LIG    1        0.822   1.462   0.002  0.00  0.00    +0.145 HD
ATOM     32  H   LIG    1        0.002  -0.004   0.002  0.00  0.00    +0.145 HD
ENDBRANCH   3  30
BRANCH   2  33
ATOM     33  C   LIG    1        0.030   3.705   0.038  0.00  0.00    +0.101 C 
ATOM     34  N   LIG    1        1.015   4.271   0.044  0.00  0.00    -0.191 NA
ENDBRANCH   2  33
TORSDOF 5
