REMARK  Name = ZINC01393715
REMARK                            x       y       z     vdW  Elec       q    Type
REMARK                         _______ _______ _______ _____ _____    ______ ____
ROOT
ATOM      1  C   LIG    1       -4.114   2.934   4.567  0.00  0.00    +0.002 A 
ATOM      2  C   LIG    1       -3.212   1.971   4.980  0.00  0.00    +0.001 A 
ATOM      3  C   LIG    1       -2.701   1.068   4.065  0.00  0.00    +0.016 A 
ATOM      4  C   LIG    1       -3.095   1.133   2.739  0.00  0.00    +0.030 A 
ATOM      5  C   LIG    1       -3.999   2.105   2.313  0.00  0.00    +0.047 A 
ATOM      6  N   LIG    1       -4.396   2.209   0.983  0.00  0.00    -0.284 N 
ATOM      7  H   LIG    1       -5.193   2.733   0.806  0.00  0.00    +0.155 HD
ATOM      8  C   LIG    1       -3.794   1.664  -0.069  0.00  0.00    +0.231 C 
ATOM      9  C   LIG    1       -2.479   0.934   0.019  0.00  0.00    +0.146 C 
ATOM     10  O   LIG    1       -4.330   1.759  -1.153  0.00  0.00    -0.274 OA
ATOM     11  S   LIG    1       -2.453  -0.022   1.566  0.00  0.00    -0.110 S 
ATOM     12  C   LIG    1       -4.508   3.004   3.245  0.00  0.00    +0.024 A 
ENDROOT
BRANCH   9  13
ATOM     13  C   LIG    1       -1.330   1.944   0.019  0.00  0.00    +0.121 C 
BRANCH  13  14
ATOM     14  C   LIG    1       -0.014   1.209   0.009  0.00  0.00    +0.228 C 
ATOM     15  N   LIG    1        1.143   1.898   0.001  0.00  0.00    -0.254 N 
ATOM     16  H   LIG    1        1.130   2.868   0.007  0.00  0.00    +0.169 HD
ATOM     17  O   LIG    1        0.002  -0.004   0.002  0.00  0.00    -0.274 OA
BRANCH  15  18
ATOM     18  N   LIG    1        2.336   1.232  -0.014  0.00  0.00    -0.254 NA
ATOM     19  H   LIG    1        3.111   1.877  -0.018  0.00  0.00    +0.140 HD
ATOM     20  H   LIG    1        2.387   0.600  -0.799  0.00  0.00    +0.140 HD
ENDBRANCH  15  18
ENDBRANCH  13  14
ENDBRANCH   9  13
TORSDOF 3
