REMARK  Name = ZINC00896717
REMARK                            x       y       z     vdW  Elec       q    Type
REMARK                         _______ _______ _______ _____ _____    ______ ____
ROOT
ATOM      1  C   LIG    1        2.937   1.599   4.271  0.00  0.00    +0.041 A 
ATOM      2  C   LIG    1        3.799   1.628   3.174  0.00  0.00    +0.014 A 
ATOM      3  C   LIG    1        4.878   2.489   3.169  0.00  0.00    +0.008 A 
ATOM      4  C   LIG    1        5.108   3.323   4.247  0.00  0.00    -0.001 A 
ATOM      5  C   LIG    1        4.255   3.301   5.342  0.00  0.00    +0.124 A 
ATOM      6  C   LIG    1        3.166   2.445   5.355  0.00  0.00    +0.059 A 
ENDROOT
BRANCH   1   8
ATOM      7  N   LIG    1        1.567  -0.110   3.268  0.00  0.00    -0.091 NA
ATOM      8  C   LIG    1        1.779   0.677   4.280  0.00  0.00    +0.239 C 
BRANCH   7   9
ATOM      9  S   LIG    1        0.271  -1.141   3.278  0.00  0.00    +0.102 S 
ATOM     10  O   LIG    1        0.510  -2.084   4.313  0.00  0.00    -0.146 OA
ATOM     11  O   LIG    1       -0.894  -0.329   3.242  0.00  0.00    -0.146 OA
BRANCH   9  18
ATOM     12  C   LIG    1       -0.101   0.115   0.551  0.00  0.00    +0.046 C 
ATOM     13  C   LIG    1        0.127  -1.375   0.562  0.00  0.00    -0.024 A 
ATOM     14  C   LIG    1        0.160  -2.078  -0.628  0.00  0.00    +0.005 A 
ATOM     15  C   LIG    1        0.369  -3.444  -0.618  0.00  0.00    +0.000 A 
ATOM     16  C   LIG    1        0.544  -4.108   0.582  0.00  0.00    +0.002 A 
ATOM     17  C   LIG    1        0.511  -3.405   1.772  0.00  0.00    +0.029 A 
ATOM     18  C   LIG    1        0.307  -2.038   1.762  0.00  0.00    +0.115 A 
ENDBRANCH   9  18
ENDBRANCH   7   9
BRANCH   8  19
ATOM     19  O   LIG    1        0.941   0.655   5.341  0.00  0.00    -0.491 OA
ATOM     20  H   LIG    1        0.208   0.071   5.347  0.00  0.00    +0.294 HD
ENDBRANCH   8  19
ENDBRANCH   1   8
BRANCH   5  21
ATOM     21  O   LIG    1        4.486   4.123   6.399  0.00  0.00    -0.495 OA
ATOM     22  C   LIG    1        3.568   4.047   7.492  0.00  0.00    +0.277 C 
ENDBRANCH   5  21
BRANCH   4  23
ATOM     23  C   LIG    1        6.288   4.260   4.234  0.00  0.00    +0.076 C 
BRANCH  23  24
ATOM     24  C   LIG    1        7.450   3.615   4.944  0.00  0.00    -0.018 A 
ATOM     25  C   LIG    1        7.784   3.773   6.235  0.00  0.00    +0.090 A 
ATOM     26  N   LIG    1        8.896   3.031   6.523  0.00  0.00    -0.349 N 
ATOM     27  C   LIG    1        9.545   2.961   7.835  0.00  0.00    +0.149 C 
ATOM     28  C   LIG    1        9.316   2.358   5.395  0.00  0.00    +0.049 A 
ATOM     29  C   LIG    1       10.370   1.487   5.140  0.00  0.00    +0.028 A 
ATOM     30  C   LIG    1       10.528   0.947   3.883  0.00  0.00    +0.025 A 
ATOM     31  C   LIG    1        9.649   1.277   2.854  0.00  0.00    +0.037 A 
ATOM     32  C   LIG    1        8.599   2.145   3.086  0.00  0.00    +0.033 A 
ATOM     33  C   LIG    1        8.424   2.690   4.360  0.00  0.00    +0.005 A 
BRANCH  31  34
ATOM     34  N   LIG    1        9.831   0.726   1.577  0.00  0.00    -0.251 N 
ATOM     35  H   LIG    1       10.186  -0.171   1.483  0.00  0.00    +0.158 HD
ATOM     36  C   LIG    1        9.511   1.443   0.482  0.00  0.00    +0.405 C 
ATOM     37  O   LIG    1        9.156   2.600   0.596  0.00  0.00    -0.226 OA
BRANCH  36  38
ATOM     38  O   LIG    1        9.583   0.878  -0.738  0.00  0.00    -0.447 OA
BRANCH  38  39
ATOM     39  C   LIG    1        9.229   1.696  -1.854  0.00  0.00    +0.178 C 
ATOM     40  C   LIG    1        7.735   1.512  -2.192  0.00  0.00    +0.045 C 
ATOM     41  C   LIG    1        7.686   1.572  -3.740  0.00  0.00    +0.004 C 
ATOM     42  C   LIG    1        8.978   0.824  -4.152  0.00  0.00    +0.004 C 
ATOM     43  C   LIG    1       10.019   1.259  -3.100  0.00  0.00    +0.045 C 
ENDBRANCH  38  39
ENDBRANCH  36  38
ENDBRANCH  31  34
ENDBRANCH  23  24
ENDBRANCH   4  23
TORSDOF 10
