REMARK  Name = ZINC00896484
REMARK                            x       y       z     vdW  Elec       q    Type
REMARK                         _______ _______ _______ _____ _____    ______ ____
ROOT
ATOM      1  C   LIG    1       -0.017   1.379   0.010  0.00  0.00    +0.003 A 
ATOM      2  C   LIG    1        1.168   2.094   0.002  0.00  0.00    +0.023 A 
ATOM      3  C   LIG    1        2.378   1.430  -0.013  0.00  0.00    +0.084 A 
ATOM      4 CL   LIG    1        3.864   2.328  -0.023  0.00  0.00    -0.080 Cl
ATOM      5  C   LIG    1        2.405   0.033  -0.021  0.00  0.00    +0.178 A 
ATOM      6  C   LIG    1        1.205  -0.681  -0.013  0.00  0.00    +0.084 A 
ATOM      7 CL   LIG    1        1.226  -2.417  -0.023  0.00  0.00    -0.080 Cl
ATOM      8  C   LIG    1        0.002  -0.004   0.002  0.00  0.00    +0.023 A 
ENDROOT
BRANCH   5   9
ATOM      9  N   LIG    1        3.603  -0.632  -0.036  0.00  0.00    -0.074 NA
ATOM     10  C   LIG    1        4.188  -0.957   1.093  0.00  0.00    +0.370 C 
ATOM     11  N   LIG    1        3.666  -0.674   2.323  0.00  0.00    -0.235 N 
ATOM     12  H   LIG    1        2.828  -0.213   2.486  0.00  0.00    +0.245 HD
ATOM     13  C   LIG    1        4.577  -1.178   3.359  0.00  0.00    +0.219 C 
ATOM     14  C   LIG    1        5.739  -1.815   2.575  0.00  0.00    +0.219 C 
ATOM     15  N   LIG    1        5.380  -1.620   1.163  0.00  0.00    -0.235 N 
ATOM     16  H   LIG    1        5.906  -1.913   0.403  0.00  0.00    +0.245 HD
ENDBRANCH   5   9
TORSDOF 1
