REMARK  Name = ZINC01084626
REMARK                            x       y       z     vdW  Elec       q    Type
REMARK                         _______ _______ _______ _____ _____    ______ ____
ROOT
ATOM      1  C   LIG    1        1.180   1.536  -2.491  0.00  0.00    +0.031 C 
ATOM      2  C   LIG    1        1.343   2.364  -3.555  0.00  0.00    +0.077 C 
ATOM      3  C   LIG    1        0.701   2.326  -4.884  0.00  0.00    +0.256 C 
ATOM      4  N   LIG    1        1.052   3.271  -5.739  0.00  0.00    -0.270 N 
ATOM      5  H   LIG    1        0.653   3.283  -6.624  0.00  0.00    +0.156 HD
ATOM      6  C   LIG    1        1.952   4.220  -5.410  0.00  0.00    +0.118 C 
ATOM      7  S   LIG    1        2.531   5.515  -6.369  0.00  0.00    -0.027 S 
ATOM      8  O   LIG    1       -0.111   1.467  -5.178  0.00  0.00    -0.269 OA
ATOM      9  S   LIG    1        2.387   3.804  -3.729  0.00  0.00    -0.061 S 
ENDROOT
BRANCH   1  14
ATOM     10  C   LIG    1        4.072   2.486  -0.306  0.00  0.00    +0.001 A 
ATOM     11  C   LIG    1        3.692   1.928   0.904  0.00  0.00    +0.004 A 
ATOM     12  C   LIG    1        2.495   1.246   1.016  0.00  0.00    +0.046 A 
ATOM     13  C   LIG    1        1.669   1.107  -0.087  0.00  0.00    +0.124 A 
ATOM     14  C   LIG    1        2.049   1.671  -1.316  0.00  0.00    +0.018 A 
ATOM     15  C   LIG    1        3.262   2.363  -1.413  0.00  0.00    +0.011 A 
BRANCH  13  16
ATOM     16  O   LIG    1        0.495   0.434   0.020  0.00  0.00    -0.506 OA
ATOM     17  H   LIG    1        0.566  -0.512  -0.166  0.00  0.00    +0.292 HD
ENDBRANCH  13  16
ENDBRANCH   1  14
TORSDOF 2
