REMARK  Name = ZINC00915588
REMARK                            x       y       z     vdW  Elec       q    Type
REMARK                         _______ _______ _______ _____ _____    ______ ____
ROOT
ATOM      1  C   LIG    1        3.188  -4.401  -5.570  0.00  0.00    +0.234 C 
ENDROOT
BRANCH   1   2
ATOM      2  O   LIG    1        2.538  -3.835  -4.430  0.00  0.00    -0.453 OA
BRANCH   2   3
ATOM      3  C   LIG    1        2.490  -2.490  -4.359  0.00  0.00    +0.340 C 
ATOM      4  O   LIG    1        2.986  -1.817  -5.240  0.00  0.00    -0.245 OA
BRANCH   3   8
ATOM      5  C   LIG    1        0.605  -0.606  -1.054  0.00  0.00    +0.120 A 
ATOM      6  C   LIG    1        1.172   0.166  -2.061  0.00  0.00    +0.046 A 
ATOM      7  C   LIG    1        1.785  -0.441  -3.135  0.00  0.00    +0.018 A 
ATOM      8  C   LIG    1        1.836  -1.836  -3.211  0.00  0.00    +0.059 A 
ATOM      9  C   LIG    1        1.264  -2.609  -2.196  0.00  0.00    +0.018 A 
ATOM     10  C   LIG    1        0.658  -1.994  -1.123  0.00  0.00    +0.046 A 
BRANCH   5  12
ATOM     11  C   LIG    1       -0.017   1.425   0.010  0.00  0.00    +0.277 C 
ATOM     12  O   LIG    1        0.002  -0.004   0.002  0.00  0.00    -0.495 OA
ENDBRANCH   5  12
ENDBRANCH   3   8
ENDBRANCH   2   3
ENDBRANCH   1   2
BRANCH   1  13
ATOM     13  C   LIG    1        3.808  -5.747  -5.188  0.00  0.00    +0.275 C 
BRANCH  13  14
ATOM     14  O   LIG    1        2.771  -6.669  -4.847  0.00  0.00    -0.488 OA
BRANCH  14  15
ATOM     15  C   LIG    1        3.155  -7.920  -4.481  0.00  0.00    +0.121 A 
ATOM     16  C   LIG    1        4.501  -8.252  -4.445  0.00  0.00    +0.045 A 
ATOM     17  C   LIG    1        4.888  -9.524  -4.072  0.00  0.00    +0.004 A 
ATOM     18  C   LIG    1        3.935 -10.467  -3.735  0.00  0.00    +0.000 A 
ATOM     19  C   LIG    1        2.592 -10.140  -3.770  0.00  0.00    +0.004 A 
ATOM     20  C   LIG    1        2.200  -8.867  -4.136  0.00  0.00    +0.045 A 
ENDBRANCH  14  15
ENDBRANCH  13  14
ENDBRANCH   1  13
BRANCH   1  21
ATOM     21  C   LIG    1        2.165  -4.610  -6.689  0.00  0.00    +0.170 C 
BRANCH  21  22
ATOM     22  N   LIG    1        1.659  -3.310  -7.137  0.00  0.00    -0.335 N 
ATOM     23  C   LIG    1        0.575  -2.643  -6.633  0.00  0.00    +0.104 A 
ATOM     24  C   LIG    1        0.467  -1.495  -7.329  0.00  0.00    +0.101 A 
ATOM     25  N   LIG    1        1.457  -1.462  -8.233  0.00  0.00    -0.352 N 
ATOM     26  H   LIG    1        1.614  -0.746  -8.867  0.00  0.00    +0.166 HD
ATOM     27  C   LIG    1        2.178  -2.544  -8.120  0.00  0.00    +0.173 A 
ENDBRANCH  21  22
ENDBRANCH   1  21
TORSDOF 9
