REMARK  Name = ZINC00871076
REMARK                            x       y       z     vdW  Elec       q    Type
REMARK                         _______ _______ _______ _____ _____    ______ ____
ROOT
ATOM      1  C   LIG    1       -6.348   2.205   0.368  0.00  0.00    +0.242 C 
ATOM      2  N   LIG    1       -6.862   1.921  -0.845  0.00  0.00    -0.206 N 
ATOM      3  H   LIG    1       -6.281   1.613  -1.558  0.00  0.00    +0.177 HD
ATOM      4  O   LIG    1       -7.074   2.591   1.260  0.00  0.00    -0.273 OA
ENDROOT
BRANCH   2   5
ATOM      5  N   LIG    1       -8.236   2.072  -1.075  0.00  0.00    -0.188 NA
ATOM      6  C   LIG    1       -8.731   1.798  -2.244  0.00  0.00    +0.138 C 
BRANCH   6   7
ATOM      7  C   LIG    1      -10.177   1.956  -2.486  0.00  0.00    +0.002 A 
ATOM      8  C   LIG    1      -11.015   2.395  -1.459  0.00  0.00    +0.059 A 
ATOM      9  C   LIG    1      -12.370   2.547  -1.691  0.00  0.00    +0.166 A 
ATOM     10  C   LIG    1      -12.900   2.254  -2.944  0.00  0.00    +0.204 A 
ATOM     11  C   LIG    1      -12.068   1.812  -3.968  0.00  0.00    +0.166 A 
ATOM     12  C   LIG    1      -10.711   1.663  -3.743  0.00  0.00    +0.059 A 
BRANCH   9  13
ATOM     13  O   LIG    1      -13.187   2.979  -0.693  0.00  0.00    -0.491 OA
ATOM     14  C   LIG    1      -12.576   3.262   0.568  0.00  0.00    +0.277 C 
ENDBRANCH   9  13
BRANCH  10  15
ATOM     15  O   LIG    1      -14.234   2.399  -3.168  0.00  0.00    -0.488 OA
ATOM     16  C   LIG    1      -15.062   1.264  -2.911  0.00  0.00    +0.277 C 
ENDBRANCH  10  15
BRANCH  11  17
ATOM     17  O   LIG    1      -12.589   1.526  -5.191  0.00  0.00    -0.491 OA
ATOM     18  C   LIG    1      -11.678   1.076  -6.196  0.00  0.00    +0.277 C 
ENDBRANCH  11  17
ENDBRANCH   6   7
ENDBRANCH   2   5
BRANCH   1  19
ATOM     19  C   LIG    1       -4.870   2.044   0.617  0.00  0.00    +0.171 C 
BRANCH  19  20
ATOM     20  S   LIG    1       -4.492   2.499   2.327  0.00  0.00    -0.115 S 
BRANCH  20  24
ATOM     21  C   LIG    1       -0.013   1.086   0.008  0.00  0.00    +0.065 C 
ATOM     22  C   LIG    1       -0.718   1.572   1.248  0.00  0.00    +0.040 A 
ATOM     23  C   LIG    1       -2.089   1.784   1.204  0.00  0.00    +0.038 A 
ATOM     24  C   LIG    1       -2.752   2.225   2.340  0.00  0.00    +0.019 A 
ATOM     25  C   LIG    1       -1.984   2.454   3.508  0.00  0.00    +0.014 A 
ATOM     26  C   LIG    1       -2.578   2.906   4.694  0.00  0.00    +0.011 A 
ATOM     27  C   LIG    1       -1.806   3.116   5.797  0.00  0.00    +0.001 A 
ATOM     28  C   LIG    1       -0.433   2.886   5.760  0.00  0.00    +0.002 A 
ATOM     29  C   LIG    1        0.175   2.447   4.624  0.00  0.00    +0.028 A 
ATOM     30  C   LIG    1       -0.590   2.220   3.467  0.00  0.00    +0.072 A 
ATOM     31  N   LIG    1       -0.017   1.788   2.337  0.00  0.00    -0.252 NA
ENDBRANCH  20  24
ENDBRANCH  19  20
ENDBRANCH   1  19
TORSDOF 8
