REMARK  Name = ZINC00758204
REMARK                            x       y       z     vdW  Elec       q    Type
REMARK                         _______ _______ _______ _____ _____    ______ ____
ROOT
ATOM      1  N   LIG    1       -2.401   1.758  -2.165  0.00  0.00    -0.327 N 
ATOM      2  C   LIG    1       -2.623   0.369  -2.589  0.00  0.00    +0.124 C 
ATOM      3  C   LIG    1       -3.560  -0.322  -1.593  0.00  0.00    +0.127 C 
ATOM      4  N   LIG    1       -4.779   0.489  -1.457  0.00  0.00    -0.295 N 
ATOM      5  C   LIG    1       -5.999  -0.068  -1.594  0.00  0.00    +0.247 C 
ATOM      6  O   LIG    1       -6.102  -1.233  -1.926  0.00  0.00    -0.270 OA
ATOM      7  C   LIG    1       -4.632   1.923  -1.168  0.00  0.00    +0.127 C 
ATOM      8  C   LIG    1       -3.653   2.527  -2.181  0.00  0.00    +0.124 C 
ENDROOT
BRANCH   5   9
ATOM      9  C   LIG    1       -7.211   0.738  -1.341  0.00  0.00    +0.038 A 
ATOM     10  C   LIG    1       -7.199   1.736  -0.365  0.00  0.00    +0.014 A 
ATOM     11  C   LIG    1       -8.331   2.489  -0.136  0.00  0.00    +0.022 A 
ATOM     12  C   LIG    1       -9.484   2.250  -0.866  0.00  0.00    +0.059 A 
ATOM     13 CL   LIG    1      -10.908   3.197  -0.568  0.00  0.00    -0.082 Cl
ATOM     14  C   LIG    1       -9.505   1.257  -1.833  0.00  0.00    +0.060 A 
ATOM     15 CL   LIG    1      -10.954   0.965  -2.744  0.00  0.00    -0.082 Cl
ATOM     16  C   LIG    1       -8.376   0.501  -2.074  0.00  0.00    +0.034 A 
ENDBRANCH   5   9
BRANCH   1  19
ATOM     17  C   LIG    1        0.795   2.410  -3.858  0.00  0.00    +0.003 A 
ATOM     18  C   LIG    1       -0.166   1.803  -3.073  0.00  0.00    +0.023 A 
ATOM     19  C   LIG    1       -1.427   2.373  -2.954  0.00  0.00    +0.031 A 
ATOM     20  C   LIG    1       -1.715   3.558  -3.619  0.00  0.00    +0.043 A 
ATOM     21  C   LIG    1       -0.750   4.161  -4.403  0.00  0.00    +0.043 A 
ATOM     22 CL   LIG    1       -1.110   5.639  -5.239  0.00  0.00    -0.083 Cl
ATOM     23  C   LIG    1        0.504   3.587  -4.523  0.00  0.00    +0.020 A 
ENDBRANCH   1  19
TORSDOF 2
