REMARK  Name = ZINC00968336
REMARK                            x       y       z     vdW  Elec       q    Type
REMARK                         _______ _______ _______ _____ _____    ______ ____
ROOT
ATOM      1  C   LIG    1       -0.075  -2.955   4.587  0.00  0.00    +0.051 C 
ENDROOT
BRANCH   1   7
ATOM      2  C   LIG    1        2.441   1.023   2.890  0.00  0.00    +0.044 C 
ATOM      3  C   LIG    1        1.932  -0.382   2.689  0.00  0.00    -0.050 A 
ATOM      4  C   LIG    1        2.203  -1.052   1.510  0.00  0.00    +0.007 A 
ATOM      5  C   LIG    1        1.737  -2.339   1.324  0.00  0.00    +0.046 A 
ATOM      6  C   LIG    1        0.997  -2.959   2.321  0.00  0.00    +0.121 A 
ATOM      7  C   LIG    1        0.728  -2.284   3.502  0.00  0.00    +0.002 A 
ATOM      8  C   LIG    1        1.200  -0.999   3.686  0.00  0.00    +0.011 A 
BRANCH   6   9
ATOM      9  O   LIG    1        0.537  -4.225   2.140  0.00  0.00    -0.506 OA
ATOM     10  H   LIG    1        1.148  -4.912   2.439  0.00  0.00    +0.292 HD
ENDBRANCH   6   9
ENDBRANCH   1   7
BRANCH   1  11
ATOM     11  C   LIG    1        0.806  -3.202   5.785  0.00  0.00    -0.040 A 
ATOM     12  C   LIG    1        1.281  -2.135   6.525  0.00  0.00    +0.004 A 
ATOM     13  C   LIG    1        2.089  -2.362   7.623  0.00  0.00    +0.000 A 
ATOM     14  C   LIG    1        2.422  -3.655   7.981  0.00  0.00    +0.000 A 
ATOM     15  C   LIG    1        1.946  -4.721   7.242  0.00  0.00    +0.000 A 
ATOM     16  C   LIG    1        1.135  -4.495   6.146  0.00  0.00    +0.004 A 
ENDBRANCH   1  11
BRANCH   1  17
ATOM     17  C   LIG    1       -1.242  -2.051   4.991  0.00  0.00    -0.006 C 
BRANCH  17  18
ATOM     18  C   LIG    1       -2.128  -2.783   6.001  0.00  0.00    -0.077 C 
BRANCH  18  19
ATOM     19  N   LIG    1       -3.320  -1.972   6.285  0.00  0.00    +0.383 N 
ATOM     20  H   LIG    1       -3.773  -1.725   5.418  0.00  0.00    -0.081 HD
BRANCH  19  21
ATOM     21  C   LIG    1       -2.922  -0.749   6.995  0.00  0.00    -0.075 C 
ATOM     22  C   LIG    1       -2.651   0.365   5.981  0.00  0.00    -0.014 C 
ATOM     23  C   LIG    1       -1.653  -1.020   7.806  0.00  0.00    -0.014 C 
ENDBRANCH  19  21
BRANCH  19  24
ATOM     24  C   LIG    1       -4.249  -2.743   7.121  0.00  0.00    -0.075 C 
ATOM     25  C   LIG    1       -4.550  -4.083   6.446  0.00  0.00    -0.014 C 
ATOM     26  C   LIG    1       -5.550  -1.957   7.296  0.00  0.00    -0.014 C 
ENDBRANCH  19  24
ENDBRANCH  18  19
ENDBRANCH  17  18
ENDBRANCH   1  17
TORSDOF 8
