REMARK  Name = ZINC01092752
REMARK                            x       y       z     vdW  Elec       q    Type
REMARK                         _______ _______ _______ _____ _____    ______ ____
ROOT
ATOM      1  C   LIG    1        1.152   2.054   0.002  0.00  0.00    +0.107 A 
ATOM      2  C   LIG    1        2.334   1.401  -0.013  0.00  0.00    +0.094 A 
ATOM      3  I   LIG    1        4.137   2.469  -0.025  0.00  0.00    -0.037 I 
ATOM      4  C   LIG    1        2.338  -0.015  -0.021  0.00  0.00    +0.267 A 
ATOM      5  N   LIG    1        1.166  -0.680  -0.013  0.00  0.00    -0.274 N 
ATOM      6  C   LIG    1        0.002  -0.004   0.002  0.00  0.00    +0.327 A 
ATOM      7  O   LIG    1       -1.048  -0.618   0.009  0.00  0.00    -0.247 OA
ATOM      8  H   LIG    1        1.161  -1.680  -0.019  0.00  0.00    +0.173 HD
ATOM      9  O   LIG    1        3.392  -0.626  -0.034  0.00  0.00    -0.267 OA
ATOM     10  N   LIG    1       -0.016   1.341   0.009  0.00  0.00    -0.313 N 
ATOM     11  H   LIG    1       -0.891   1.825   0.020  0.00  0.00    +0.170 HD
ENDROOT
TORSDOF 0
