REMARK  Name = ZINC00755203
REMARK                            x       y       z     vdW  Elec       q    Type
REMARK                         _______ _______ _______ _____ _____    ______ ____
ROOT
ATOM      1  C   LIG    1        1.323  -3.313   0.675  0.00  0.00    +0.125 A 
ATOM      2  C   LIG    1        0.680  -2.114   0.343  0.00  0.00    +0.101 A 
ATOM      3  C   LIG    1       -0.564  -2.187  -0.298  0.00  0.00    +0.111 A 
ATOM      4  N   LIG    1       -1.089  -3.382  -0.570  0.00  0.00    -0.233 NA
ATOM      5  C   LIG    1       -0.447  -4.483  -0.239  0.00  0.00    +0.223 A 
ATOM      6  C   LIG    1       -0.987  -0.797  -0.512  0.00  0.00    +0.098 A 
ATOM      7  C   LIG    1        0.002  -0.004   0.002  0.00  0.00    +0.039 A 
ATOM      8  C   LIG    1       -0.018   1.506   0.010  0.00  0.00    +0.055 C 
ATOM      9  C   LIG    1        1.416   2.035  -0.001  0.00  0.00    +0.006 C 
ATOM     10  C   LIG    1        1.917   2.174   1.435  0.00  0.00    +0.002 C 
ATOM     11  C   LIG    1        1.915   0.813   2.128  0.00  0.00    +0.022 C 
ATOM     12  C   LIG    1        2.239  -0.283   1.112  0.00  0.00    +0.122 C 
ATOM     13  N   LIG    1        0.998  -0.779   0.502  0.00  0.00    -0.339 N 
ATOM     14  N   LIG    1        0.726  -4.461   0.367  0.00  0.00    -0.227 NA
ENDROOT
BRANCH   6  15
ATOM     15  C   LIG    1       -2.198  -0.357  -1.137  0.00  0.00    +0.103 C 
ATOM     16  N   LIG    1       -3.158  -0.009  -1.632  0.00  0.00    -0.191 NA
ENDBRANCH   6  15
BRANCH   1  17
ATOM     17  S   LIG    1        2.889  -3.301   1.482  0.00  0.00    -0.099 S 
BRANCH  17  18
ATOM     18  C   LIG    1        3.179  -5.081   1.633  0.00  0.00    +0.111 C 
BRANCH  18  25
ATOM     19  C   LIG    1        5.656  -5.434   1.563  0.00  0.00    +0.006 A 
ATOM     20  C   LIG    1        6.870  -5.646   2.188  0.00  0.00    +0.020 A 
ATOM     21  C   LIG    1        6.929  -5.755   3.566  0.00  0.00    +0.041 A 
ATOM     22 CL   LIG    1        8.453  -6.028   4.352  0.00  0.00    -0.084 Cl
ATOM     23  C   LIG    1        5.772  -5.645   4.318  0.00  0.00    +0.020 A 
ATOM     24  C   LIG    1        4.560  -5.427   3.692  0.00  0.00    +0.006 A 
ATOM     25  C   LIG    1        4.502  -5.319   2.315  0.00  0.00    -0.037 A 
ENDBRANCH  18  25
ENDBRANCH  17  18
ENDBRANCH   1  17
TORSDOF 4
