REMARK  Name = ZINC00899749
REMARK                            x       y       z     vdW  Elec       q    Type
REMARK                         _______ _______ _______ _____ _____    ______ ____
ROOT
ATOM      1  C   LIG    1       -2.505   0.962   0.019  0.00  0.00    +0.044 C 
ATOM      2  C   LIG    1       -1.217   1.744   0.017  0.00  0.00    -0.046 A 
ATOM      3  C   LIG    1       -1.256   3.133   0.030  0.00  0.00    +0.016 A 
ATOM      4  C   LIG    1       -0.072   3.857   0.023  0.00  0.00    +0.036 A 
ATOM      5  C   LIG    1        1.164   3.181   0.008  0.00  0.00    +0.074 A 
ATOM      6  C   LIG    1        2.410   3.970   0.001  0.00  0.00    +0.190 C 
ATOM      7  C   LIG    1        2.352   5.413   0.311  0.00  0.00    +0.055 C 
ATOM      8  C   LIG    1        1.176   6.059   0.326  0.00  0.00    +0.055 C 
ATOM      9  O   LIG    1        3.472   3.438  -0.256  0.00  0.00    -0.287 OA
ATOM     10  C   LIG    1        1.190   1.786   0.000  0.00  0.00    +0.129 A 
ATOM     11  C   LIG    1       -0.078   5.336   0.033  0.00  0.00    +0.187 C 
ATOM     12  O   LIG    1       -1.102   5.949  -0.198  0.00  0.00    -0.287 OA
ATOM     13  C   LIG    1       -0.013   1.076   0.008  0.00  0.00    +0.049 A 
ENDROOT
BRANCH  10  14
ATOM     14  O   LIG    1        2.373   1.125  -0.014  0.00  0.00    -0.506 OA
ATOM     15  H   LIG    1        2.708   0.938  -0.902  0.00  0.00    +0.292 HD
ENDBRANCH  10  14
TORSDOF 1
