REMARK  Name = ZINC00894558
REMARK                            x       y       z     vdW  Elec       q    Type
REMARK                         _______ _______ _______ _____ _____    ______ ____
ROOT
ATOM      1  N   LIG    1        0.212  -1.661  -0.972  0.00  0.00    -0.312 N 
ATOM      2  C   LIG    1        0.801  -2.277  -2.168  0.00  0.00    +0.125 C 
ATOM      3  C   LIG    1        1.377  -3.649  -1.801  0.00  0.00    +0.127 C 
ATOM      4  N   LIG    1        0.322  -4.440  -1.150  0.00  0.00    -0.295 N 
ATOM      5  C   LIG    1        0.034  -5.688  -1.570  0.00  0.00    +0.247 C 
ATOM      6  O   LIG    1       -0.912  -6.286  -1.095  0.00  0.00    -0.270 OA
ATOM      7  C   LIG    1       -0.409  -3.834  -0.027  0.00  0.00    +0.127 C 
ATOM      8  C   LIG    1       -0.915  -2.455  -0.464  0.00  0.00    +0.125 C 
ENDROOT
BRANCH   1  12
ATOM      9  C   LIG    1        1.907   1.863   1.003  0.00  0.00    -0.008 A 
ATOM     10  C   LIG    1        1.481   0.704   0.481  0.00  0.00    +0.024 A 
ATOM     11  C   LIG    1        0.438   0.722  -0.529  0.00  0.00    +0.048 A 
ATOM     12  C   LIG    1       -0.174  -0.357  -1.224  0.00  0.00    +0.133 A 
ATOM     13  N   LIG    1       -1.117  -0.099  -2.116  0.00  0.00    -0.220 NA
ATOM     14  C   LIG    1       -1.513   1.133  -2.384  0.00  0.00    +0.224 A 
ATOM     15  N   LIG    1       -0.983   2.174  -1.772  0.00  0.00    -0.228 NA
ATOM     16  C   LIG    1       -0.037   2.008  -0.869  0.00  0.00    +0.113 A 
ATOM     17  S   LIG    1        0.921   3.087   0.161  0.00  0.00    -0.074 S 
BRANCH   9  19
ATOM     18  C   LIG    1        4.328   2.252   1.374  0.00  0.00    +0.009 C 
ATOM     19  C   LIG    1        2.967   2.081   2.052  0.00  0.00    +0.039 C 
ENDBRANCH   9  19
ENDBRANCH   1  12
BRANCH   5  20
ATOM     20  C   LIG    1        0.867  -6.329  -2.609  0.00  0.00    +0.037 A 
ATOM     21  C   LIG    1        2.206  -5.962  -2.759  0.00  0.00    +0.013 A 
ATOM     22  C   LIG    1        2.980  -6.568  -3.727  0.00  0.00    +0.001 A 
ATOM     23  C   LIG    1        2.429  -7.529  -4.556  0.00  0.00    +0.000 A 
ATOM     24  C   LIG    1        1.101  -7.893  -4.417  0.00  0.00    +0.001 A 
ATOM     25  C   LIG    1        0.318  -7.299  -3.449  0.00  0.00    +0.013 A 
ENDBRANCH   5  20
TORSDOF 3
