REMARK  Name = ZINC00895081
REMARK                            x       y       z     vdW  Elec       q    Type
REMARK                         _______ _______ _______ _____ _____    ______ ____
ROOT
ATOM      1  C   LIG    1        1.417   2.032  -0.001  0.00  0.00    +0.182 C 
ENDROOT
BRANCH   1   2
ATOM      2  O   LIG    1        2.049   1.670  -1.230  0.00  0.00    -0.376 OA
ATOM      3  H   LIG    1        1.610   2.020  -2.017  0.00  0.00    +0.211 HD
ENDBRANCH   1   2
BRANCH   1   4
ATOM      4  C   LIG    1        2.181   1.435   1.153  0.00  0.00    +0.338 C 
ATOM      5  O   LIG    1        3.175   0.762   0.942  0.00  0.00    -0.248 OA
BRANCH   4   6
ATOM      6  O   LIG    1        1.806   1.626   2.297  0.00  0.00    -0.479 OA
ATOM      7  H   LIG    1        1.042   2.144   2.459  0.00  0.00    +0.295 HD
ENDBRANCH   4   6
ENDBRANCH   1   4
BRANCH   1   8
ATOM      8  C   LIG    1       -0.018   1.503   0.010  0.00  0.00    +0.167 C 
BRANCH   8   9
ATOM      9  C   LIG    1        0.002  -0.004   0.002  0.00  0.00    +0.308 C 
ATOM     10  O   LIG    1        1.056  -0.594  -0.011  0.00  0.00    -0.251 OA
BRANCH   9  11
ATOM     11  O   LIG    1       -1.151  -0.691   0.009  0.00  0.00    -0.481 OA
ATOM     12  H   LIG    1       -1.037  -1.651   0.003  0.00  0.00    +0.295 HD
ENDBRANCH   9  11
ENDBRANCH   8   9
ENDBRANCH   1   8
BRANCH   1  13
ATOM     13  C   LIG    1        1.399   3.556   0.134  0.00  0.00    +0.167 C 
BRANCH  13  14
ATOM     14  C   LIG    1        2.813   4.078   0.123  0.00  0.00    +0.308 C 
ATOM     15  O   LIG    1        3.748   3.303   0.018  0.00  0.00    -0.251 OA
BRANCH  14  16
ATOM     16  O   LIG    1        3.022   5.275   0.219  0.00  0.00    -0.481 OA
ATOM     17  H   LIG    1        2.303   5.871   0.300  0.00  0.00    +0.295 HD
ENDBRANCH  14  16
ENDBRANCH  13  14
ENDBRANCH   1  13
TORSDOF 9
