REMARK  Name = ZINC01209349
REMARK                            x       y       z     vdW  Elec       q    Type
REMARK                         _______ _______ _______ _____ _____    ______ ____
ROOT
ATOM      1  C   LIG    1        2.748   3.332  -0.028  0.00  0.00    +0.136 A 
ATOM      2  C   LIG    1        3.431   2.141   0.075  0.00  0.00    +0.050 A 
ATOM      3  C   LIG    1        2.475   1.123   0.103  0.00  0.00    +0.050 A 
ATOM      4  C   LIG    1        1.237   1.734   0.015  0.00  0.00    +0.130 A 
ATOM      5  O   LIG    1        1.429   3.067  -0.068  0.00  0.00    -0.455 OA
ENDROOT
BRANCH   4   6
ATOM      6  C   LIG    1       -0.013   1.076   0.008  0.00  0.00    +0.066 C 
ATOM      7  C   LIG    1       -1.167   1.802   0.045  0.00  0.00    +0.080 C 
ATOM      8  C   LIG    1       -1.359   3.263   0.000  0.00  0.00    +0.259 C 
ATOM      9  N   LIG    1       -2.607   3.699   0.049  0.00  0.00    -0.251 N 
ATOM     10  C   LIG    1       -3.647   2.847   0.148  0.00  0.00    +0.121 C 
ATOM     11  S   LIG    1       -5.318   3.213   0.233  0.00  0.00    -0.027 S 
ATOM     12  O   LIG    1       -0.417   4.029  -0.083  0.00  0.00    -0.269 OA
ATOM     13  S   LIG    1       -2.861   1.244   0.171  0.00  0.00    -0.061 S 
BRANCH   9  14
ATOM     14  C   LIG    1       -2.863   5.141   0.003  0.00  0.00    +0.150 C 
BRANCH  14  15
ATOM     15  C   LIG    1       -2.867   5.696   1.403  0.00  0.00    -0.030 A 
ATOM     16  C   LIG    1       -4.046   5.749   2.123  0.00  0.00    +0.005 A 
ATOM     17  C   LIG    1       -4.048   6.254   3.410  0.00  0.00    +0.000 A 
ATOM     18  C   LIG    1       -2.873   6.715   3.974  0.00  0.00    +0.000 A 
ATOM     19  C   LIG    1       -1.695   6.667   3.252  0.00  0.00    +0.000 A 
ATOM     20  C   LIG    1       -1.692   6.158   1.967  0.00  0.00    +0.005 A 
ENDBRANCH  14  15
ENDBRANCH   9  14
ENDBRANCH   4   6
BRANCH   1  26
ATOM     21  C   LIG    1        2.980   5.578  -1.103  0.00  0.00    +0.070 A 
ATOM     22  C   LIG    1        3.565   6.844  -1.145  0.00  0.00    +0.016 A 
ATOM     23  C   LIG    1        4.511   7.198  -0.206  0.00  0.00    +0.001 A 
ATOM     24  C   LIG    1        4.886   6.306   0.786  0.00  0.00    +0.001 A 
ATOM     25  C   LIG    1        4.318   5.051   0.850  0.00  0.00    +0.012 A 
ATOM     26  C   LIG    1        3.358   4.671  -0.090  0.00  0.00    +0.031 A 
BRANCH  21  27
ATOM     27  C   LIG    1        1.973   5.192  -2.107  0.00  0.00    +0.340 C 
ATOM     28  O   LIG    1        1.464   4.089  -2.064  0.00  0.00    -0.245 OA
BRANCH  27  30
ATOM     29  C   LIG    1        0.618   5.614  -4.028  0.00  0.00    +0.280 C 
ATOM     30  O   LIG    1        1.616   6.061  -3.073  0.00  0.00    -0.464 OA
ENDBRANCH  27  30
ENDBRANCH  21  27
ENDBRANCH   1  26
TORSDOF 6
