REMARK  Name = ZINC00859266
REMARK                            x       y       z     vdW  Elec       q    Type
REMARK                         _______ _______ _______ _____ _____    ______ ____
ROOT
ATOM      1  C   LIG    1       -0.051   3.845   0.022  0.00  0.00    +0.003 A 
ATOM      2  C   LIG    1        1.157   3.175   0.008  0.00  0.00    +0.024 A 
ATOM      3  C   LIG    1        1.180   1.787   0.000  0.00  0.00    +0.045 A 
ATOM      4  C   LIG    1       -0.013   1.076   0.008  0.00  0.00    +0.038 A 
ATOM      5  C   LIG    1       -1.218   1.751   0.017  0.00  0.00    +0.015 A 
ATOM      6  I   LIG    1       -3.018   0.679   0.021  0.00  0.00    -0.044 I 
ATOM      7  C   LIG    1       -1.237   3.135   0.029  0.00  0.00    +0.014 A 
ENDROOT
BRANCH   3   8
ATOM      8  N   LIG    1        2.404   1.105  -0.014  0.00  0.00    -0.203 N 
ATOM      9  C   LIG    1        2.547  -0.233  -0.016  0.00  0.00    +0.250 C 
ATOM     10  C   LIG    1        3.992  -0.549  -0.035  0.00  0.00    +0.073 C 
ATOM     11  C   LIG    1        4.646   0.625  -0.036  0.00  0.00    +0.073 C 
ATOM     12  O   LIG    1        1.643  -1.043  -0.005  0.00  0.00    -0.270 OA
ATOM     13  C   LIG    1        3.616   1.688  -0.022  0.00  0.00    +0.250 C 
ATOM     14  O   LIG    1        3.830   2.883  -0.019  0.00  0.00    -0.270 OA
ENDBRANCH   3   8
TORSDOF 1
