REMARK  Name = ZINC00848329
REMARK                            x       y       z     vdW  Elec       q    Type
REMARK                         _______ _______ _______ _____ _____    ______ ____
ROOT
ATOM      1  C   LIG    1        0.326   6.744  -3.849  0.00  0.00    +0.165 A 
ATOM      2  N   LIG    1       -0.907   6.575  -3.412  0.00  0.00    -0.233 NA
ATOM      3  C   LIG    1       -1.146   6.130  -2.194  0.00  0.00    +0.124 A 
ATOM      4  C   LIG    1       -0.091   5.857  -1.388  0.00  0.00    +0.015 A 
ATOM      5  S   LIG    1        1.270   6.260  -2.474  0.00  0.00    -0.057 S 
ENDROOT
BRANCH   1   7
ATOM      6  C   LIG    1       -0.141   7.526  -6.037  0.00  0.00    +0.243 C 
ATOM      7  N   LIG    1        0.758   7.194  -5.089  0.00  0.00    -0.261 N 
ATOM      8  H   LIG    1        1.707   7.271  -5.273  0.00  0.00    +0.157 HD
ATOM      9  O   LIG    1       -1.333   7.430  -5.805  0.00  0.00    -0.270 OA
BRANCH   6  11
ATOM     10  C   LIG    1       -0.587   8.331  -8.292  0.00  0.00    +0.013 C 
ATOM     11  C   LIG    1        0.314   8.000  -7.342  0.00  0.00    +0.068 C 
BRANCH  10  15
ATOM     12  C   LIG    1        0.734   9.706 -12.081  0.00  0.00    +0.120 A 
ATOM     13  C   LIG    1       -0.627   9.598 -11.819  0.00  0.00    +0.046 A 
ATOM     14  C   LIG    1       -1.061   9.152 -10.591  0.00  0.00    +0.011 A 
ATOM     15  C   LIG    1       -0.129   8.808  -9.605  0.00  0.00    -0.025 A 
ATOM     16  C   LIG    1        1.240   8.924  -9.871  0.00  0.00    +0.011 A 
ATOM     17  C   LIG    1        1.663   9.365 -11.105  0.00  0.00    +0.046 A 
BRANCH  12  19
ATOM     18  C   LIG    1        2.568  10.233 -13.496  0.00  0.00    +0.277 C 
ATOM     19  O   LIG    1        1.156  10.146 -13.293  0.00  0.00    -0.495 OA
ENDBRANCH  12  19
ENDBRANCH  10  15
ENDBRANCH   6  11
ENDBRANCH   1   7
BRANCH   4  20
ATOM     20  C   LIG    1       -0.070   5.347   0.030  0.00  0.00    +0.079 C 
BRANCH  20  21
ATOM     21  C   LIG    1       -0.050   3.840   0.022  0.00  0.00    -0.042 A 
ATOM     22  C   LIG    1        1.157   3.165   0.008  0.00  0.00    +0.004 A 
ATOM     23  C   LIG    1        1.175   1.783   0.000  0.00  0.00    +0.001 A 
ATOM     24  C   LIG    1       -0.013   1.076   0.008  0.00  0.00    +0.012 A 
ATOM     25  C   LIG    1       -1.219   1.750   0.017  0.00  0.00    +0.055 A 
ATOM     26  C   LIG    1       -1.238   3.133   0.030  0.00  0.00    +0.016 A 
BRANCH  25  27
ATOM     27  C   LIG    1       -2.514   0.979   0.019  0.00  0.00    +0.417 C 
ATOM     28  F   LIG    1       -3.257   1.314  -1.118  0.00  0.00    -0.166 F 
ATOM     29  F   LIG    1       -3.246   1.301   1.167  0.00  0.00    -0.166 F 
ATOM     30  F   LIG    1       -2.239  -0.392   0.010  0.00  0.00    -0.166 F 
ENDBRANCH  25  27
ENDBRANCH  20  21
ENDBRANCH   4  20
TORSDOF 7
