REMARK  Name = ZINC00898523
REMARK                            x       y       z     vdW  Elec       q    Type
REMARK                         _______ _______ _______ _____ _____    ______ ____
ROOT
ATOM      1  C   LIG    1       -0.753   1.593  -1.232  0.00  0.00    -0.025 C 
ATOM      2  C   LIG    1       -2.147   0.964  -1.286  0.00  0.00    -0.074 C 
ATOM      3  N   LIG    1       -2.847   1.462  -2.493  0.00  0.00    +0.385 N 
ATOM      4  H   LIG    1       -2.861   2.489  -2.468  0.00  0.00    -0.081 HD
ATOM      5  C   LIG    1       -2.139   1.023  -3.707  0.00  0.00    -0.037 C 
ATOM      6  C   LIG    1       -0.747   1.657  -3.728  0.00  0.00    -0.007 C 
ATOM      7  C   LIG    1       -2.908   1.437  -4.932  0.00  0.00    -0.054 A 
ATOM      8  C   LIG    1       -2.244   1.464  -6.151  0.00  0.00    +0.051 A 
ATOM      9  C   LIG    1       -2.913   1.830  -7.305  0.00  0.00    +0.162 A 
ATOM     10  C   LIG    1       -4.260   2.174  -7.242  0.00  0.00    +0.162 A 
ATOM     11  C   LIG    1       -4.917   2.148  -6.025  0.00  0.00    +0.053 A 
ATOM     12  C   LIG    1       -4.242   1.782  -4.870  0.00  0.00    -0.044 A 
ATOM     13  C   LIG    1       -5.001   1.774  -3.568  0.00  0.00    +0.017 C 
ATOM     14  C   LIG    1       -4.237   0.964  -2.520  0.00  0.00    -0.073 C 
ATOM     15  C   LIG    1        0.030   1.203  -2.488  0.00  0.00    -0.012 C 
ENDROOT
BRANCH   1  17
ATOM     16  C   LIG    1       -0.729   1.579   1.267  0.00  0.00    +0.004 C 
ATOM     17  C   LIG    1       -0.013   1.086   0.008  0.00  0.00    -0.002 C 
ENDBRANCH   1  17
BRANCH   9  18
ATOM     18  O   LIG    1       -2.256   1.855  -8.496  0.00  0.00    -0.491 OA
ATOM     19  C   LIG    1       -0.875   1.489  -8.483  0.00  0.00    +0.277 C 
ENDBRANCH   9  18
BRANCH  10  20
ATOM     20  O   LIG    1       -4.927   2.535  -8.371  0.00  0.00    -0.491 OA
ATOM     21  C   LIG    1       -6.307   2.875  -8.229  0.00  0.00    +0.277 C 
ENDBRANCH  10  20
BRANCH  15  22
ATOM     22  C   LIG    1        1.401   1.883  -2.467  0.00  0.00    -0.008 C 
BRANCH  22  23
ATOM     23  C   LIG    1        2.229   1.397  -3.658  0.00  0.00    -0.040 C 
ATOM     24  N   LIG    1        2.478  -0.044  -3.514  0.00  0.00    +0.384 N 
ATOM     25  H   LIG    1        2.882  -0.229  -2.588  0.00  0.00    -0.085 HD
ATOM     26  H   LIG    1        1.592  -0.554  -3.609  0.00  0.00    -0.085 HD
ATOM     27  C   LIG    1        3.418  -0.498  -4.556  0.00  0.00    -0.077 C 
ATOM     28  C   LIG    1        4.807   0.050  -4.230  0.00  0.00    +0.016 C 
ATOM     29  C   LIG    1        4.728   1.534  -3.973  0.00  0.00    -0.044 A 
ATOM     30  C   LIG    1        5.901   2.273  -4.010  0.00  0.00    +0.053 A 
ATOM     31  C   LIG    1        5.877   3.636  -3.775  0.00  0.00    +0.162 A 
ATOM     32  C   LIG    1        4.667   4.266  -3.500  0.00  0.00    +0.162 A 
ATOM     33  C   LIG    1        3.499   3.525  -3.466  0.00  0.00    +0.051 A 
ATOM     34  C   LIG    1        3.529   2.158  -3.704  0.00  0.00    -0.055 A 
BRANCH  31  35
ATOM     35  O   LIG    1        7.030   4.356  -3.812  0.00  0.00    -0.491 OA
ATOM     36  C   LIG    1        8.233   3.641  -4.100  0.00  0.00    +0.277 C 
ENDBRANCH  31  35
BRANCH  32  37
ATOM     37  O   LIG    1        4.632   5.606  -3.266  0.00  0.00    -0.491 OA
ATOM     38  C   LIG    1        3.354   6.183  -2.991  0.00  0.00    +0.277 C 
ENDBRANCH  32  37
ENDBRANCH  22  23
ENDBRANCH  15  22
TORSDOF 7
