REMARK  Name = ZINC01238457
REMARK                            x       y       z     vdW  Elec       q    Type
REMARK                         _______ _______ _______ _____ _____    ______ ____
ROOT
ATOM      1  C   LIG    1       -3.922   5.479  -1.021  0.00  0.00    +0.121 A 
ATOM      2  C   LIG    1       -4.924   5.431  -0.059  0.00  0.00    +0.046 A 
ATOM      3  C   LIG    1       -6.194   5.870  -0.361  0.00  0.00    +0.011 A 
ATOM      4  C   LIG    1       -6.477   6.356  -1.643  0.00  0.00    -0.024 A 
ATOM      5  C   LIG    1       -5.465   6.396  -2.611  0.00  0.00    +0.011 A 
ATOM      6  C   LIG    1       -4.198   5.960  -2.296  0.00  0.00    +0.046 A 
ENDROOT
BRANCH   4   7
ATOM      7  C   LIG    1       -7.831   6.821  -1.973  0.00  0.00    +0.028 C 
ATOM      8  C   LIG    1       -8.849   6.618  -1.099  0.00  0.00    +0.077 C 
ATOM      9  C   LIG    1      -10.232   7.136  -1.128  0.00  0.00    +0.259 C 
ATOM     10  N   LIG    1      -11.022   6.772  -0.133  0.00  0.00    -0.244 N 
ATOM     11  C   LIG    1      -10.584   5.968   0.858  0.00  0.00    +0.121 C 
ATOM     12  S   LIG    1      -11.446   5.391   2.219  0.00  0.00    -0.027 S 
ATOM     13  O   LIG    1      -10.624   7.861  -2.024  0.00  0.00    -0.269 OA
ATOM     14  S   LIG    1       -8.888   5.645   0.401  0.00  0.00    -0.061 S 
BRANCH  10  15
ATOM     15  C   LIG    1      -12.406   7.252  -0.105  0.00  0.00    +0.235 C 
BRANCH  15  16
ATOM     16  C   LIG    1      -13.291   6.277  -0.838  0.00  0.00    +0.323 C 
ATOM     17  O   LIG    1      -12.815   5.283  -1.333  0.00  0.00    -0.249 OA
BRANCH  16  18
ATOM     18  O   LIG    1      -14.609   6.513  -0.941  0.00  0.00    -0.480 OA
ATOM     19  H   LIG    1      -14.978   7.284  -0.557  0.00  0.00    +0.295 HD
ENDBRANCH  16  18
ENDBRANCH  15  16
ENDBRANCH  10  15
ENDBRANCH   4   7
BRANCH   1  20
ATOM     20  O   LIG    1       -2.671   5.050  -0.716  0.00  0.00    -0.487 OA
BRANCH  20  21
ATOM     21  C   LIG    1       -2.456   4.568   0.612  0.00  0.00    +0.264 C 
BRANCH  21  25
ATOM     22  C   LIG    1        1.616   3.350   1.042  0.00  0.00    +0.000 A 
ATOM     23  C   LIG    1        0.664   2.442   0.619  0.00  0.00    +0.000 A 
ATOM     24  C   LIG    1       -0.653   2.837   0.474  0.00  0.00    +0.007 A 
ATOM     25  C   LIG    1       -1.019   4.138   0.764  0.00  0.00    -0.010 A 
ATOM     26  C   LIG    1       -0.067   5.047   1.187  0.00  0.00    +0.007 A 
ATOM     27  C   LIG    1        1.251   4.653   1.326  0.00  0.00    +0.000 A 
ENDBRANCH  21  25
ENDBRANCH  20  21
ENDBRANCH   1  20
TORSDOF 7
