REMARK  Name = ZINC00833225
REMARK                            x       y       z     vdW  Elec       q    Type
REMARK                         _______ _______ _______ _____ _____    ______ ____
ROOT
ATOM      1  S   LIG    1        1.468   1.450  -1.478  0.00  0.00    +0.073 S 
ATOM      2  O   LIG    1        0.416   1.607  -0.535  0.00  0.00    -0.150 OA
ATOM      3  O   LIG    1        1.751   2.426  -2.471  0.00  0.00    -0.150 OA
ENDROOT
BRANCH   1   4
ATOM      4  C   LIG    1        2.949   1.233  -0.548  0.00  0.00    +0.109 A 
ATOM      5  C   LIG    1        2.888   1.106   0.827  0.00  0.00    +0.030 A 
ATOM      6  C   LIG    1        4.047   0.935   1.558  0.00  0.00    +0.025 A 
ATOM      7  C   LIG    1        5.275   0.890   0.910  0.00  0.00    +0.033 A 
ATOM      8  C   LIG    1        5.332   1.017  -0.471  0.00  0.00    +0.025 A 
ATOM      9  C   LIG    1        4.169   1.183  -1.197  0.00  0.00    +0.030 A 
BRANCH   7  10
ATOM     10  N   LIG    1        6.451   0.718   1.648  0.00  0.00    -0.285 N 
ATOM     11  H   LIG    1        7.277   1.126   1.346  0.00  0.00    +0.155 HD
ATOM     12  C   LIG    1        6.436  -0.015   2.779  0.00  0.00    +0.218 C 
ATOM     13  O   LIG    1        5.434  -0.622   3.095  0.00  0.00    -0.275 OA
BRANCH  12  14
ATOM     14  C   LIG    1        7.663  -0.080   3.652  0.00  0.00    +0.107 C 
BRANCH  14  15
ATOM     15  C   LIG    1        7.381  -0.971   4.863  0.00  0.00    +0.129 C 
BRANCH  15  16
ATOM     16  C   LIG    1        8.608  -1.036   5.735  0.00  0.00    +0.305 C 
ATOM     17  O   LIG    1        9.615  -0.425   5.418  0.00  0.00    -0.251 OA
BRANCH  16  18
ATOM     18  O   LIG    1        8.594  -1.699   6.758  0.00  0.00    -0.481 OA
ATOM     19  H   LIG    1        7.821  -2.168   7.002  0.00  0.00    +0.295 HD
ENDBRANCH  16  18
ENDBRANCH  15  16
ENDBRANCH  14  15
ENDBRANCH  12  14
ENDBRANCH   7  10
ENDBRANCH   1   4
BRANCH   1  20
ATOM     20  N   LIG    1        1.178   0.030  -2.278  0.00  0.00    -0.209 N 
ATOM     21  H   LIG    1        1.285  -0.015  -3.241  0.00  0.00    +0.174 HD
BRANCH  20  24
ATOM     22  C   LIG    1        0.717  -2.728  -3.527  0.00  0.00    +0.067 C 
ATOM     23  C   LIG    1        0.565  -2.344  -2.078  0.00  0.00    +0.061 A 
ATOM     24  C   LIG    1        0.776  -1.116  -1.559  0.00  0.00    +0.135 A 
ATOM     25  C   LIG    1        0.523  -1.178  -0.164  0.00  0.00    +0.295 A 
ATOM     26  N   LIG    1        0.164  -2.444   0.131  0.00  0.00    -0.216 N 
ATOM     27  O   LIG    1        0.614  -0.254   0.624  0.00  0.00    -0.264 OA
ATOM     28  N   LIG    1        0.181  -3.183  -1.059  0.00  0.00    -0.282 N 
ATOM     29  C   LIG    1       -0.150  -4.603  -1.194  0.00  0.00    +0.171 C 
BRANCH  26  30
ATOM     30  C   LIG    1       -0.170  -2.931   1.399  0.00  0.00    +0.067 A 
ATOM     31  C   LIG    1       -1.016  -2.201   2.224  0.00  0.00    +0.028 A 
ATOM     32  C   LIG    1       -1.344  -2.685   3.475  0.00  0.00    +0.002 A 
ATOM     33  C   LIG    1       -0.831  -3.895   3.907  0.00  0.00    +0.000 A 
ATOM     34  C   LIG    1        0.013  -4.623   3.088  0.00  0.00    +0.002 A 
ATOM     35  C   LIG    1        0.340  -4.148   1.833  0.00  0.00    +0.028 A 
ENDBRANCH  26  30
ENDBRANCH  20  24
ENDBRANCH   1  20
TORSDOF 9
