REMARK  Name = ZINC01335394
REMARK                            x       y       z     vdW  Elec       q    Type
REMARK                         _______ _______ _______ _____ _____    ______ ____
ROOT
ATOM      1  C   LIG    1        3.696  -0.685  -0.037  0.00  0.00    +0.247 C 
ATOM      2  N   LIG    1        3.714  -2.028  -0.146  0.00  0.00    -0.297 N 
ATOM      3  C   LIG    1        2.461  -2.787  -0.256  0.00  0.00    +0.109 C 
ATOM      4  C   LIG    1        2.445  -3.871   0.827  0.00  0.00    +0.030 C 
ATOM      5  C   LIG    1        3.710  -4.724   0.708  0.00  0.00    +0.063 C 
ATOM      6  C   LIG    1        4.943  -3.844   0.923  0.00  0.00    +0.030 C 
ATOM      7  C   LIG    1        4.988  -2.760  -0.165  0.00  0.00    +0.109 C 
ATOM      8  O   LIG    1        2.637  -0.099   0.084  0.00  0.00    -0.270 OA
ENDROOT
BRANCH   1  12
ATOM      9  C   LIG    1        7.336   1.502  -0.115  0.00  0.00    +0.000 A 
ATOM     10  C   LIG    1        6.341   1.853   0.780  0.00  0.00    +0.001 A 
ATOM     11  C   LIG    1        5.156   1.147   0.810  0.00  0.00    +0.013 A 
ATOM     12  C   LIG    1        4.963   0.077  -0.065  0.00  0.00    +0.037 A 
ATOM     13  C   LIG    1        5.970  -0.272  -0.965  0.00  0.00    +0.013 A 
ATOM     14  C   LIG    1        7.151   0.442  -0.985  0.00  0.00    +0.001 A 
ENDBRANCH   1  12
BRANCH   5  15
ATOM     15  C   LIG    1        3.682  -5.813   1.750  0.00  0.00    +0.166 C 
ATOM     16  O   LIG    1        3.038  -5.662   2.766  0.00  0.00    -0.292 OA
BRANCH  15  17
ATOM     17  C   LIG    1        4.434  -7.057   1.534  0.00  0.00    +0.018 A 
ATOM     18  C   LIG    1        5.183  -7.231   0.365  0.00  0.00    +0.014 A 
ATOM     19  C   LIG    1        5.886  -8.399   0.169  0.00  0.00    +0.039 A 
ATOM     20  C   LIG    1        5.853  -9.402   1.127  0.00  0.00    +0.123 A 
ATOM     21  F   LIG    1        6.544 -10.545   0.928  0.00  0.00    -0.205 F 
ATOM     22  C   LIG    1        5.113  -9.235   2.288  0.00  0.00    +0.039 A 
ATOM     23  C   LIG    1        4.410  -8.069   2.500  0.00  0.00    +0.014 A 
ENDBRANCH  15  17
ENDBRANCH   5  15
TORSDOF 3
