REMARK  Name = ZINC00967913
REMARK                            x       y       z     vdW  Elec       q    Type
REMARK                         _______ _______ _______ _____ _____    ______ ____
ROOT
ATOM      1  C   LIG    1       -1.287  -0.784   0.010  0.00  0.00    +0.005 C 
ATOM      2  C   LIG    1       -1.275  -1.846   1.137  0.00  0.00    -0.009 C 
ATOM      3  C   LIG    1       -1.404  -3.195   0.369  0.00  0.00    -0.071 C 
ATOM      4  C   LIG    1       -2.880  -3.237  -0.129  0.00  0.00    -0.017 C 
ATOM      5  C   LIG    1       -2.912  -2.175  -1.255  0.00  0.00    -0.017 C 
ATOM      6  N   LIG    1       -0.661  -2.875  -0.902  0.00  0.00    +0.383 N 
ATOM      7  H   LIG    1       -0.767  -3.607  -1.589  0.00  0.00    -0.085 HD
ATOM      8  H   LIG    1        0.312  -2.675  -0.723  0.00  0.00    -0.085 HD
ATOM      9  C   LIG    1       -1.424  -1.631  -1.291  0.00  0.00    -0.064 C 
ENDROOT
BRANCH   1  16
ATOM     10  C   LIG    1        1.217  -0.654   0.155  0.00  0.00    +0.008 A 
ATOM     11  C   LIG    1        2.378   0.103   0.142  0.00  0.00    +0.040 A 
ATOM     12  C   LIG    1        2.286   1.474  -0.024  0.00  0.00    +0.129 A 
ATOM     13 CL   LIG    1        3.732   2.435  -0.043  0.00  0.00    -0.062 Cl
ATOM     14  N   LIG    1        1.112   2.059  -0.166  0.00  0.00    -0.243 NA
ATOM     15  C   LIG    1       -0.012   1.368  -0.158  0.00  0.00    +0.116 A 
ATOM     16  C   LIG    1        0.002  -0.004   0.002  0.00  0.00    -0.028 A 
ENDBRANCH   1  16
TORSDOF 1
