REMARK  Name = ZINC00943080
REMARK                            x       y       z     vdW  Elec       q    Type
REMARK                         _______ _______ _______ _____ _____    ______ ____
ROOT
ATOM      1  N   LIG    1        5.512  -4.526  -1.257  0.00  0.00    -0.312 N 
ATOM      2  H   LIG    1        5.378  -5.198  -0.571  0.00  0.00    +0.149 HD
ATOM      3  C   LIG    1        6.431  -4.723  -2.224  0.00  0.00    +0.251 C 
ATOM      4  O   LIG    1        6.599  -3.883  -3.082  0.00  0.00    -0.272 OA
ENDROOT
BRANCH   1   5
ATOM      5  C   LIG    1        4.717  -3.295  -1.243  0.00  0.00    +0.112 C 
BRANCH   5   6
ATOM      6  C   LIG    1        3.757  -3.322  -0.052  0.00  0.00    +0.093 C 
BRANCH   6  13
ATOM      7  C   LIG    1       -0.017   1.374   0.010  0.00  0.00    +0.002 A 
ATOM      8  C   LIG    1        1.170   2.094   0.002  0.00  0.00    +0.002 A 
ATOM      9  C   LIG    1        2.375   1.450  -0.013  0.00  0.00    +0.030 A 
ATOM     10  C   LIG    1        2.418   0.054  -0.021  0.00  0.00    +0.089 A 
ATOM     11  C   LIG    1        1.217  -0.675  -0.013  0.00  0.00    +0.066 A 
ATOM     12  N   LIG    1        1.580  -2.007  -0.024  0.00  0.00    -0.342 N 
ATOM     13  C   LIG    1        2.939  -2.056  -0.038  0.00  0.00    +0.110 A 
ATOM     14  H   LIG    1        0.977  -2.767  -0.022  0.00  0.00    +0.167 HD
ATOM     15  N   LIG    1        3.430  -0.852  -0.036  0.00  0.00    -0.232 NA
ATOM     16  C   LIG    1        0.002  -0.004   0.002  0.00  0.00    +0.028 A 
ENDBRANCH   6  13
ENDBRANCH   5   6
ENDBRANCH   1   5
BRANCH   3  17
ATOM     17  C   LIG    1        7.249  -5.989  -2.238  0.00  0.00    +0.324 C 
BRANCH  17  18
ATOM     18  O   LIG    1        8.146  -5.964  -3.351  0.00  0.00    -0.482 OA
BRANCH  18  19
ATOM     19  C   LIG    1        8.961  -7.039  -3.510  0.00  0.00    +0.135 A 
ATOM     20  C   LIG    1        8.896  -8.099  -2.618  0.00  0.00    +0.047 A 
ATOM     21  C   LIG    1        9.726  -9.191  -2.782  0.00  0.00    +0.004 A 
ATOM     22  C   LIG    1       10.622  -9.229  -3.834  0.00  0.00    +0.001 A 
ATOM     23  C   LIG    1       10.689  -8.174  -4.726  0.00  0.00    +0.019 A 
ATOM     24  C   LIG    1        9.857  -7.081  -4.569  0.00  0.00    +0.059 A 
ATOM     25 BR   LIG    1        9.944  -5.643  -5.793  0.00  0.00    -0.047 Br
ENDBRANCH  18  19
ENDBRANCH  17  18
ENDBRANCH   3  17
TORSDOF 6
