REMARK  Name = ZINC01406365
REMARK                            x       y       z     vdW  Elec       q    Type
REMARK                         _______ _______ _______ _____ _____    ______ ____
ROOT
ATOM      1  C   LIG    1        2.442   4.311   0.113  0.00  0.00    +0.040 A 
ATOM      2  C   LIG    1        2.585   5.712   0.226  0.00  0.00    +0.044 A 
ATOM      3  C   LIG    1        3.921   5.972   0.297  0.00  0.00    +0.102 A 
ATOM      4  N   LIG    1        4.600   4.775   0.223  0.00  0.00    -0.356 N 
ATOM      5  H   LIG    1        5.565   4.674   0.247  0.00  0.00    +0.165 HD
ATOM      6  C   LIG    1        3.716   3.772   0.111  0.00  0.00    +0.095 A 
ENDROOT
BRANCH   3   7
ATOM      7  C   LIG    1        4.533   7.301   0.426  0.00  0.00    +0.261 C 
ATOM      8  N   LIG    1        5.874   7.423   0.482  0.00  0.00    -0.306 N 
ATOM      9  H   LIG    1        6.435   6.633   0.436  0.00  0.00    +0.149 HD
ATOM     10  O   LIG    1        3.829   8.292   0.483  0.00  0.00    -0.269 OA
BRANCH   8  11
ATOM     11  C   LIG    1        6.484   8.749   0.610  0.00  0.00    +0.147 C 
BRANCH  11  12
ATOM     12  C   LIG    1        7.984   8.610   0.650  0.00  0.00    +0.007 A 
ATOM     13  C   LIG    1        8.869   8.611  -0.377  0.00  0.00    +0.013 A 
ATOM     14  C   LIG    1       10.216   8.471  -0.102  0.00  0.00    +0.008 A 
ATOM     15  C   LIG    1       10.612   8.326   1.187  0.00  0.00    +0.045 A 
ATOM     16  S   LIG    1        9.056   8.393   2.061  0.00  0.00    -0.100 S 
ENDBRANCH  11  12
ENDBRANCH   8  11
ENDBRANCH   3   7
BRANCH   1  17
ATOM     17  C   LIG    1        1.176   3.565   0.009  0.00  0.00    +0.197 C 
ATOM     18  O   LIG    1        0.122   4.166  -0.078  0.00  0.00    -0.287 OA
BRANCH  17  23
ATOM     19  C   LIG    1        1.206  -0.683   0.019  0.00  0.00    +0.003 A 
ATOM     20  C   LIG    1        1.217   0.002  -1.183  0.00  0.00    +0.021 A 
ATOM     21  C   LIG    1        1.208   1.383  -1.194  0.00  0.00    +0.053 A 
ATOM     22 CL   LIG    1        1.229   2.241  -2.703  0.00  0.00    -0.083 Cl
ATOM     23  C   LIG    1        1.186   2.088   0.013  0.00  0.00    +0.059 A 
ATOM     24  C   LIG    1        1.174   1.388   1.223  0.00  0.00    +0.053 A 
ATOM     25 CL   LIG    1        1.146   2.252   2.728  0.00  0.00    -0.083 Cl
ATOM     26  C   LIG    1        1.184   0.007   1.218  0.00  0.00    +0.021 A 
ENDBRANCH  17  23
ENDBRANCH   1  17
TORSDOF 5
