REMARK  Name = ZINC00899093
REMARK                            x       y       z     vdW  Elec       q    Type
REMARK                         _______ _______ _______ _____ _____    ______ ____
ROOT
ATOM      1  C   LIG    1       -0.055   4.146   0.025  0.00  0.00    +0.205 A 
ATOM      2  C   LIG    1        1.150   3.456   0.010  0.00  0.00    +0.166 A 
ATOM      3  C   LIG    1        1.169   2.066   0.002  0.00  0.00    +0.095 A 
ATOM      4  C   LIG    1       -0.016   1.354   0.009  0.00  0.00    +0.135 A 
ATOM      5  C   LIG    1       -1.236   2.042   0.019  0.00  0.00    +0.109 A 
ATOM      6  C   LIG    1       -2.520   1.321   0.021  0.00  0.00    +0.197 A 
ATOM      7  O   LIG    1       -2.563   0.102   0.014  0.00  0.00    -0.287 OA
ATOM      8  C   LIG    1       -3.703   2.100   0.030  0.00  0.00    +0.098 A 
ATOM      9  C   LIG    1       -3.614   3.456   0.037  0.00  0.00    +0.139 A 
ATOM     10  O   LIG    1       -2.437   4.101   0.047  0.00  0.00    -0.451 OA
ATOM     11  C   LIG    1       -1.255   3.447   0.033  0.00  0.00    +0.188 A 
ENDROOT
BRANCH   9  12
ATOM     12  C   LIG    1       -4.859   4.250   0.047  0.00  0.00    +0.017 A 
ATOM     13  C   LIG    1       -6.100   3.608   0.044  0.00  0.00    +0.011 A 
ATOM     14  C   LIG    1       -7.259   4.356   0.060  0.00  0.00    +0.001 A 
ATOM     15  C   LIG    1       -7.194   5.738   0.067  0.00  0.00    +0.000 A 
ATOM     16  C   LIG    1       -5.969   6.380   0.064  0.00  0.00    +0.001 A 
ATOM     17  C   LIG    1       -4.801   5.645   0.055  0.00  0.00    +0.011 A 
ENDBRANCH   9  12
BRANCH   1  19
ATOM     18  C   LIG    1       -0.074   6.164  -1.237  0.00  0.00    +0.277 C 
ATOM     19  O   LIG    1       -0.060   5.508   0.033  0.00  0.00    -0.488 OA
ENDBRANCH   1  19
BRANCH   2  20
ATOM     20  O   LIG    1        2.321   4.145   0.003  0.00  0.00    -0.503 OA
ATOM     21  H   LIG    1        2.652   4.349  -0.883  0.00  0.00    +0.292 HD
ENDBRANCH   2  20
BRANCH   4  22
ATOM     22  O   LIG    1        0.002  -0.004   0.002  0.00  0.00    -0.506 OA
ATOM     23  H   LIG    1        0.016  -0.402   0.883  0.00  0.00    +0.292 HD
ENDBRANCH   4  22
TORSDOF 4
