REMARK  Name = ZINC01047806
REMARK                            x       y       z     vdW  Elec       q    Type
REMARK                         _______ _______ _______ _____ _____    ______ ____
ROOT
ATOM      1  C   LIG    1       -0.017   1.394   0.031  0.00  0.00    +0.094 A 
ATOM      2  C   LIG    1        0.003  -0.005   0.033  0.00  0.00    +0.050 A 
ATOM      3  C   LIG    1        1.227  -0.647   0.018  0.00  0.00    +0.116 A 
ATOM      4  N   LIG    1        2.337   0.075   0.002  0.00  0.00    -0.230 NA
ATOM      5  C   LIG    1        2.290   1.400   0.001  0.00  0.00    +0.189 A 
ATOM      6  N   LIG    1        1.139   2.055   0.015  0.00  0.00    -0.220 NA
ENDROOT
BRANCH   1   9
ATOM      7  C   LIG    1       -3.607   2.105   0.061  0.00  0.00    +0.109 A 
ATOM      8  N   LIG    1       -2.447   1.469   0.052  0.00  0.00    -0.238 NA
ATOM      9  C   LIG    1       -1.303   2.128   0.041  0.00  0.00    +0.097 A 
ATOM     10  C   LIG    1       -1.317   3.501   0.045  0.00  0.00    +0.077 A 
ATOM     11  S   LIG    1       -3.078   3.812   0.054  0.00  0.00    -0.075 S 
BRANCH   7  15
ATOM     12  C   LIG    1       -7.544   0.511   0.095  0.00  0.00    +0.000 A 
ATOM     13  C   LIG    1       -7.356   1.882   0.092  0.00  0.00    +0.001 A 
ATOM     14  C   LIG    1       -6.080   2.406   0.082  0.00  0.00    +0.010 A 
ATOM     15  C   LIG    1       -4.978   1.550   0.073  0.00  0.00    +0.007 A 
ATOM     16  C   LIG    1       -5.174   0.169   0.070  0.00  0.00    +0.010 A 
ATOM     17  C   LIG    1       -6.456  -0.343   0.086  0.00  0.00    +0.001 A 
ENDBRANCH   7  15
ENDBRANCH   1   9
BRANCH   5  18
ATOM     18  S   LIG    1        3.797   2.312  -0.021  0.00  0.00    -0.077 S 
BRANCH  18  19
ATOM     19  C   LIG    1        4.989   0.950  -0.035  0.00  0.00    +0.173 C 
BRANCH  19  20
ATOM     20  C   LIG    1        6.389   1.507  -0.054  0.00  0.00    +0.227 C 
ATOM     21  N   LIG    1        7.447   0.672  -0.067  0.00  0.00    -0.285 N 
ATOM     22  H   LIG    1        7.310  -0.286   0.003  0.00  0.00    +0.155 HD
ATOM     23  O   LIG    1        6.564   2.707  -0.058  0.00  0.00    -0.275 OA
BRANCH  21  24
ATOM     24  C   LIG    1        8.743   1.186  -0.183  0.00  0.00    +0.036 A 
ATOM     25  C   LIG    1        9.710   0.482  -0.888  0.00  0.00    +0.043 A 
ATOM     26  C   LIG    1       10.989   0.995  -1.005  0.00  0.00    +0.044 A 
ATOM     27 CL   LIG    1       12.197   0.119  -1.892  0.00  0.00    -0.083 Cl
ATOM     28  C   LIG    1       11.307   2.204  -0.412  0.00  0.00    +0.040 A 
ATOM     29  C   LIG    1       10.347   2.905   0.296  0.00  0.00    +0.044 A 
ATOM     30 CL   LIG    1       10.751   4.421   1.039  0.00  0.00    -0.083 Cl
ATOM     31  C   LIG    1        9.066   2.399   0.411  0.00  0.00    +0.043 A 
ENDBRANCH  21  24
ENDBRANCH  19  20
ENDBRANCH  18  19
ENDBRANCH   5  18
TORSDOF 6
