REMARK  Name = ZINC00806083
REMARK                            x       y       z     vdW  Elec       q    Type
REMARK                         _______ _______ _______ _____ _____    ______ ____
ROOT
ATOM      1  C   LIG    1       -0.017   1.380   0.010  0.00  0.00    +0.030 A 
ATOM      2  C   LIG    1        1.168   2.094   0.002  0.00  0.00    +0.022 A 
ATOM      3  C   LIG    1        2.378   1.429  -0.013  0.00  0.00    +0.053 A 
ATOM      4 CL   LIG    1        3.864   2.327  -0.024  0.00  0.00    -0.083 Cl
ATOM      5  C   LIG    1        2.404   0.032  -0.021  0.00  0.00    +0.057 A 
ATOM      6  C   LIG    1        1.204  -0.681  -0.013  0.00  0.00    +0.043 A 
ATOM      7  C   LIG    1        0.002  -0.004   0.002  0.00  0.00    +0.106 A 
ENDROOT
BRANCH   5   8
ATOM      8  C   LIG    1        3.694  -0.686  -0.038  0.00  0.00    +0.250 C 
ATOM      9  N   LIG    1        3.715  -2.034  -0.046  0.00  0.00    -0.275 N 
ATOM     10  H   LIG    1        2.883  -2.532  -0.040  0.00  0.00    +0.156 HD
ATOM     11  O   LIG    1        4.737  -0.062  -0.046  0.00  0.00    -0.270 OA
BRANCH   9  12
ATOM     12  C   LIG    1        4.927  -2.709  -0.062  0.00  0.00    +0.090 A 
ATOM     13  C   LIG    1        5.139  -4.074  -0.077  0.00  0.00    +0.084 A 
ATOM     14  C   LIG    1        6.525  -4.537  -0.092  0.00  0.00    -0.018 A 
ATOM     15  C   LIG    1        7.434  -3.545  -0.088  0.00  0.00    -0.004 A 
ATOM     16  C   LIG    1        8.842  -4.076  -0.100  0.00  0.00    +0.043 C 
ATOM     17  C   LIG    1        8.705  -5.556   0.320  0.00  0.00    +0.010 C 
ATOM     18  C   LIG    1        7.261  -5.875  -0.115  0.00  0.00    +0.037 C 
ATOM     19  S   LIG    1        6.471  -2.055  -0.075  0.00  0.00    -0.077 S 
BRANCH  13  20
ATOM     20  C   LIG    1        4.045  -4.998  -0.077  0.00  0.00    +0.102 C 
ATOM     21  N   LIG    1        3.177  -5.731  -0.077  0.00  0.00    -0.191 NA
ENDBRANCH  13  20
ENDBRANCH   9  12
ENDBRANCH   5   8
BRANCH   7  22
ATOM     22  S   LIG    1       -1.513  -0.903   0.012  0.00  0.00    +0.061 S 
ATOM     23  O   LIG    1       -2.493  -0.043   0.577  0.00  0.00    -0.153 OA
ATOM     24  O   LIG    1       -1.222  -2.184   0.553  0.00  0.00    -0.153 OA
BRANCH  22  25
ATOM     25  N   LIG    1       -1.949  -1.145  -1.567  0.00  0.00    -0.177 NA
ATOM     26  C   LIG    1       -2.787  -0.164  -2.271  0.00  0.00    +0.109 C 
ATOM     27  C   LIG    1       -2.082   0.246  -3.568  0.00  0.00    +0.017 C 
ATOM     28  C   LIG    1       -1.759  -1.007  -4.386  0.00  0.00    +0.003 C 
ATOM     29  C   LIG    1       -0.816  -1.910  -3.588  0.00  0.00    +0.017 C 
ATOM     30  C   LIG    1       -1.501  -2.341  -2.293  0.00  0.00    +0.109 C 
ENDBRANCH  22  25
ENDBRANCH   7  22
TORSDOF 5
