REMARK  Name = ZINC00854690
REMARK                            x       y       z     vdW  Elec       q    Type
REMARK                         _______ _______ _______ _____ _____    ______ ____
ROOT
ATOM      1  N   LIG    1        3.605   1.995  -0.022  0.00  0.00    -0.280 N 
ATOM      2  H   LIG    1        3.642   2.962  -0.095  0.00  0.00    +0.155 HD
ATOM      3  C   LIG    1        4.745   1.282   0.065  0.00  0.00    +0.248 C 
ATOM      4  O   LIG    1        4.704   0.067   0.059  0.00  0.00    -0.270 OA
ENDROOT
BRANCH   3   5
ATOM      5  C   LIG    1        6.045   1.977   0.167  0.00  0.00    +0.037 A 
ATOM      6  C   LIG    1        6.094   3.373   0.179  0.00  0.00    +0.016 A 
ATOM      7  C   LIG    1        7.309   4.016   0.275  0.00  0.00    +0.039 A 
ATOM      8  C   LIG    1        8.482   3.280   0.358  0.00  0.00    +0.123 A 
ATOM      9  F   LIG    1        9.670   3.916   0.451  0.00  0.00    -0.205 F 
ATOM     10  C   LIG    1        8.438   1.894   0.346  0.00  0.00    +0.039 A 
ATOM     11  C   LIG    1        7.228   1.241   0.257  0.00  0.00    +0.016 A 
ENDBRANCH   3   5
BRANCH   1  14
ATOM     12  C   LIG    1        0.953  -0.440   0.711  0.00  0.00    +0.021 A 
ATOM     13  C   LIG    1        2.197   0.171   0.727  0.00  0.00    +0.026 A 
ATOM     14  C   LIG    1        2.368   1.341  -0.007  0.00  0.00    +0.052 A 
ATOM     15  C   LIG    1        1.294   1.850  -0.725  0.00  0.00    +0.134 A 
ATOM     16  N   LIG    1        0.127   1.238  -0.713  0.00  0.00    -0.261 NA
ATOM     17  C   LIG    1       -0.068   0.128  -0.028  0.00  0.00    +0.111 A 
ENDBRANCH   1  14
TORSDOF 2
