REMARK  Name = ZINC00895030
REMARK                            x       y       z     vdW  Elec       q    Type
REMARK                         _______ _______ _______ _____ _____    ______ ____
ROOT
ATOM      1  C   LIG    1       -0.019   1.526   0.010  0.00  0.00    +0.131 C 
ENDROOT
BRANCH   1   2
ATOM      2  C   LIG    1        1.395   2.047  -0.000  0.00  0.00    +0.305 C 
ATOM      3  O   LIG    1        2.333   1.268  -0.013  0.00  0.00    -0.251 OA
BRANCH   2   4
ATOM      4  O   LIG    1        1.602   3.249   0.004  0.00  0.00    -0.481 OA
ATOM      5  H   LIG    1        0.881   3.848   0.014  0.00  0.00    +0.295 HD
ENDBRANCH   2   4
ENDBRANCH   1   2
BRANCH   1   6
ATOM      6  C   LIG    1        0.002  -0.004   0.002  0.00  0.00    +0.131 C 
BRANCH   6   7
ATOM      7  C   LIG    1       -1.412  -0.526   0.013  0.00  0.00    +0.305 C 
ATOM      8  O   LIG    1       -2.349   0.254   0.026  0.00  0.00    -0.251 OA
BRANCH   7   9
ATOM      9  O   LIG    1       -1.618  -1.727   0.008  0.00  0.00    -0.481 OA
ATOM     10  H   LIG    1       -0.898  -2.326  -0.002  0.00  0.00    +0.295 HD
ENDBRANCH   7   9
ENDBRANCH   6   7
ENDBRANCH   1   6
TORSDOF 5
