REMARK  Name = ZINC00825994
REMARK                            x       y       z     vdW  Elec       q    Type
REMARK                         _______ _______ _______ _____ _____    ______ ____
ROOT
ATOM      1  C   LIG    1        0.111   0.780  -0.715  0.00  0.00    +0.028 C 
ATOM      2  C   LIG    1       -0.611  -0.255   0.150  0.00  0.00    +0.081 C 
ATOM      3  C   LIG    1       -0.678  -1.596  -0.593  0.00  0.00    +0.050 C 
ATOM      4  C   LIG    1       -1.463  -2.593   0.259  0.00  0.00    +0.115 C 
ATOM      5  C   LIG    1       -0.911  -2.639   1.660  0.00  0.00    -0.005 A 
ATOM      6  C   LIG    1       -1.173  -3.748   2.448  0.00  0.00    +0.007 A 
ATOM      7  C   LIG    1       -0.684  -3.817   3.737  0.00  0.00    +0.000 A 
ATOM      8  C   LIG    1        0.071  -2.779   4.251  0.00  0.00    +0.002 A 
ATOM      9  C   LIG    1        0.338  -1.671   3.473  0.00  0.00    +0.024 A 
ATOM     10  C   LIG    1       -0.152  -1.599   2.173  0.00  0.00    +0.042 A 
ATOM     11  N   LIG    1        0.136  -0.469   1.397  0.00  0.00    -0.264 N 
ATOM     12  C   LIG    1        1.083   0.407   1.787  0.00  0.00    +0.251 C 
ATOM     13  O   LIG    1        1.154   1.500   1.260  0.00  0.00    -0.270 OA
ENDROOT
BRANCH  12  14
ATOM     14  C   LIG    1        2.035   0.040   2.857  0.00  0.00    +0.037 A 
ATOM     15  C   LIG    1        2.527  -1.264   2.938  0.00  0.00    +0.013 A 
ATOM     16  C   LIG    1        3.416  -1.600   3.939  0.00  0.00    +0.001 A 
ATOM     17  C   LIG    1        3.819  -0.649   4.859  0.00  0.00    +0.000 A 
ATOM     18  C   LIG    1        3.334   0.644   4.784  0.00  0.00    +0.001 A 
ATOM     19  C   LIG    1        2.449   0.996   3.785  0.00  0.00    +0.013 A 
ENDBRANCH  12  14
BRANCH   4  20
ATOM     20  N   LIG    1       -1.365  -3.926  -0.342  0.00  0.00    -0.264 N 
ATOM     21  C   LIG    1       -2.480  -4.570  -0.740  0.00  0.00    +0.217 C 
ATOM     22  C   LIG    1       -3.813  -3.870  -0.686  0.00  0.00    +0.109 C 
ATOM     23  O   LIG    1       -2.410  -5.712  -1.141  0.00  0.00    -0.276 OA
BRANCH  20  24
ATOM     24  C   LIG    1       -0.113  -4.530  -0.503  0.00  0.00    +0.037 A 
ATOM     25  C   LIG    1        1.020  -3.939   0.041  0.00  0.00    +0.023 A 
ATOM     26  C   LIG    1        2.254  -4.538  -0.119  0.00  0.00    +0.002 A 
ATOM     27  C   LIG    1        2.363  -5.725  -0.821  0.00  0.00    +0.000 A 
ATOM     28  C   LIG    1        1.236  -6.316  -1.364  0.00  0.00    +0.002 A 
ATOM     29  C   LIG    1       -0.001  -5.724  -1.202  0.00  0.00    +0.023 A 
ENDBRANCH  20  24
ENDBRANCH   4  20
TORSDOF 3
