REMARK  Name = ZINC00900630
REMARK                            x       y       z     vdW  Elec       q    Type
REMARK                         _______ _______ _______ _____ _____    ______ ____
ROOT
ATOM      1  C   LIG    1       -0.017   1.378   0.010  0.00  0.00    +0.004 A 
ATOM      2  C   LIG    1        1.170   2.088   0.002  0.00  0.00    +0.004 A 
ATOM      3  C   LIG    1        2.378   1.418  -0.014  0.00  0.00    +0.049 A 
ATOM      4  C   LIG    1        2.404   0.031  -0.023  0.00  0.00    +0.163 A 
ATOM      5  C   LIG    1        1.212  -0.683  -0.013  0.00  0.00    +0.162 A 
ATOM      6  O   LIG    1        1.214  -2.044  -0.013  0.00  0.00    -0.484 OA
ATOM      7  C   LIG    1        2.434  -2.685  -0.404  0.00  0.00    +0.286 C 
ATOM      8  C   LIG    1        3.594  -1.997   0.328  0.00  0.00    +0.320 C 
ATOM      9  O   LIG    1        3.602  -0.615  -0.043  0.00  0.00    -0.470 OA
ATOM     10  C   LIG    1        0.002  -0.004   0.002  0.00  0.00    +0.049 A 
ENDROOT
BRANCH   8  11
ATOM     11  C   LIG    1        4.898  -2.639  -0.071  0.00  0.00    +0.283 C 
ATOM     12  N   LIG    1        5.278  -2.743  -1.323  0.00  0.00    -0.272 N 
ATOM     13  H   LIG    1        4.775  -2.428  -2.090  0.00  0.00    +0.304 HD
ATOM     14  C   LIG    1        6.588  -3.412  -1.379  0.00  0.00    +0.276 C 
ATOM     15  C   LIG    1        6.907  -3.686   0.105  0.00  0.00    +0.268 C 
ATOM     16  N   LIG    1        5.739  -3.131   0.808  0.00  0.00    -0.234 N 
ATOM     17  H   LIG    1        5.611  -3.130   1.770  0.00  0.00    +0.291 HD
ENDBRANCH   8  11
TORSDOF 1
