REMARK  Name = ZINC01047455
REMARK                            x       y       z     vdW  Elec       q    Type
REMARK                         _______ _______ _______ _____ _____    ______ ____
ROOT
ATOM      1  C   LIG    1        5.370  -0.033   3.017  0.00  0.00    +0.085 A 
ATOM      2  N   LIG    1        5.123  -1.062   3.789  0.00  0.00    -0.229 NA
ATOM      3  C   LIG    1        4.387  -2.075   3.369  0.00  0.00    +0.134 A 
ATOM      4  C   LIG    1        3.901  -1.994   2.098  0.00  0.00    +0.090 A 
ATOM      5  S   LIG    1        4.557  -0.412   1.593  0.00  0.00    -0.078 S 
ENDROOT
BRANCH   3   6
ATOM      6  N   LIG    1        4.118  -3.182   4.191  0.00  0.00    -0.253 N 
ATOM      7  H   LIG    1        3.516  -3.878   3.886  0.00  0.00    +0.158 HD
ATOM      8  C   LIG    1        4.697  -3.276   5.405  0.00  0.00    +0.319 C 
ATOM      9  N   LIG    1        4.521  -4.384   6.151  0.00  0.00    -0.232 N 
ATOM     10  H   LIG    1        4.938  -4.452   7.024  0.00  0.00    +0.171 HD
ATOM     11  O   LIG    1        5.379  -2.361   5.826  0.00  0.00    -0.251 OA
BRANCH   9  12
ATOM     12  N   LIG    1        3.756  -5.412   5.678  0.00  0.00    -0.221 NA
ATOM     13  C   LIG    1        2.570  -5.617   6.522  0.00  0.00    +0.133 C 
ATOM     14  C   LIG    1        1.712  -6.735   5.924  0.00  0.00    +0.177 C 
ATOM     15  O   LIG    1        2.501  -7.921   5.802  0.00  0.00    -0.377 OA
ATOM     16  C   LIG    1        3.664  -7.758   4.986  0.00  0.00    +0.177 C 
ATOM     17  C   LIG    1        4.542  -6.650   5.574  0.00  0.00    +0.133 C 
ENDBRANCH   9  12
ENDBRANCH   3   6
BRANCH   1  18
ATOM     18  C   LIG    1        6.183   1.197   3.330  0.00  0.00    +0.101 C 
BRANCH  18  23
ATOM     19  C   LIG    1       10.257   0.536   2.225  0.00  0.00    +0.003 A 
ATOM     20  C   LIG    1        9.371   1.071   1.309  0.00  0.00    +0.020 A 
ATOM     21  C   LIG    1        8.052   1.285   1.666  0.00  0.00    +0.046 A 
ATOM     22 CL   LIG    1        6.939   1.958   0.516  0.00  0.00    -0.083 Cl
ATOM     23  C   LIG    1        7.619   0.964   2.940  0.00  0.00    -0.004 A 
ATOM     24  C   LIG    1        8.507   0.427   3.856  0.00  0.00    +0.046 A 
ATOM     25 CL   LIG    1        7.965   0.024   5.456  0.00  0.00    -0.083 Cl
ATOM     26  C   LIG    1        9.826   0.214   3.498  0.00  0.00    +0.020 A 
ENDBRANCH  18  23
ENDBRANCH   1  18
TORSDOF 4
