REMARK  Name = ZINC00820816
REMARK                            x       y       z     vdW  Elec       q    Type
REMARK                         _______ _______ _______ _____ _____    ______ ____
ROOT
ATOM      1  C   LIG    1       -0.018   1.503   0.010  0.00  0.00    +0.104 A 
ATOM      2  N   LIG    1        0.980   2.364   0.005  0.00  0.00    -0.145 NA
ATOM      3  N   LIG    1        0.792   3.611   0.014  0.00  0.00    -0.126 NA
ATOM      4  C   LIG    1       -0.427   4.134   0.028  0.00  0.00    +0.188 A 
ATOM      5  S   LIG    1       -1.406   2.635   0.022  0.00  0.00    -0.035 S 
ENDROOT
BRANCH   4   6
ATOM      6  N   LIG    1       -0.828   5.464   0.039  0.00  0.00    -0.259 N 
ATOM      7  H   LIG    1       -1.773   5.686   0.049  0.00  0.00    +0.157 HD
ATOM      8  C   LIG    1        0.094   6.447   0.035  0.00  0.00    +0.251 C 
ATOM      9  O   LIG    1        1.278   6.169   0.023  0.00  0.00    -0.270 OA
BRANCH   8  10
ATOM     10  C   LIG    1       -0.333   7.861   0.047  0.00  0.00    +0.050 A 
ATOM     11  C   LIG    1       -1.692   8.184   0.055  0.00  0.00    +0.014 A 
ATOM     12  C   LIG    1       -2.083   9.506   0.071  0.00  0.00    +0.001 A 
ATOM     13  C   LIG    1       -1.134  10.513   0.068  0.00  0.00    +0.001 A 
ATOM     14  C   LIG    1        0.214  10.201   0.054  0.00  0.00    +0.015 A 
ATOM     15  C   LIG    1        0.620   8.882   0.043  0.00  0.00    +0.025 A 
ATOM     16  I   LIG    1        2.662   8.412   0.021  0.00  0.00    -0.043 I 
ENDBRANCH   8  10
ENDBRANCH   4   6
BRANCH   1  17
ATOM     17  C   LIG    1        0.002  -0.004   0.002  0.00  0.00    +0.069 C 
BRANCH  17  18
ATOM     18  C   LIG    1        0.022  -0.522   1.442  0.00  0.00    +0.042 C 
BRANCH  18  22
ATOM     19  C   LIG    1        0.080  -4.793   1.419  0.00  0.00    +0.000 A 
ATOM     20  C   LIG    1        1.268  -4.086   1.411  0.00  0.00    +0.000 A 
ATOM     21  C   LIG    1        1.249  -2.703   1.419  0.00  0.00    +0.003 A 
ATOM     22  C   LIG    1        0.043  -2.029   1.433  0.00  0.00    -0.047 A 
ATOM     23  C   LIG    1       -1.145  -2.736   1.446  0.00  0.00    +0.003 A 
ATOM     24  C   LIG    1       -1.126  -4.118   1.433  0.00  0.00    +0.000 A 
ENDBRANCH  18  22
ENDBRANCH  17  18
ENDBRANCH   1  17
TORSDOF 5
