REMARK  Name = ZINC01199660
REMARK                            x       y       z     vdW  Elec       q    Type
REMARK                         _______ _______ _______ _____ _____    ______ ____
ROOT
ATOM      1  N   LIG    1        5.094  -4.045  -0.064  0.00  0.00    -0.285 N 
ATOM      2  H   LIG    1        4.343  -4.659  -0.060  0.00  0.00    +0.152 HD
ENDROOT
BRANCH   1   3
ATOM      3  C   LIG    1        6.464  -4.563  -0.079  0.00  0.00    +0.298 C 
ATOM      4  C   LIG    1        6.556  -5.757  -0.996  0.00  0.00    +0.029 A 
ATOM      5  C   LIG    1        6.331  -5.934  -2.339  0.00  0.00    +0.013 A 
ATOM      6  C   LIG    1        6.503  -7.182  -2.916  0.00  0.00    +0.050 A 
ATOM      7  C   LIG    1        6.903  -8.259  -2.143  0.00  0.00    +0.162 A 
ATOM      8  C   LIG    1        7.134  -8.094  -0.781  0.00  0.00    +0.176 A 
ATOM      9  C   LIG    1        6.961  -6.833  -0.197  0.00  0.00    +0.112 A 
ATOM     10  C   LIG    1        7.121  -6.344   1.181  0.00  0.00    +0.345 C 
ATOM     11  O   LIG    1        7.465  -7.028   2.125  0.00  0.00    -0.245 OA
ATOM     12  O   LIG    1        6.834  -5.033   1.246  0.00  0.00    -0.435 OA
BRANCH   7  13
ATOM     13  O   LIG    1        7.069  -9.482  -2.716  0.00  0.00    -0.491 OA
ATOM     14  C   LIG    1        6.814  -9.580  -4.119  0.00  0.00    +0.277 C 
ENDBRANCH   7  13
BRANCH   8  15
ATOM     15  O   LIG    1        7.526  -9.150  -0.022  0.00  0.00    -0.491 OA
ATOM     16  C   LIG    1        6.494  -9.933   0.581  0.00  0.00    +0.277 C 
ENDBRANCH   8  15
ENDBRANCH   1   3
BRANCH   1  20
ATOM     17  C   LIG    1        3.698  -0.688  -0.036  0.00  0.00    +0.080 A 
ATOM     18  C   LIG    1        4.875   0.005  -0.044  0.00  0.00    +0.076 A 
ATOM     19  S   LIG    1        6.054  -1.339  -0.061  0.00  0.00    -0.060 S 
ATOM     20  C   LIG    1        4.870  -2.678  -0.056  0.00  0.00    +0.162 A 
ATOM     21  N   LIG    1        3.726  -2.019  -0.038  0.00  0.00    -0.225 NA
BRANCH  17  25
ATOM     22  C   LIG    1       -0.017   1.384   0.010  0.00  0.00    +0.120 A 
ATOM     23  C   LIG    1        1.174   2.097   0.002  0.00  0.00    +0.046 A 
ATOM     24  C   LIG    1        2.380   1.428  -0.013  0.00  0.00    +0.013 A 
ATOM     25  C   LIG    1        2.402   0.035  -0.021  0.00  0.00    +0.001 A 
ATOM     26  C   LIG    1        1.205  -0.679  -0.013  0.00  0.00    +0.013 A 
ATOM     27  C   LIG    1        0.002  -0.004   0.002  0.00  0.00    +0.046 A 
BRANCH  22  29
ATOM     28  C   LIG    1       -1.150   3.474   0.026  0.00  0.00    +0.277 C 
ATOM     29  O   LIG    1       -1.204   2.046   0.019  0.00  0.00    -0.495 OA
ENDBRANCH  22  29
ENDBRANCH  17  25
ENDBRANCH   1  20
TORSDOF 6
