REMARK  Name = ZINC01233137
REMARK                            x       y       z     vdW  Elec       q    Type
REMARK                         _______ _______ _______ _____ _____    ______ ____
ROOT
ATOM      1  N   LIG    1        7.255   4.630   2.629  0.00  0.00    -0.251 N 
ATOM      2  C   LIG    1        6.926   4.397   1.369  0.00  0.00    +0.259 C 
ATOM      3  C   LIG    1        5.656   3.681   1.139  0.00  0.00    +0.077 C 
ATOM      4  S   LIG    1        5.095   3.444   2.820  0.00  0.00    -0.061 S 
ATOM      5  C   LIG    1        5.071   3.309  -0.029  0.00  0.00    +0.028 C 
ATOM      6  O   LIG    1        7.635   4.755   0.447  0.00  0.00    -0.269 OA
ATOM      7  C   LIG    1        6.466   4.233   3.648  0.00  0.00    +0.121 C 
ATOM      8  S   LIG    1        6.716   4.440   5.329  0.00  0.00    -0.027 S 
ENDROOT
BRANCH   5   9
ATOM      9  C   LIG    1        3.892   2.435  -0.014  0.00  0.00    -0.024 A 
ATOM     10  C   LIG    1        3.178   2.197  -1.195  0.00  0.00    +0.011 A 
ATOM     11  C   LIG    1        2.073   1.376  -1.175  0.00  0.00    +0.046 A 
ATOM     12  C   LIG    1        1.666   0.783   0.015  0.00  0.00    +0.117 A 
ATOM     13  C   LIG    1        2.367   1.020   1.191  0.00  0.00    +0.046 A 
ATOM     14  C   LIG    1        3.477   1.835   1.182  0.00  0.00    +0.011 A 
BRANCH  12  15
ATOM     15  O   LIG    1        0.575  -0.025   0.028  0.00  0.00    -0.507 OA
ATOM     16  H   LIG    1        0.774  -0.957  -0.139  0.00  0.00    +0.292 HD
ENDBRANCH  12  15
ENDBRANCH   5   9
BRANCH   1  17
ATOM     17  C   LIG    1        8.504   5.337   2.924  0.00  0.00    +0.150 C 
BRANCH  17  21
ATOM     18  C   LIG    1        7.762   9.541   3.069  0.00  0.00    +0.000 A 
ATOM     19  C   LIG    1        7.651   8.780   4.217  0.00  0.00    +0.000 A 
ATOM     20  C   LIG    1        7.891   7.419   4.170  0.00  0.00    +0.005 A 
ATOM     21  C   LIG    1        8.242   6.820   2.975  0.00  0.00    -0.030 A 
ATOM     22  C   LIG    1        8.358   7.583   1.828  0.00  0.00    +0.005 A 
ATOM     23  C   LIG    1        8.114   8.942   1.874  0.00  0.00    +0.000 A 
ENDBRANCH  17  21
ENDBRANCH   1  17
TORSDOF 4
