REMARK  Name = ZINC00754199
REMARK                            x       y       z     vdW  Elec       q    Type
REMARK                         _______ _______ _______ _____ _____    ______ ____
ROOT
ATOM      1  C   LIG    1        7.463   3.748   0.390  0.00  0.00    +0.091 A 
ATOM      2  C   LIG    1        8.599   2.841   0.381  0.00  0.00    -0.021 A 
ATOM      3  C   LIG    1        8.292   1.536   0.212  0.00  0.00    -0.004 A 
ATOM      4  C   LIG    1        9.246   0.384   0.155  0.00  0.00    +0.043 C 
ATOM      5  C   LIG    1       10.662   0.939  -0.059  0.00  0.00    +0.005 C 
ATOM      6  C   LIG    1       10.898   2.084   0.931  0.00  0.00    +0.005 C 
ATOM      7  S   LIG    1        6.527   1.500   0.076  0.00  0.00    -0.077 S 
ATOM      8  C   LIG    1       10.045   3.292   0.540  0.00  0.00    +0.037 C 
ATOM      9  C   LIG    1        6.198   3.193   0.240  0.00  0.00    +0.087 A 
ENDROOT
BRANCH   9  10
ATOM     10  N   LIG    1        4.973   3.838   0.219  0.00  0.00    -0.274 N 
ATOM     11  H   LIG    1        4.931   4.801   0.323  0.00  0.00    +0.156 HD
ATOM     12  C   LIG    1        3.840   3.127   0.056  0.00  0.00    +0.269 C 
ATOM     13  O   LIG    1        3.894   1.920  -0.074  0.00  0.00    -0.268 OA
BRANCH  12  14
ATOM     14  C   LIG    1        2.529   3.817   0.034  0.00  0.00    +0.158 A 
ATOM     15  CA  LIG    1        1.687   3.767   1.157  0.00  0.00    +0.178 A 
ATOM     16  N   LIG    1        0.515   4.394   1.129  0.00  0.00    -0.245 NA
ATOM     17  C   LIG    1        0.146   5.054   0.050  0.00  0.00    +0.131 A 
ATOM     18  C   LIG    1        0.977   5.099  -1.064  0.00  0.00    +0.131 A 
ATOM     19  N   LIG    1        2.142   4.481  -1.050  0.00  0.00    -0.246 NA
BRANCH  15  20
ATOM     20  C   LIG    1        2.106   3.025   2.369  0.00  0.00    +0.358 C 
ATOM     21  O   LIG    1        3.135   2.381   2.361  0.00  0.00    -0.243 OA
BRANCH  20  22
ATOM     22  OXT LIG    1        1.345   3.064   3.479  0.00  0.00    -0.476 OA
ATOM     23  HXT LIG    1        0.551   3.561   3.485  0.00  0.00    +0.295 HD
ENDBRANCH  20  22
ENDBRANCH  15  20
ENDBRANCH  12  14
ENDBRANCH   9  10
BRANCH   1  24
ATOM     24  C   LIG    1        7.645   5.191   0.556  0.00  0.00    +0.342 C 
ATOM     25  O   LIG    1        7.646   5.680   1.670  0.00  0.00    -0.245 OA
BRANCH  24  26
ATOM     26  O   LIG    1        7.813   5.979  -0.526  0.00  0.00    -0.461 OA
BRANCH  26  28
ATOM     27  C   LIG    1        8.161   8.125  -1.623  0.00  0.00    +0.048 C 
ATOM     28  C   LIG    1        7.987   7.400  -0.287  0.00  0.00    +0.229 C 
ENDBRANCH  26  28
ENDBRANCH  24  26
ENDBRANCH   1  24
TORSDOF 7
