REMARK  Name = ZINC01104834
REMARK                            x       y       z     vdW  Elec       q    Type
REMARK                         _______ _______ _______ _____ _____    ______ ____
ROOT
ATOM      1  C   LIG    1        2.334   5.271  -0.096  0.00  0.00    +0.163 A 
ATOM      2  N   LIG    1        3.343   6.116  -0.203  0.00  0.00    -0.225 NA
ATOM      3  C   LIG    1        3.139   7.423  -0.291  0.00  0.00    +0.080 A 
ATOM      4  C   LIG    1        1.861   7.906  -0.258  0.00  0.00    +0.076 A 
ATOM      5  S   LIG    1        0.935   6.384  -0.102  0.00  0.00    -0.060 S 
ENDROOT
BRANCH   3   6
ATOM      6  C   LIG    1        4.288   8.353  -0.417  0.00  0.00    +0.001 A 
ATOM      7  C   LIG    1        4.068   9.726  -0.509  0.00  0.00    +0.013 A 
ATOM      8  C   LIG    1        5.140  10.588  -0.621  0.00  0.00    +0.039 A 
ATOM      9  C   LIG    1        6.432  10.089  -0.654  0.00  0.00    +0.123 A 
ATOM     10  F   LIG    1        7.478  10.936  -0.770  0.00  0.00    -0.205 F 
ATOM     11  C   LIG    1        6.655   8.724  -0.567  0.00  0.00    +0.039 A 
ATOM     12  C   LIG    1        5.589   7.856  -0.450  0.00  0.00    +0.013 A 
ENDBRANCH   3   6
BRANCH   1  13
ATOM     13  N   LIG    1        2.354   3.888   0.001  0.00  0.00    -0.294 N 
ATOM     14  H   LIG    1        3.199   3.420   0.084  0.00  0.00    +0.154 HD
BRANCH  13  18
ATOM     15  C   LIG    1       -1.218   1.747  -0.058  0.00  0.00    +0.000 A 
ATOM     16  C   LIG    1       -1.099   2.911  -0.795  0.00  0.00    +0.002 A 
ATOM     17  C   LIG    1        0.083   3.625  -0.776  0.00  0.00    +0.023 A 
ATOM     18  C   LIG    1        1.156   3.169  -0.020  0.00  0.00    +0.033 A 
ATOM     19  C   LIG    1        1.035   1.996   0.714  0.00  0.00    +0.023 A 
ATOM     20  C   LIG    1       -0.150   1.287   0.691  0.00  0.00    +0.002 A 
ENDBRANCH  13  18
ENDBRANCH   1  13
TORSDOF 3
