REMARK  Name = ZINC01127081
REMARK                            x       y       z     vdW  Elec       q    Type
REMARK                         _______ _______ _______ _____ _____    ______ ____
ROOT
ATOM      1  N   LIG    1       -1.768   9.713  -1.008  0.00  0.00    -0.297 N 
ATOM      2  C   LIG    1       -2.911   8.793  -0.966  0.00  0.00    +0.127 C 
ATOM      3  C   LIG    1       -2.721   7.800   0.186  0.00  0.00    +0.126 C 
ATOM      4  N   LIG    1       -1.409   7.155   0.036  0.00  0.00    -0.309 N 
ATOM      5  C   LIG    1       -0.228   8.013  -0.144  0.00  0.00    +0.126 C 
ATOM      6  C   LIG    1       -0.516   8.997  -1.289  0.00  0.00    +0.127 C 
ENDROOT
BRANCH   1  14
ATOM      7  N   LIG    1       -0.243  13.586  -3.149  0.00  0.00    -0.331 N 
ATOM      8  C   LIG    1       -0.382  14.593  -4.025  0.00  0.00    +0.106 A 
ATOM      9  C   LIG    1       -1.506  14.737  -4.810  0.00  0.00    +0.122 A 
ATOM     10  C   LIG    1       -2.594  13.751  -4.684  0.00  0.00    +0.206 A 
ATOM     11  C   LIG    1       -2.400  12.665  -3.712  0.00  0.00    +0.083 A 
ATOM     12  C   LIG    1       -3.362  11.675  -3.507  0.00  0.00    +0.129 A 
ATOM     13  N   LIG    1       -3.112  10.729  -2.619  0.00  0.00    -0.222 NA
ATOM     14  C   LIG    1       -1.977  10.721  -1.927  0.00  0.00    +0.220 A 
ATOM     15  N   LIG    1       -1.038  11.640  -2.090  0.00  0.00    -0.196 NA
ATOM     16  O   LIG    1       -3.608  13.832  -5.354  0.00  0.00    -0.286 OA
ATOM     17  C   LIG    1       -1.204  12.625  -2.966  0.00  0.00    +0.149 A 
BRANCH   7  19
ATOM     18  C   LIG    1        1.981  12.574  -3.042  0.00  0.00    +0.027 C 
ATOM     19  C   LIG    1        0.985  13.510  -2.354  0.00  0.00    +0.120 C 
ENDBRANCH   7  19
BRANCH   9  20
ATOM     20  C   LIG    1       -1.617  15.856  -5.758  0.00  0.00    +0.342 C 
ATOM     21  O   LIG    1       -2.613  15.973  -6.445  0.00  0.00    -0.245 OA
BRANCH  20  22
ATOM     22  O   LIG    1       -0.615  16.751  -5.864  0.00  0.00    -0.477 OA
ATOM     23  H   LIG    1        0.153  16.660  -5.335  0.00  0.00    +0.295 HD
ENDBRANCH  20  22
ENDBRANCH   9  20
ENDBRANCH   1  14
BRANCH   4  24
ATOM     24  C   LIG    1       -1.290   5.812   0.067  0.00  0.00    +0.137 C 
ATOM     25  S   LIG    1       -2.690   4.831   0.152  0.00  0.00    -0.018 S 
BRANCH  24  26
ATOM     26  N   LIG    1       -0.069   5.243   0.030  0.00  0.00    -0.297 N 
ATOM     27  H   LIG    1        0.269   4.873  -0.801  0.00  0.00    +0.154 HD
BRANCH  26  28
ATOM     28  C   LIG    1        0.711   5.184   1.190  0.00  0.00    +0.035 A 
ATOM     29  C   LIG    1        1.923   4.508   1.180  0.00  0.00    +0.043 A 
ATOM     30  C   LIG    1        2.691   4.451   2.328  0.00  0.00    +0.044 A 
ATOM     31 CL   LIG    1        4.207   3.605   2.316  0.00  0.00    -0.083 Cl
ATOM     32  C   LIG    1        2.253   5.068   3.486  0.00  0.00    +0.040 A 
ATOM     33  C   LIG    1        1.042   5.738   3.501  0.00  0.00    +0.044 A 
ATOM     34 CL   LIG    1        0.492   6.504   4.958  0.00  0.00    -0.083 Cl
ATOM     35  C   LIG    1        0.273   5.803   2.354  0.00  0.00    +0.043 A 
ENDBRANCH  26  28
ENDBRANCH  24  26
ENDBRANCH   4  24
TORSDOF 7
