REMARK  Name = ZINC01028145
REMARK                            x       y       z     vdW  Elec       q    Type
REMARK                         _______ _______ _______ _____ _____    ______ ____
ROOT
ATOM      1  N   LIG    1        5.775  -3.814   0.262  0.00  0.00    -0.305 N 
ATOM      2  C   LIG    1        4.917  -4.835   0.879  0.00  0.00    +0.126 C 
ATOM      3  C   LIG    1        4.626  -5.924  -0.162  0.00  0.00    +0.128 C 
ATOM      4  N   LIG    1        5.896  -6.341  -0.773  0.00  0.00    -0.282 N 
ATOM      5  C   LIG    1        6.267  -7.636  -0.768  0.00  0.00    +0.307 C 
ATOM      6  N   LIG    1        7.379  -8.021  -1.425  0.00  0.00    -0.269 N 
ATOM      7  H   LIG    1        7.967  -7.356  -1.815  0.00  0.00    +0.156 HD
ATOM      8  O   LIG    1        5.599  -8.458  -0.170  0.00  0.00    -0.252 OA
ATOM      9  C   LIG    1        6.754  -5.319  -1.389  0.00  0.00    +0.128 C 
ATOM     10  C   LIG    1        7.042  -4.231  -0.354  0.00  0.00    +0.126 C 
ENDROOT
BRANCH   6  11
ATOM     11  C   LIG    1        7.685  -9.382  -1.546  0.00  0.00    +0.035 A 
ATOM     12  C   LIG    1        6.665 -10.317  -1.661  0.00  0.00    +0.023 A 
ATOM     13  C   LIG    1        6.970 -11.659  -1.780  0.00  0.00    +0.002 A 
ATOM     14  C   LIG    1        8.290 -12.071  -1.784  0.00  0.00    +0.000 A 
ATOM     15  C   LIG    1        9.308 -11.142  -1.669  0.00  0.00    +0.002 A 
ATOM     16  C   LIG    1        9.009  -9.799  -1.555  0.00  0.00    +0.023 A 
ENDBRANCH   6  11
BRANCH   1  19
ATOM     17  C   LIG    1        4.156  -0.629   0.631  0.00  0.00    +0.170 A 
ATOM     18  N   LIG    1        4.301  -1.937   0.759  0.00  0.00    -0.204 NA
ATOM     19  C   LIG    1        5.394  -2.485   0.257  0.00  0.00    +0.181 A 
ATOM     20  S   LIG    1        6.206  -1.163  -0.388  0.00  0.00    +0.049 S 
ATOM     21  N   LIG    1        5.106   0.038   0.008  0.00  0.00    -0.187 NA
BRANCH  17  25
ATOM     22  C   LIG    1        0.723   1.357   2.163  0.00  0.00    +0.000 A 
ATOM     23  C   LIG    1        1.706   2.082   1.515  0.00  0.00    +0.001 A 
ATOM     24  C   LIG    1        2.823   1.442   1.015  0.00  0.00    +0.011 A 
ATOM     25  C   LIG    1        2.958   0.064   1.166  0.00  0.00    +0.020 A 
ATOM     26  C   LIG    1        1.965  -0.662   1.821  0.00  0.00    +0.011 A 
ATOM     27  C   LIG    1        0.852  -0.012   2.316  0.00  0.00    +0.001 A 
ENDBRANCH  17  25
ENDBRANCH   1  19
TORSDOF 3
