REMARK  Name = ZINC00873967
REMARK                            x       y       z     vdW  Elec       q    Type
REMARK                         _______ _______ _______ _____ _____    ______ ____
ROOT
ATOM      1  N   LIG    1        3.627   1.839  -0.022  0.00  0.00    -0.280 N 
ATOM      2  H   LIG    1        3.591   2.806  -0.086  0.00  0.00    +0.155 HD
ATOM      3  C   LIG    1        2.487   1.121  -0.021  0.00  0.00    +0.250 C 
ATOM      4  O   LIG    1        2.534  -0.094  -0.024  0.00  0.00    -0.270 OA
ENDROOT
BRANCH   1   8
ATOM      5  C   LIG    1        7.313  -0.098   0.251  0.00  0.00    +0.002 A 
ATOM      6  C   LIG    1        6.269  -0.687  -0.440  0.00  0.00    +0.002 A 
ATOM      7  C   LIG    1        5.046  -0.049  -0.528  0.00  0.00    +0.025 A 
ATOM      8  C   LIG    1        4.865   1.189   0.070  0.00  0.00    +0.055 A 
ATOM      9  C   LIG    1        5.917   1.783   0.767  0.00  0.00    +0.046 A 
ATOM     10  C   LIG    1        7.140   1.133   0.854  0.00  0.00    +0.024 A 
BRANCH   9  11
ATOM     11  N   LIG    1        5.740   3.029   1.377  0.00  0.00    -0.357 N 
ATOM     12  H   LIG    1        6.472   3.440   1.862  0.00  0.00    +0.142 HD
ATOM     13  H   LIG    1        4.884   3.482   1.316  0.00  0.00    +0.142 HD
ENDBRANCH   9  11
ENDBRANCH   1   8
BRANCH   3  14
ATOM     14  C   LIG    1        1.180   1.809  -0.017  0.00  0.00    +0.055 A 
ATOM     15  C   LIG    1       -0.012   1.075  -0.016  0.00  0.00    +0.016 A 
ATOM     16  C   LIG    1       -1.210   1.767  -0.017  0.00  0.00    +0.020 A 
ATOM     17  C   LIG    1       -1.192   3.151  -0.008  0.00  0.00    +0.111 A 
ATOM     18  N   LIG    1       -0.053   3.817  -0.009  0.00  0.00    -0.263 NA
ATOM     19  C   LIG    1        1.112   3.203  -0.013  0.00  0.00    +0.123 A 
ENDBRANCH   3  14
TORSDOF 3
