REMARK  Name = ZINC00896543
REMARK                            x       y       z     vdW  Elec       q    Type
REMARK                         _______ _______ _______ _____ _____    ______ ____
ROOT
ATOM      1  C   LIG    1       -0.017   1.385   0.010  0.00  0.00    +0.049 A 
ATOM      2  C   LIG    1        1.165   2.099   0.002  0.00  0.00    +0.050 A 
ATOM      3  C   LIG    1        2.381   1.432  -0.013  0.00  0.00    +0.133 A 
ATOM      4  C   LIG    1        2.407   0.031  -0.021  0.00  0.00    +0.082 A 
ATOM      5  C   LIG    1        1.207  -0.683  -0.013  0.00  0.00    +0.062 A 
ATOM      6  C   LIG    1        0.002  -0.004   0.002  0.00  0.00    +0.122 A 
ENDROOT
BRANCH   4   7
ATOM      7  C   LIG    1        3.696  -0.686  -0.037  0.00  0.00    +0.248 C 
ATOM      8  N   LIG    1        3.718  -2.034  -0.045  0.00  0.00    -0.313 N 
ATOM      9  H   LIG    1        2.885  -2.532  -0.039  0.00  0.00    +0.149 HD
ATOM     10  O   LIG    1        4.739  -0.062  -0.044  0.00  0.00    -0.270 OA
BRANCH   8  11
ATOM     11  C   LIG    1        4.998  -2.746  -0.061  0.00  0.00    +0.089 C 
BRANCH  11  12
ATOM     12  C   LIG    1        4.742  -4.255  -0.067  0.00  0.00    -0.054 C 
ATOM     13  C   LIG    1        6.075  -4.998   0.040  0.00  0.00    -0.014 C 
ATOM     14  C   LIG    1        5.814  -6.507   0.034  0.00  0.00    -0.003 C 
ATOM     15  C   LIG    1        4.862  -6.855   1.181  0.00  0.00    -0.019 C 
ATOM     16  C   LIG    1        3.574  -6.043   1.032  0.00  0.00    -0.082 C 
ATOM     17  N   LIG    1        3.888  -4.610   1.073  0.00  0.00    +0.382 N 
ATOM     18  H   LIG    1        3.031  -4.078   1.028  0.00  0.00    -0.085 HD
ATOM     19  H   LIG    1        4.370  -4.396   1.933  0.00  0.00    -0.085 HD
ENDBRANCH  11  12
ENDBRANCH   8  11
ENDBRANCH   4   7
BRANCH   3  20
ATOM     20  O   LIG    1        3.542   2.135  -0.021  0.00  0.00    -0.482 OA
BRANCH  20  21
ATOM     21  C   LIG    1        3.438   3.560  -0.013  0.00  0.00    +0.342 C 
BRANCH  21  22
ATOM     22  C   LIG    1        4.840   4.173  -0.023  0.00  0.00    +0.424 C 
ATOM     23  F   LIG    1        5.543   3.750   1.110  0.00  0.00    -0.167 F 
ATOM     24  F   LIG    1        4.738   5.569  -0.015  0.00  0.00    -0.167 F 
ATOM     25  F   LIG    1        5.520   3.762  -1.174  0.00  0.00    -0.167 F 
ENDBRANCH  21  22
ENDBRANCH  20  21
ENDBRANCH   3  20
BRANCH   6  26
ATOM     26  O   LIG    1       -1.167  -0.698   0.010  0.00  0.00    -0.483 OA
BRANCH  26  27
ATOM     27  C   LIG    1       -2.375   0.066   0.026  0.00  0.00    +0.342 C 
BRANCH  27  28
ATOM     28  C   LIG    1       -3.577  -0.881   0.033  0.00  0.00    +0.424 C 
ATOM     29  F   LIG    1       -3.547  -1.681  -1.114  0.00  0.00    -0.167 F 
ATOM     30  F   LIG    1       -4.759  -0.133   0.049  0.00  0.00    -0.167 F 
ATOM     31  F   LIG    1       -3.524  -1.694   1.170  0.00  0.00    -0.167 F 
ENDBRANCH  27  28
ENDBRANCH  26  27
ENDBRANCH   6  26
TORSDOF 9
