REMARK  Name = ZINC01081288
REMARK                            x       y       z     vdW  Elec       q    Type
REMARK                         _______ _______ _______ _____ _____    ______ ____
ROOT
ATOM      1  C   LIG    1        3.655   2.159  -0.022  0.00  0.00    +0.072 A 
ATOM      2  C   LIG    1        3.963   3.260  -0.803  0.00  0.00    +0.072 A 
ATOM      3  N   LIG    1        5.216   3.638  -0.503  0.00  0.00    -0.339 N 
ATOM      4  H   LIG    1        5.713   4.430  -0.928  0.00  0.00    +0.167 HD
ATOM      5  C   LIG    1        5.707   2.840   0.417  0.00  0.00    +0.117 A 
ATOM      6  N   LIG    1        4.766   1.908   0.750  0.00  0.00    -0.339 N 
ATOM      7  H   LIG    1        4.867   1.179   1.427  0.00  0.00    +0.167 HD
ENDROOT
BRANCH   1  11
ATOM      8  C   LIG    1        0.002  -0.004   0.002  0.00  0.00    +0.000 A 
ATOM      9  C   LIG    1       -0.017   1.380   0.010  0.00  0.00    +0.001 A 
ATOM     10  C   LIG    1        1.166   2.089   0.002  0.00  0.00    +0.010 A 
ATOM     11  C   LIG    1        2.385   1.407  -0.014  0.00  0.00    +0.000 A 
ATOM     12  C   LIG    1        2.397   0.010  -0.021  0.00  0.00    +0.010 A 
ATOM     13  C   LIG    1        1.206  -0.686  -0.013  0.00  0.00    +0.001 A 
ENDBRANCH   1  11
BRANCH   5  14
ATOM     14  C   LIG    1        7.060   2.939   1.003  0.00  0.00    +0.015 A 
ATOM     15  C   LIG    1        7.468   2.032   1.983  0.00  0.00    +0.011 A 
ATOM     16  C   LIG    1        8.734   2.127   2.522  0.00  0.00    +0.001 A 
ATOM     17  C   LIG    1        9.595   3.124   2.102  0.00  0.00    +0.000 A 
ATOM     18  C   LIG    1        9.196   4.030   1.135  0.00  0.00    +0.001 A 
ATOM     19  C   LIG    1        7.934   3.943   0.584  0.00  0.00    +0.011 A 
ENDBRANCH   5  14
BRANCH   2  20
ATOM     20  C   LIG    1        3.069   3.905  -1.793  0.00  0.00    +0.000 A 
ATOM     21  C   LIG    1        2.189   3.132  -2.550  0.00  0.00    +0.010 A 
ATOM     22  C   LIG    1        1.356   3.740  -3.467  0.00  0.00    +0.001 A 
ATOM     23  C   LIG    1        1.400   5.111  -3.644  0.00  0.00    +0.000 A 
ATOM     24  C   LIG    1        2.274   5.882  -2.900  0.00  0.00    +0.001 A 
ATOM     25  C   LIG    1        3.108   5.287  -1.976  0.00  0.00    +0.010 A 
ENDBRANCH   2  20
TORSDOF 3
