REMARK  Name = ZINC01141333
REMARK                            x       y       z     vdW  Elec       q    Type
REMARK                         _______ _______ _______ _____ _____    ______ ____
ROOT
ATOM      1  C   LIG    1        0.758  -0.643  -1.066  0.00  0.00    +0.143 A 
ATOM      2  C   LIG    1        1.288   0.269  -1.963  0.00  0.00    +0.070 A 
ATOM      3  C   LIG    1        2.011  -0.178  -3.060  0.00  0.00    +0.037 A 
ATOM      4  C   LIG    1        2.203  -1.539  -3.259  0.00  0.00    +0.025 A 
ATOM      5  C   LIG    1        1.675  -2.450  -2.365  0.00  0.00    +0.029 A 
ATOM      6  C   LIG    1        0.957  -2.008  -1.264  0.00  0.00    +0.076 A 
ENDROOT
BRANCH   3   7
ATOM      7  N   LIG    1        2.547   0.744  -3.967  0.00  0.00    -0.279 N 
ATOM      8  H   LIG    1        2.067   1.563  -4.167  0.00  0.00    +0.155 HD
ATOM      9  C   LIG    1        3.730   0.494  -4.562  0.00  0.00    +0.284 C 
ATOM     10  O   LIG    1        4.380  -0.484  -4.239  0.00  0.00    -0.266 OA
BRANCH   9  11
ATOM     11  C   LIG    1        4.235   1.399  -5.598  0.00  0.00    +0.191 A 
ATOM     12  C   LIG    1        5.410   1.260  -6.282  0.00  0.00    +0.056 A 
ATOM     13  C   LIG    1        5.490   2.343  -7.170  0.00  0.00    +0.058 A 
ATOM     14  C   LIG    1        4.374   3.087  -6.993  0.00  0.00    +0.171 A 
ATOM     15 BR   LIG    1        3.948   4.675  -7.928  0.00  0.00    -0.008 Br
ATOM     16  O   LIG    1        3.618   2.511  -6.049  0.00  0.00    -0.444 OA
ENDBRANCH   9  11
ENDBRANCH   3   7
BRANCH   6  17
ATOM     17  N   LIG    1        0.426  -2.933  -0.355  0.00  0.00    -0.279 N 
ATOM     18  H   LIG    1        0.260  -2.670   0.564  0.00  0.00    +0.155 HD
ATOM     19  C   LIG    1        0.147  -4.189  -0.756  0.00  0.00    +0.250 C 
ATOM     20  O   LIG    1        0.425  -4.542  -1.887  0.00  0.00    -0.270 OA
BRANCH  19  21
ATOM     21  C   LIG    1       -0.495  -5.138   0.176  0.00  0.00    +0.055 A 
ATOM     22  C   LIG    1       -0.821  -4.735   1.473  0.00  0.00    +0.014 A 
ATOM     23  C   LIG    1       -1.420  -5.625   2.339  0.00  0.00    +0.001 A 
ATOM     24  C   LIG    1       -1.700  -6.916   1.926  0.00  0.00    +0.001 A 
ATOM     25  C   LIG    1       -1.381  -7.323   0.643  0.00  0.00    +0.021 A 
ATOM     26  C   LIG    1       -0.785  -6.440  -0.237  0.00  0.00    +0.053 A 
ATOM     27 CL   LIG    1       -0.392  -6.950  -1.849  0.00  0.00    -0.083 Cl
ENDBRANCH  19  21
ENDBRANCH   6  17
BRANCH   1  29
ATOM     28  C   LIG    1       -0.115   1.205   0.150  0.00  0.00    +0.277 C 
ATOM     29  O   LIG    1        0.049  -0.207   0.010  0.00  0.00    -0.493 OA
ENDBRANCH   1  29
TORSDOF 5
