REMARK  Name = ZINC00979201
REMARK                            x       y       z     vdW  Elec       q    Type
REMARK                         _______ _______ _______ _____ _____    ______ ____
ROOT
ATOM      1  N   LIG    1        1.252  -4.841  -0.412  0.00  0.00    -0.194 N 
ENDROOT
BRANCH   1   2
ATOM      2  C   LIG    1        2.034  -5.011  -1.557  0.00  0.00    +0.056 A 
ATOM      3  C   LIG    1        1.979  -6.205  -2.265  0.00  0.00    +0.045 A 
ATOM      4  C   LIG    1        2.754  -6.370  -3.398  0.00  0.00    +0.043 A 
ATOM      5 CL   LIG    1        2.687  -7.861  -4.284  0.00  0.00    -0.083 Cl
ATOM      6  C   LIG    1        3.583  -5.348  -3.825  0.00  0.00    +0.020 A 
ATOM      7  C   LIG    1        3.639  -4.159  -3.121  0.00  0.00    +0.006 A 
ATOM      8  C   LIG    1        2.863  -3.986  -1.992  0.00  0.00    -0.028 A 
ATOM      9  C   LIG    1        2.920  -2.687  -1.230  0.00  0.00    +0.046 C 
ENDBRANCH   1   2
BRANCH   1  10
ATOM     10  S   LIG    1       -0.261  -4.179  -0.533  0.00  0.00    +0.075 S 
ATOM     11  O   LIG    1       -0.761  -4.540  -1.813  0.00  0.00    -0.150 OA
ATOM     12  O   LIG    1       -0.944  -4.502   0.671  0.00  0.00    -0.150 OA
BRANCH  10  17
ATOM     13  C   LIG    1        0.411   1.817  -0.576  0.00  0.00    +0.044 C 
ATOM     14  C   LIG    1        0.244   0.320  -0.565  0.00  0.00    -0.050 A 
ATOM     15  C   LIG    1        0.095  -0.367  -1.755  0.00  0.00    +0.005 A 
ATOM     16  C   LIG    1       -0.059  -1.741  -1.745  0.00  0.00    +0.029 A 
ATOM     17  C   LIG    1       -0.064  -2.428  -0.545  0.00  0.00    +0.109 A 
ATOM     18  C   LIG    1        0.086  -1.741   0.645  0.00  0.00    +0.029 A 
ATOM     19  C   LIG    1        0.244  -0.367   0.635  0.00  0.00    +0.005 A 
ENDBRANCH  10  17
ENDBRANCH   1  10
BRANCH   1  20
ATOM     20  C   LIG    1        1.771  -5.248   0.897  0.00  0.00    +0.227 C 
BRANCH  20  21
ATOM     21  C   LIG    1        1.503  -6.716   1.108  0.00  0.00    +0.235 C 
ATOM     22  N   LIG    1        1.895  -7.314   2.250  0.00  0.00    -0.300 N 
ATOM     23  C   LIG    1        2.564  -6.519   3.255  0.00  0.00    +0.108 C 
ATOM     24  C   LIG    1        4.091  -6.535   2.998  0.00  0.00    +0.019 C 
ATOM     25  C   LIG    1        4.650  -7.857   3.319  0.00  0.00    +0.002 C 
ATOM     26  C   LIG    1        4.110  -8.993   2.456  0.00  0.00    +0.002 C 
ATOM     27  C   LIG    1        2.818  -9.500   3.047  0.00  0.00    +0.019 C 
ATOM     28  C   LIG    1        1.618  -8.754   2.426  0.00  0.00    +0.108 C 
ATOM     29  O   LIG    1        0.936  -7.359   0.251  0.00  0.00    -0.274 OA
ENDBRANCH  20  21
ENDBRANCH   1  20
TORSDOF 5
