REMARK  Name = ZINC00752407
REMARK                            x       y       z     vdW  Elec       q    Type
REMARK                         _______ _______ _______ _____ _____    ______ ____
ROOT
ATOM      1  C   LIG    1        2.490   1.044  -0.016  0.00  0.00    +0.101 C 
ATOM      2  C   LIG    1        3.258   1.420  -1.252  0.00  0.00    +0.098 C 
ATOM      3  C   LIG    1        4.278   2.309  -1.181  0.00  0.00    +0.198 C 
ATOM      4  O   LIG    1        4.628   2.881  -0.019  0.00  0.00    -0.445 OA
ATOM      5  C   LIG    1        4.291   2.295   1.145  0.00  0.00    +0.115 C 
ATOM      6  C   LIG    1        5.078   2.669   2.380  0.00  0.00    +0.083 C 
ATOM      7  C   LIG    1        5.131   1.477   3.337  0.00  0.00    +0.034 C 
ATOM      8  C   LIG    1        3.696   1.081   3.700  0.00  0.00    +0.088 C 
ATOM      9  C   LIG    1        2.938   0.788   2.433  0.00  0.00    +0.164 C 
ATOM     10  O   LIG    1        2.011   0.003   2.461  0.00  0.00    -0.292 OA
ATOM     11  C   LIG    1        3.284   1.409   1.215  0.00  0.00    +0.046 C 
ENDROOT
BRANCH   1  15
ATOM     12  C   LIG    1       -1.236   3.139   0.031  0.00  0.00    +0.008 A 
ATOM     13  C   LIG    1       -1.218   1.749   0.017  0.00  0.00    +0.015 A 
ATOM     14  C   LIG    1       -0.013   1.076   0.008  0.00  0.00    +0.005 A 
ATOM     15  C   LIG    1        1.176   1.783   0.000  0.00  0.00    -0.034 A 
ATOM     16  C   LIG    1        1.162   3.166   0.008  0.00  0.00    +0.005 A 
ATOM     17  C   LIG    1       -0.040   3.846   0.023  0.00  0.00    +0.015 A 
BRANCH  12  19
ATOM     18  C   LIG    1       -4.017   2.683   0.054  0.00  0.00    +0.090 C 
ATOM     19  S   LIG    1       -2.772   4.002   0.049  0.00  0.00    -0.129 S 
ENDBRANCH  12  19
ENDBRANCH   1  15
BRANCH   7  20
ATOM     20  C   LIG    1        5.881   1.863   4.586  0.00  0.00    -0.043 A 
ATOM     21  C   LIG    1        5.424   2.905   5.372  0.00  0.00    +0.004 A 
ATOM     22  C   LIG    1        6.109   3.256   6.520  0.00  0.00    +0.000 A 
ATOM     23  C   LIG    1        7.256   2.573   6.877  0.00  0.00    +0.000 A 
ATOM     24  C   LIG    1        7.715   1.534   6.089  0.00  0.00    +0.000 A 
ATOM     25  C   LIG    1        7.028   1.179   4.943  0.00  0.00    +0.004 A 
ENDBRANCH   7  20
BRANCH   3  26
ATOM     26  N   LIG    1        4.968   2.632  -2.323  0.00  0.00    -0.328 N 
ATOM     27  H   LIG    1        5.700   3.268  -2.285  0.00  0.00    +0.145 HD
ATOM     28  H   LIG    1        4.723   2.225  -3.169  0.00  0.00    +0.145 HD
ENDBRANCH   3  26
BRANCH   2  29
ATOM     29  C   LIG    1        2.909   0.835  -2.512  0.00  0.00    +0.101 C 
ATOM     30  N   LIG    1        2.633   0.370  -3.511  0.00  0.00    -0.191 NA
ENDBRANCH   2  29
TORSDOF 5
