REMARK  Name = ZINC01387047
REMARK                            x       y       z     vdW  Elec       q    Type
REMARK                         _______ _______ _______ _____ _____    ______ ____
ROOT
ATOM      1  C   LIG    1        3.515   3.361   0.006  0.00  0.00    +0.162 A 
ATOM      2  C   LIG    1        3.538   1.996  -0.003  0.00  0.00    +0.062 A 
ATOM      3  C   LIG    1        2.344   1.283  -0.165  0.00  0.00    +0.044 A 
ATOM      4  C   LIG    1        1.121   1.981  -0.319  0.00  0.00    +0.080 A 
ATOM      5  N   LIG    1       -0.010   1.274  -0.473  0.00  0.00    -0.235 NA
ATOM      6  C   LIG    1        0.022  -0.038  -0.480  0.00  0.00    +0.223 A 
ATOM      7  N   LIG    1        1.140  -0.732  -0.340  0.00  0.00    -0.220 NA
ATOM      8  C   LIG    1        1.120   3.381  -0.306  0.00  0.00    +0.078 A 
ATOM      9  C   LIG    1        2.313  -0.132  -0.181  0.00  0.00    +0.134 A 
ATOM     10  C   LIG    1        2.309   4.059  -0.145  0.00  0.00    +0.164 A 
ENDROOT
BRANCH   1  12
ATOM     11  C   LIG    1        5.872   3.286   0.313  0.00  0.00    +0.277 C 
ATOM     12  O   LIG    1        4.676   4.053   0.164  0.00  0.00    -0.491 OA
ENDBRANCH   1  12
BRANCH   9  13
ATOM     13  N   LIG    1        3.472  -0.868  -0.037  0.00  0.00    -0.299 N 
ATOM     14  H   LIG    1        4.331  -0.418  -0.003  0.00  0.00    +0.154 HD
BRANCH  13  15
ATOM     15  C   LIG    1        3.407  -2.262   0.061  0.00  0.00    +0.033 A 
ATOM     16  C   LIG    1        2.320  -2.866   0.679  0.00  0.00    +0.026 A 
ATOM     17  C   LIG    1        2.256  -4.243   0.769  0.00  0.00    +0.040 A 
ATOM     18  C   LIG    1        3.280  -5.020   0.254  0.00  0.00    +0.124 A 
ATOM     19  F   LIG    1        3.217  -6.366   0.348  0.00  0.00    -0.205 F 
ATOM     20  C   LIG    1        4.367  -4.419  -0.358  0.00  0.00    +0.040 A 
ATOM     21  C   LIG    1        4.433  -3.043  -0.455  0.00  0.00    +0.026 A 
ENDBRANCH  13  15
ENDBRANCH   9  13
BRANCH  10  22
ATOM     22  O   LIG    1        2.311   5.417  -0.133  0.00  0.00    -0.491 OA
ATOM     23  C   LIG    1        1.050   6.069  -0.292  0.00  0.00    +0.277 C 
ENDBRANCH  10  22
TORSDOF 4
