REMARK  Name = ZINC00895124
REMARK                            x       y       z     vdW  Elec       q    Type
REMARK                         _______ _______ _______ _____ _____    ______ ____
ROOT
ATOM      1  CA  GLU A  1        1.417   2.055  -0.000  0.00  0.00    +0.036 C 
ENDROOT
BRANCH   1   2
ATOM      2  N   GLU A  1        2.067   1.682  -1.264  0.00  0.00    +0.387 N 
ATOM      3  H1  GLU A  1        1.555   2.082  -2.036  0.00  0.00    -0.089 HD
ATOM      4  H2  GLU A  1        2.078   0.677  -1.352  0.00  0.00    -0.089 HD
ATOM      5  H3  GLU A  1        3.013   2.032  -1.271  0.00  0.00    -0.089 HD
ENDBRANCH   1   2
BRANCH   1   6
ATOM      6  C   GLU A  1        1.399   3.557   0.132  0.00  0.00    +0.290 C 
ATOM      7  O   GLU A  1        1.434   4.072   1.236  0.00  0.00    -0.253 OA
BRANCH   6   8
ATOM      8  OXT GLU A  1        1.350   4.256  -0.866  0.00  0.00    -0.482 OA
ATOM      9  HXT GLU A  1        1.324   3.860  -1.715  0.00  0.00    +0.295 HD
ENDBRANCH   6   8
ENDBRANCH   1   6
BRANCH   1  10
ATOM     10  CB  GLU A  1       -0.019   1.526   0.010  0.00  0.00    +0.006 C 
BRANCH  10  11
ATOM     11  CG  GLU A  1        0.002  -0.004   0.002  0.00  0.00    +0.119 C 
BRANCH  11  12
ATOM     12  CD  GLU A  1       -1.412  -0.526   0.013  0.00  0.00    +0.305 C 
ATOM     13  OE1 GLU A  1       -2.349   0.254   0.026  0.00  0.00    -0.251 OA
BRANCH  12  14
ATOM     14  OE2 GLU A  1       -1.618  -1.727   0.008  0.00  0.00    -0.481 OA
ATOM     15  HE2 GLU A  1       -0.898  -2.326  -0.002  0.00  0.00    +0.295 HD
ENDBRANCH  12  14
ENDBRANCH  11  12
ENDBRANCH  10  11
ENDBRANCH   1  10
TORSDOF 7
