REMARK  Name = ZINC01302121
REMARK                            x       y       z     vdW  Elec       q    Type
REMARK                         _______ _______ _______ _____ _____    ______ ____
ROOT
ATOM      1  N   LIG    1        4.625   2.636  -0.028  0.00  0.00    -0.311 N 
ATOM      2  H   LIG    1        5.072   3.497  -0.027  0.00  0.00    +0.149 HD
ENDROOT
BRANCH   1   9
ATOM      3  C   LIG    1       -1.216   1.751   0.017  0.00  0.00    +0.002 A 
ATOM      4  C   LIG    1       -1.243   3.138   0.030  0.00  0.00    +0.002 A 
ATOM      5  C   LIG    1       -0.071   3.860   0.023  0.00  0.00    +0.030 A 
ATOM      6  C   LIG    1        1.156   3.191   0.008  0.00  0.00    +0.091 A 
ATOM      7  C   LIG    1        1.178   1.787   0.000  0.00  0.00    +0.067 A 
ATOM      8  N   LIG    1        2.514   1.423  -0.014  0.00  0.00    -0.326 N 
ATOM      9  C   LIG    1        3.248   2.574  -0.015  0.00  0.00    +0.194 A 
ATOM     10  H   LIG    1        2.875   0.490  -0.022  0.00  0.00    +0.169 HD
ATOM     11  N   LIG    1        2.448   3.611  -0.002  0.00  0.00    -0.215 NA
ATOM     12  C   LIG    1       -0.013   1.076   0.008  0.00  0.00    +0.028 A 
ENDBRANCH   1   9
BRANCH   1  13
ATOM     13  C   LIG    1        5.414   1.401  -0.042  0.00  0.00    +0.139 C 
BRANCH  13  14
ATOM     14  C   LIG    1        6.882   1.743  -0.055  0.00  0.00    -0.029 A 
ATOM     15  C   LIG    1        7.544   1.901  -1.258  0.00  0.00    +0.007 A 
ATOM     16  C   LIG    1        8.889   2.220  -1.271  0.00  0.00    +0.022 A 
ATOM     17  C   LIG    1        9.575   2.370  -0.079  0.00  0.00    +0.059 A 
ATOM     18 CL   LIG    1       11.266   2.764  -0.094  0.00  0.00    -0.082 Cl
ATOM     19  C   LIG    1        8.913   2.206   1.126  0.00  0.00    +0.060 A 
ATOM     20 CL   LIG    1        9.773   2.395   2.622  0.00  0.00    -0.082 Cl
ATOM     21  C   LIG    1        7.566   1.893   1.137  0.00  0.00    +0.026 A 
ENDBRANCH  13  14
ENDBRANCH   1  13
TORSDOF 3
