REMARK  Name = ZINC01423886
REMARK                            x       y       z     vdW  Elec       q    Type
REMARK                         _______ _______ _______ _____ _____    ______ ____
ROOT
ATOM      1  C   LIG    1       -6.200   1.200   4.025  0.00  0.00    +0.045 C 
ATOM      2  C   LIG    1       -4.765   1.610   3.816  0.00  0.00    -0.033 A 
ATOM      3  C   LIG    1       -4.098   2.310   4.769  0.00  0.00    +0.074 A 
ATOM      4  C   LIG    1       -2.756   2.689   4.563  0.00  0.00    +0.252 A 
ATOM      5  N   LIG    1       -2.099   2.375   3.432  0.00  0.00    -0.308 N 
ATOM      6  C   LIG    1       -0.705   2.792   3.267  0.00  0.00    +0.152 C 
ATOM      7  C   LIG    1       -2.720   1.660   2.427  0.00  0.00    +0.097 A 
ATOM      8  C   LIG    1       -2.041   1.338   1.253  0.00  0.00    +0.144 A 
ATOM      9  C   LIG    1       -2.683   0.626   0.257  0.00  0.00    +0.051 A 
ATOM     10  C   LIG    1       -4.003   0.229   0.409  0.00  0.00    +0.050 A 
ATOM     11  C   LIG    1       -4.699   0.540   1.562  0.00  0.00    +0.130 A 
ATOM     12  O   LIG    1       -2.175   3.317   5.432  0.00  0.00    -0.268 OA
ATOM     13  C   LIG    1       -4.061   1.263   2.582  0.00  0.00    +0.047 A 
ENDROOT
BRANCH   8  14
ATOM     14  O   LIG    1       -0.745   1.720   1.089  0.00  0.00    -0.493 OA
ATOM     15  C   LIG    1       -0.110   1.351  -0.137  0.00  0.00    +0.277 C 
ENDBRANCH   8  14
BRANCH  11  16
ATOM     16  O   LIG    1       -5.992   0.149   1.706  0.00  0.00    -0.494 OA
ATOM     17  C   LIG    1       -6.572  -0.583   0.625  0.00  0.00    +0.277 C 
ENDBRANCH  11  16
TORSDOF 2
