REMARK  Name = ZINC00813579
REMARK                            x       y       z     vdW  Elec       q    Type
REMARK                         _______ _______ _______ _____ _____    ______ ____
ROOT
ATOM      1  C   LIG    1        1.146  -6.048   1.772  0.00  0.00    +0.144 C 
ATOM      2  C   LIG    1        0.229  -6.336   2.937  0.00  0.00    +0.066 C 
ATOM      3  C   LIG    1        1.020  -6.502   4.026  0.00  0.00    +0.188 C 
ATOM      4  C   LIG    1        2.435  -6.335   3.626  0.00  0.00    +0.282 C 
ATOM      5  O   LIG    1        3.386  -6.425   4.376  0.00  0.00    -0.267 OA
ATOM      6  N   LIG    1        2.512  -6.070   2.308  0.00  0.00    -0.283 N 
ENDROOT
BRANCH   1  10
ATOM      7  C   LIG    1        0.275  -2.200   0.131  0.00  0.00    +0.121 A 
ATOM      8  C   LIG    1        0.014  -3.345  -0.607  0.00  0.00    +0.046 A 
ATOM      9  C   LIG    1        0.297  -4.588  -0.075  0.00  0.00    +0.009 A 
ATOM     10  C   LIG    1        0.839  -4.691   1.193  0.00  0.00    -0.022 A 
ATOM     11  C   LIG    1        1.099  -3.551   1.931  0.00  0.00    +0.009 A 
ATOM     12  C   LIG    1        0.824  -2.306   1.400  0.00  0.00    +0.046 A 
BRANCH   7  13
ATOM     13  O   LIG    1       -0.003  -0.976  -0.391  0.00  0.00    -0.492 OA
BRANCH  13  15
ATOM     14  C   LIG    1       -0.808   0.509  -2.119  0.00  0.00    +0.048 C 
ATOM     15  C   LIG    1       -0.567  -0.943  -1.704  0.00  0.00    +0.225 C 
ENDBRANCH  13  15
ENDBRANCH   7  13
ENDBRANCH   1  10
BRANCH   2  16
ATOM     16  C   LIG    1       -1.184  -6.416   2.900  0.00  0.00    +0.162 C 
ATOM     17  C   LIG    1       -1.947  -6.848   4.125  0.00  0.00    +0.091 C 
ATOM     18  O   LIG    1       -1.780  -6.137   1.880  0.00  0.00    -0.292 OA
ENDBRANCH   2  16
BRANCH   3  19
ATOM     19  O   LIG    1        0.585  -6.775   5.276  0.00  0.00    -0.502 OA
ATOM     20  H   LIG    1        1.294  -6.861   5.929  0.00  0.00    +0.292 HD
ENDBRANCH   3  19
BRANCH   6  21
ATOM     21  C   LIG    1        3.741  -5.844   1.544  0.00  0.00    +0.114 C 
BRANCH  21  22
ATOM     22  C   LIG    1        4.083  -4.353   1.557  0.00  0.00    +0.056 C 
BRANCH  22  23
ATOM     23  C   LIG    1        5.348  -4.120   0.771  0.00  0.00    -0.021 A 
ATOM     24  C   LIG    1        6.593  -4.051   1.266  0.00  0.00    +0.087 A 
ATOM     25  N   LIG    1        7.486  -3.829   0.252  0.00  0.00    -0.360 N 
ATOM     26  C   LIG    1        6.819  -3.748  -0.949  0.00  0.00    +0.047 A 
ATOM     27  C   LIG    1        7.231  -3.538  -2.261  0.00  0.00    +0.026 A 
ATOM     28  C   LIG    1        6.300  -3.525  -3.277  0.00  0.00    +0.002 A 
ATOM     29  C   LIG    1        4.952  -3.704  -3.004  0.00  0.00    +0.001 A 
ATOM     30  C   LIG    1        4.524  -3.906  -1.722  0.00  0.00    +0.010 A 
ATOM     31  H   LIG    1        8.446  -3.742   0.364  0.00  0.00    +0.165 HD
ATOM     32  C   LIG    1        5.451  -3.933  -0.678  0.00  0.00    +0.003 A 
ENDBRANCH  22  23
ENDBRANCH  21  22
ENDBRANCH   6  21
TORSDOF 8
