REMARK  Name = ZINC00870366
REMARK                            x       y       z     vdW  Elec       q    Type
REMARK                         _______ _______ _______ _____ _____    ______ ____
ROOT
ATOM      1  N   LIG    1       -3.852   1.815   4.517  0.00  0.00    -0.283 N 
ATOM      2  C   LIG    1       -2.819   1.913   3.647  0.00  0.00    +0.264 A 
ATOM      3  C   LIG    1       -3.129   1.643   2.274  0.00  0.00    +0.076 A 
ATOM      4  C   LIG    1       -2.211   1.678   1.151  0.00  0.00    -0.018 A 
ATOM      5  C   LIG    1       -2.726   1.387  -0.067  0.00  0.00    +0.021 A 
ATOM      6  C   LIG    1       -1.976   1.361  -1.362  0.00  0.00    +0.203 C 
ATOM      7  O   LIG    1       -0.706   1.997  -1.152  0.00  0.00    -0.368 OA
ATOM      8  C   LIG    1       -0.019   1.526   0.010  0.00  0.00    +0.068 C 
ATOM      9  C   LIG    1        1.418   2.053  -0.001  0.00  0.00    +0.041 C 
ATOM     10  C   LIG    1        0.002  -0.004   0.002  0.00  0.00    +0.041 C 
ATOM     11  S   LIG    1       -4.443   1.055   0.221  0.00  0.00    -0.071 S 
ATOM     12  C   LIG    1       -0.730   2.017   1.274  0.00  0.00    +0.071 C 
ATOM     13  C   LIG    1       -4.469   1.306   1.969  0.00  0.00    +0.117 A 
ATOM     14  N   LIG    1       -5.438   1.227   2.872  0.00  0.00    -0.216 NA
ATOM     15  O   LIG    1       -1.695   2.212   4.010  0.00  0.00    -0.267 OA
ATOM     16  C   LIG    1       -5.115   1.482   4.133  0.00  0.00    +0.173 A 
ENDROOT
BRANCH   1  17
ATOM     17  C   LIG    1       -3.598   2.079   5.936  0.00  0.00    +0.157 C 
BRANCH  17  19
ATOM     18  C   LIG    1       -2.695   4.527   5.986  0.00  0.00    +0.040 C 
ATOM     19  C   LIG    1       -3.812   3.543   6.220  0.00  0.00    -0.060 C 
ATOM     20  C   LIG    1       -4.969   3.961   6.671  0.00  0.00    +0.009 C 
ENDBRANCH  17  19
ENDBRANCH   1  17
BRANCH  16  21
ATOM     21  S   LIG    1       -6.374   1.387   5.363  0.00  0.00    -0.076 S 
BRANCH  21  22
ATOM     22  C   LIG    1       -7.788   0.927   4.330  0.00  0.00    +0.197 C 
BRANCH  22  23
ATOM     23  C   LIG    1       -9.015   0.785   5.193  0.00  0.00    +0.317 C 
ATOM     24  O   LIG    1       -8.941   0.975   6.384  0.00  0.00    -0.250 OA
BRANCH  23  25
ATOM     25  O   LIG    1      -10.190   0.447   4.639  0.00  0.00    -0.467 OA
ATOM     26  C   LIG    1      -11.330   0.328   5.531  0.00  0.00    +0.280 C 
ENDBRANCH  23  25
ENDBRANCH  22  23
ENDBRANCH  21  22
ENDBRANCH  16  21
TORSDOF 6
