REMARK  Name = ZINC01043853
REMARK                            x       y       z     vdW  Elec       q    Type
REMARK                         _______ _______ _______ _____ _____    ______ ____
ROOT
ATOM      1  C   LIG    1       -3.420   2.379   0.089  0.00  0.00    +0.138 A 
ATOM      2  C   LIG    1       -2.737   3.654   0.322  0.00  0.00    +0.125 A 
ATOM      3  C   LIG    1       -1.379   3.409   0.129  0.00  0.00    +0.139 A 
ATOM      4  N   LIG    1       -1.245   2.107  -0.201  0.00  0.00    -0.214 N 
ATOM      5  N   LIG    1       -2.502   1.496  -0.216  0.00  0.00    -0.157 NA
ENDROOT
BRANCH   4   6
ATOM      6  C   LIG    1       -0.031   1.465  -0.478  0.00  0.00    +0.104 A 
ATOM      7  C   LIG    1        0.796   1.945  -1.486  0.00  0.00    +0.068 A 
ATOM      8 CL   LIG    1        0.330   3.346  -2.399  0.00  0.00    -0.081 Cl
ATOM      9  C   LIG    1        1.991   1.306  -1.761  0.00  0.00    +0.034 A 
ATOM     10  C   LIG    1        2.362   0.190  -1.034  0.00  0.00    +0.058 A 
ATOM     11  C   LIG    1        1.542  -0.291  -0.031  0.00  0.00    +0.034 A 
ATOM     12  C   LIG    1        0.346   0.343   0.250  0.00  0.00    +0.068 A 
ATOM     13 CL   LIG    1       -0.684  -0.262   1.510  0.00  0.00    -0.081 Cl
BRANCH  10  14
ATOM     14  C   LIG    1        3.665  -0.505  -1.337  0.00  0.00    +0.418 C 
ATOM     15  F   LIG    1        4.162  -1.094  -0.170  0.00  0.00    -0.166 F 
ATOM     16  F   LIG    1        4.590   0.428  -1.819  0.00  0.00    -0.166 F 
ATOM     17  F   LIG    1        3.453  -1.493  -2.304  0.00  0.00    -0.166 F 
ENDBRANCH  10  14
ENDBRANCH   4   6
BRANCH   3  18
ATOM     18  N   LIG    1       -0.358   4.331   0.249  0.00  0.00    -0.342 N 
ATOM     19  H   LIG    1       -0.564   5.268   0.395  0.00  0.00    +0.144 HD
ATOM     20  H   LIG    1        0.566   4.042   0.188  0.00  0.00    +0.144 HD
ENDBRANCH   3  18
BRANCH   1  22
ATOM     21  C   LIG    1       -5.330   0.327  -0.203  0.00  0.00    +0.091 C 
ATOM     22  S   LIG    1       -5.155   2.087   0.198  0.00  0.00    -0.106 S 
ENDBRANCH   1  22
BRANCH   2  23
ATOM     23  C   LIG    1       -3.344   4.900   0.681  0.00  0.00    +0.105 C 
ATOM     24  N   LIG    1       -3.825   5.889   0.967  0.00  0.00    -0.191 NA
ENDBRANCH   2  23
TORSDOF 5
