REMARK  Name = ZINC01165407
REMARK                            x       y       z     vdW  Elec       q    Type
REMARK                         _______ _______ _______ _____ _____    ______ ____
ROOT
ATOM      1  C   LIG    1        7.404   0.062  -1.329  0.00  0.00    +0.153 C 
ATOM      2  N   LIG    1        7.172   1.389  -0.753  0.00  0.00    -0.305 N 
ATOM      3  C   LIG    1        5.981   1.897  -0.288  0.00  0.00    +0.165 A 
ATOM      4  N   LIG    1        6.224   3.113   0.145  0.00  0.00    -0.128 NA
ATOM      5  N   LIG    1        7.466   3.398  -0.021  0.00  0.00    -0.122 NA
ATOM      6  C   LIG    1        8.093   2.381  -0.570  0.00  0.00    +0.192 A 
ENDROOT
BRANCH   3   7
ATOM      7  C   LIG    1        4.676   1.203  -0.271  0.00  0.00    +0.021 A 
ATOM      8  C   LIG    1        4.467   0.086  -1.082  0.00  0.00    +0.012 A 
ATOM      9  C   LIG    1        3.248  -0.560  -1.066  0.00  0.00    +0.002 A 
ATOM     10  C   LIG    1        2.232  -0.108  -0.244  0.00  0.00    +0.023 A 
ATOM     11  C   LIG    1        2.429   1.006   0.563  0.00  0.00    +0.034 A 
ATOM     12  C   LIG    1        3.650   1.662   0.554  0.00  0.00    +0.035 A 
BRANCH  11  13
ATOM     13  N   LIG    1        1.396   1.462   1.389  0.00  0.00    -0.281 N 
ATOM     14  H   LIG    1        0.790   0.828   1.804  0.00  0.00    +0.155 HD
ATOM     15  C   LIG    1        1.243   2.783   1.610  0.00  0.00    +0.251 C 
ATOM     16  O   LIG    1        2.052   3.572   1.161  0.00  0.00    -0.270 OA
BRANCH  15  17
ATOM     17  C   LIG    1        0.096   3.272   2.401  0.00  0.00    +0.072 A 
ATOM     18  C   LIG    1       -0.839   2.369   2.913  0.00  0.00    +0.016 A 
ATOM     19  C   LIG    1       -1.905   2.831   3.655  0.00  0.00    +0.001 A 
ATOM     20  C   LIG    1       -2.057   4.188   3.885  0.00  0.00    +0.003 A 
ATOM     21  C   LIG    1       -1.141   5.089   3.379  0.00  0.00    +0.039 A 
ATOM     22  C   LIG    1       -0.063   4.641   2.637  0.00  0.00    +0.135 A 
ATOM     23  F   LIG    1        0.833   5.522   2.141  0.00  0.00    -0.205 F 
ENDBRANCH  15  17
ENDBRANCH  11  13
ENDBRANCH   3   7
BRANCH   6  24
ATOM     24  S   LIG    1        9.804   2.308  -0.985  0.00  0.00    -0.078 S 
BRANCH  24  25
ATOM     25  C   LIG    1       10.329   3.954  -0.444  0.00  0.00    +0.157 C 
BRANCH  25  26
ATOM     26  C   LIG    1       11.803   4.123  -0.708  0.00  0.00    +0.173 C 
ATOM     27  O   LIG    1       12.436   3.221  -1.213  0.00  0.00    -0.291 OA
BRANCH  26  28
ATOM     28  C   LIG    1       12.474   5.384  -0.354  0.00  0.00    +0.018 A 
ATOM     29  C   LIG    1       11.746   6.429   0.224  0.00  0.00    +0.013 A 
ATOM     30  C   LIG    1       12.383   7.606   0.558  0.00  0.00    +0.033 A 
ATOM     31  C   LIG    1       13.736   7.758   0.313  0.00  0.00    +0.122 A 
ATOM     32  C   LIG    1       14.463   6.730  -0.263  0.00  0.00    +0.033 A 
ATOM     33  C   LIG    1       13.841   5.545  -0.597  0.00  0.00    +0.013 A 
BRANCH  31  34
ATOM     34  N   LIG    1       14.411   9.026   0.669  0.00  0.00    +0.006 N 
ATOM     35  O   LIG    1       15.602   9.163   0.455  0.00  0.00    -0.130 OA
BRANCH  34  36
ATOM     36  O   LIG    1       13.775   9.933   1.176  0.00  0.00    -0.396 OA
ATOM     37  H   LIG    1       12.859   9.828   1.340  0.00  0.00    +0.329 HD
ENDBRANCH  34  36
ENDBRANCH  31  34
ENDBRANCH  26  28
ENDBRANCH  25  26
ENDBRANCH  24  25
ENDBRANCH   6  24
TORSDOF 9
