REMARK  Name = ZINC00781553
REMARK                            x       y       z     vdW  Elec       q    Type
REMARK                         _______ _______ _______ _____ _____    ______ ____
ROOT
ATOM      1  C   LIG    1        2.251   0.141   6.294  0.00  0.00    +0.049 A 
ATOM      2  C   LIG    1        1.054   0.317   5.610  0.00  0.00    +0.028 A 
ATOM      3  C   LIG    1        0.035   1.063   6.170  0.00  0.00    +0.048 A 
ATOM      4  C   LIG    1        0.201   1.641   7.417  0.00  0.00    +0.125 A 
ATOM      5  C   LIG    1        1.403   1.468   8.112  0.00  0.00    +0.029 A 
ATOM      6  C   LIG    1        2.426   0.710   7.545  0.00  0.00    +0.036 A 
ENDROOT
BRANCH   5   7
ATOM      7  C   LIG    1        1.585   2.084   9.446  0.00  0.00    +0.035 A 
ATOM      8  C   LIG    1        1.230   1.373  10.617  0.00  0.00    -0.007 A 
ATOM      9  C   LIG    1        0.701   0.076  10.547  0.00  0.00    +0.009 A 
ATOM     10  C   LIG    1        0.370  -0.580  11.693  0.00  0.00    +0.001 A 
ATOM     11  C   LIG    1        0.550   0.018  12.938  0.00  0.00    +0.001 A 
ATOM     12  C   LIG    1        1.061   1.276  13.044  0.00  0.00    +0.008 A 
ATOM     13  C   LIG    1        1.414   1.983  11.881  0.00  0.00    -0.017 A 
ATOM     14  C   LIG    1        1.946   3.283  11.955  0.00  0.00    +0.012 A 
ATOM     15  C   LIG    1        2.281   3.950  10.818  0.00  0.00    +0.046 A 
ATOM     16  C   LIG    1        2.112   3.364   9.562  0.00  0.00    +0.125 A 
BRANCH  16  17
ATOM     17  O   LIG    1        2.462   4.052   8.445  0.00  0.00    -0.506 OA
ATOM     18  H   LIG    1        1.748   4.591   8.076  0.00  0.00    +0.292 HD
ENDBRANCH  16  17
ENDBRANCH   5   7
BRANCH   1  19
ATOM     19  N   LIG    1        3.279  -0.617   5.721  0.00  0.00    -0.216 N 
ATOM     20  H   LIG    1        4.057  -0.174   5.347  0.00  0.00    +0.174 HD
BRANCH  19  21
ATOM     21  S   LIG    1        3.166  -2.268   5.680  0.00  0.00    +0.072 S 
ATOM     22  O   LIG    1        1.869  -2.575   5.186  0.00  0.00    -0.150 OA
ATOM     23  O   LIG    1        4.351  -2.741   5.055  0.00  0.00    -0.150 OA
BRANCH  21  27
ATOM     24  C   LIG    1        3.295  -3.726   9.964  0.00  0.00    -0.048 A 
ATOM     25  C   LIG    1        2.078  -3.521   9.340  0.00  0.00    +0.005 A 
ATOM     26  C   LIG    1        2.039  -3.075   8.032  0.00  0.00    +0.029 A 
ATOM     27  C   LIG    1        3.216  -2.835   7.348  0.00  0.00    +0.109 A 
ATOM     28  C   LIG    1        4.432  -3.039   7.972  0.00  0.00    +0.029 A 
ATOM     29  C   LIG    1        4.472  -3.481   9.282  0.00  0.00    +0.005 A 
BRANCH  24  31
ATOM     30  C   LIG    1        3.337  -3.011  12.338  0.00  0.00    +0.009 C 
ATOM     31  C   LIG    1        3.337  -4.212  11.390  0.00  0.00    +0.032 C 
ENDBRANCH  24  31
ENDBRANCH  21  27
ENDBRANCH  19  21
ENDBRANCH   1  19
BRANCH   4  32
ATOM     32  O   LIG    1       -0.803   2.376   7.966  0.00  0.00    -0.506 OA
ATOM     33  H   LIG    1       -1.419   1.861   8.505  0.00  0.00    +0.292 HD
ENDBRANCH   4  32
TORSDOF 7
