REMARK  Name = ZINC00752465
REMARK                            x       y       z     vdW  Elec       q    Type
REMARK                         _______ _______ _______ _____ _____    ______ ____
ROOT
ATOM      1  C   LIG    1       -2.216   6.424   3.688  0.00  0.00    +0.034 C 
ATOM      2  C   LIG    1       -2.748   7.171   2.464  0.00  0.00    +0.083 C 
ATOM      3  C   LIG    1       -2.048   6.671   1.221  0.00  0.00    +0.115 C 
ATOM      4  C   LIG    1       -0.778   6.232   1.278  0.00  0.00    +0.046 C 
ATOM      5  C   LIG    1       -0.066   6.207   2.493  0.00  0.00    +0.164 C 
ATOM      6  O   LIG    1        1.085   5.819   2.501  0.00  0.00    -0.292 OA
ATOM      7  C   LIG    1       -0.076   5.747   0.032  0.00  0.00    +0.101 C 
ATOM      8  C   LIG    1       -0.798   6.242  -1.190  0.00  0.00    +0.098 C 
ATOM      9  C   LIG    1       -2.075   6.679  -1.105  0.00  0.00    +0.198 C 
ATOM     10  O   LIG    1       -2.736   6.679   0.064  0.00  0.00    -0.445 OA
ATOM     11  C   LIG    1       -0.704   6.654   3.780  0.00  0.00    +0.088 C 
ENDROOT
BRANCH   1  15
ATOM     12  C   LIG    1       -4.110   7.917   7.214  0.00  0.00    +0.000 A 
ATOM     13  C   LIG    1       -4.223   6.580   6.883  0.00  0.00    +0.000 A 
ATOM     14  C   LIG    1       -3.610   6.096   5.742  0.00  0.00    +0.004 A 
ATOM     15  C   LIG    1       -2.885   6.950   4.932  0.00  0.00    -0.043 A 
ATOM     16  C   LIG    1       -2.768   8.287   5.266  0.00  0.00    +0.004 A 
ATOM     17  C   LIG    1       -3.384   8.771   6.405  0.00  0.00    +0.000 A 
ENDBRANCH   1  15
BRANCH   7  18
ATOM     18  C   LIG    1       -0.056   4.240   0.025  0.00  0.00    -0.034 A 
ATOM     19  C   LIG    1        1.151   3.566   0.010  0.00  0.00    +0.007 A 
ATOM     20  C   LIG    1        1.170   2.183   0.003  0.00  0.00    +0.033 A 
ATOM     21  C   LIG    1       -0.018   1.476   0.010  0.00  0.00    +0.122 A 
ATOM     22  C   LIG    1       -1.224   2.151   0.019  0.00  0.00    +0.033 A 
ATOM     23  C   LIG    1       -1.243   3.533   0.033  0.00  0.00    +0.007 A 
BRANCH  21  24
ATOM     24  N   LIG    1        0.002  -0.004   0.002  0.00  0.00    +0.006 N 
ATOM     25  O   LIG    1        1.065  -0.599  -0.011  0.00  0.00    -0.130 OA
BRANCH  24  26
ATOM     26  O   LIG    1       -1.044  -0.627   0.009  0.00  0.00    -0.396 OA
ATOM     27  H   LIG    1       -1.862  -0.170   0.019  0.00  0.00    +0.329 HD
ENDBRANCH  24  26
ENDBRANCH  21  24
ENDBRANCH   7  18
BRANCH   9  28
ATOM     28  N   LIG    1       -2.710   7.129  -2.236  0.00  0.00    -0.328 N 
ATOM     29  H   LIG    1       -2.242   7.133  -3.085  0.00  0.00    +0.145 HD
ATOM     30  H   LIG    1       -3.626   7.443  -2.185  0.00  0.00    +0.145 HD
ENDBRANCH   9  28
BRANCH   8  31
ATOM     31  C   LIG    1       -0.129   6.253  -2.456  0.00  0.00    +0.101 C 
ATOM     32  N   LIG    1        0.402   6.262  -3.460  0.00  0.00    -0.191 NA
ENDBRANCH   8  31
TORSDOF 6
