REMARK  Name = ZINC00803466
REMARK                            x       y       z     vdW  Elec       q    Type
REMARK                         _______ _______ _______ _____ _____    ______ ____
ROOT
ATOM      1  C   LIG    1        2.203   5.604   0.010  0.00  0.00    +0.255 C 
ATOM      2  N   LIG    1        3.261   6.439   0.004  0.00  0.00    -0.277 N 
ATOM      3  H   LIG    1        4.162   6.081  -0.006  0.00  0.00    +0.155 HD
ATOM      4  O   LIG    1        1.076   6.052   0.023  0.00  0.00    -0.272 OA
ENDROOT
BRANCH   2   5
ATOM      5  C   LIG    1        3.060   7.811   0.013  0.00  0.00    +0.084 A 
ATOM      6  C   LIG    1        4.012   8.822   0.015  0.00  0.00    +0.068 A 
ATOM      7  C   LIG    1        3.534  10.194   0.022  0.00  0.00    -0.023 A 
ATOM      8  C   LIG    1        2.191  10.335   0.035  0.00  0.00    -0.004 A 
ATOM      9  C   LIG    1        1.418  11.618   0.051  0.00  0.00    +0.043 C 
ATOM     10  C   LIG    1        2.377  12.756   0.426  0.00  0.00    +0.005 C 
ATOM     11  C   LIG    1        3.645  12.633  -0.423  0.00  0.00    +0.005 C 
ATOM     12  C   LIG    1        4.451  11.411   0.019  0.00  0.00    +0.037 C 
ATOM     13  S   LIG    1        1.562   8.680   0.032  0.00  0.00    -0.077 S 
BRANCH   6  14
ATOM     14  C   LIG    1        5.446   8.516   0.007  0.00  0.00    +0.244 C 
ATOM     15  N   LIG    1        6.110   8.367   1.170  0.00  0.00    -0.325 N 
ATOM     16  H   LIG    1        7.059   8.165   1.164  0.00  0.00    +0.145 HD
ATOM     17  H   LIG    1        5.639   8.463   2.013  0.00  0.00    +0.145 HD
ATOM     18  O   LIG    1        6.036   8.396  -1.051  0.00  0.00    -0.270 OA
ENDBRANCH   6  14
ENDBRANCH   2   5
BRANCH   1  19
ATOM     19  C   LIG    1        2.421   4.113   0.001  0.00  0.00    +0.324 C 
BRANCH  19  20
ATOM     20  O   LIG    1        1.157   3.446   0.009  0.00  0.00    -0.483 OA
BRANCH  20  24
ATOM     21  C   LIG    1        1.212  -0.681  -0.013  0.00  0.00    +0.120 A 
ATOM     22  C   LIG    1        0.002  -0.004   0.002  0.00  0.00    +0.049 A 
ATOM     23  C   LIG    1       -0.017   1.377   0.010  0.00  0.00    +0.049 A 
ATOM     24  C   LIG    1        1.175   2.087   0.002  0.00  0.00    +0.121 A 
ATOM     25  C   LIG    1        2.385   1.410  -0.013  0.00  0.00    +0.049 A 
ATOM     26  C   LIG    1        2.404   0.029  -0.020  0.00  0.00    +0.049 A 
BRANCH  21  28
ATOM     27  C   LIG    1        2.513  -2.672  -0.036  0.00  0.00    +0.277 C 
ATOM     28  O   LIG    1        1.231  -2.041  -0.021  0.00  0.00    -0.495 OA
ENDBRANCH  21  28
ENDBRANCH  20  24
ENDBRANCH  19  20
ENDBRANCH   1  19
TORSDOF 6
