REMARK  Name = ZINC00995229
REMARK                            x       y       z     vdW  Elec       q    Type
REMARK                         _______ _______ _______ _____ _____    ______ ____
ROOT
ATOM      1  C   LIG    1       -0.070   5.347   0.031  0.00  0.00    +0.050 C 
ENDROOT
BRANCH   1   5
ATOM      2  C   LIG    1       -0.968   1.238  -0.718  0.00  0.00    +0.000 A 
ATOM      3  C   LIG    1       -1.926   2.208  -0.948  0.00  0.00    +0.000 A 
ATOM      4  C   LIG    1       -1.637   3.537  -0.701  0.00  0.00    +0.004 A 
ATOM      5  C   LIG    1       -0.387   3.898  -0.233  0.00  0.00    -0.040 A 
ATOM      6  C   LIG    1        0.573   2.929  -0.009  0.00  0.00    +0.004 A 
ATOM      7  C   LIG    1        0.283   1.599  -0.251  0.00  0.00    +0.000 A 
ENDBRANCH   1   5
BRANCH   1   8
ATOM      8  C   LIG    1       -0.881   5.832   1.205  0.00  0.00    -0.040 A 
ATOM      9  C   LIG    1       -0.252   6.157   2.392  0.00  0.00    +0.004 A 
ATOM     10  C   LIG    1       -0.995   6.607   3.468  0.00  0.00    +0.000 A 
ATOM     11  C   LIG    1       -2.368   6.721   3.360  0.00  0.00    +0.000 A 
ATOM     12  C   LIG    1       -2.998   6.390   2.175  0.00  0.00    +0.000 A 
ATOM     13  C   LIG    1       -2.254   5.946   1.097  0.00  0.00    +0.004 A 
ENDBRANCH   1   8
BRANCH   1  14
ATOM     14  C   LIG    1       -0.417   6.179  -1.206  0.00  0.00    +0.031 C 
BRANCH  14  15
ATOM     15  C   LIG    1        0.019   7.628  -0.984  0.00  0.00    +0.105 C 
BRANCH  15  16
ATOM     16  N   LIG    1       -0.312   8.425  -2.168  0.00  0.00    -0.311 N 
ATOM     17  H   LIG    1       -0.743   8.005  -2.929  0.00  0.00    +0.149 HD
ATOM     18  C   LIG    1       -0.018   9.739  -2.200  0.00  0.00    +0.244 C 
ATOM     19  O   LIG    1        0.521  10.265  -1.246  0.00  0.00    -0.270 OA
BRANCH  18  20
ATOM     20  C   LIG    1       -0.353  10.543  -3.395  0.00  0.00    +0.037 A 
ATOM     21  C   LIG    1       -0.968   9.942  -4.494  0.00  0.00    +0.013 A 
ATOM     22  C   LIG    1       -1.282  10.698  -5.604  0.00  0.00    +0.001 A 
ATOM     23  C   LIG    1       -0.979  12.048  -5.634  0.00  0.00    +0.000 A 
ATOM     24  C   LIG    1       -0.365  12.649  -4.550  0.00  0.00    +0.001 A 
ATOM     25  C   LIG    1       -0.050  11.905  -3.431  0.00  0.00    +0.013 A 
ENDBRANCH  18  20
ENDBRANCH  15  16
ENDBRANCH  14  15
ENDBRANCH   1  14
TORSDOF 6
