REMARK  Name = ZINC00975826
REMARK                            x       y       z     vdW  Elec       q    Type
REMARK                         _______ _______ _______ _____ _____    ______ ____
ROOT
ATOM      1  C   LIG    1        2.481   1.008  -0.696  0.00  0.00    +0.136 A 
ATOM      2  C   LIG    1        3.711   1.619  -0.604  0.00  0.00    +0.050 A 
ATOM      3  C   LIG    1        4.647   0.615  -0.345  0.00  0.00    +0.050 A 
ATOM      4  C   LIG    1        3.950  -0.579  -0.289  0.00  0.00    +0.130 A 
ATOM      5  O   LIG    1        2.643  -0.313  -0.499  0.00  0.00    -0.455 OA
ENDROOT
BRANCH   4   6
ATOM      6  C   LIG    1        4.507  -1.853  -0.049  0.00  0.00    +0.066 C 
ATOM      7  C   LIG    1        3.695  -2.944   0.056  0.00  0.00    +0.082 C 
ATOM      8  C   LIG    1        2.269  -3.015   0.095  0.00  0.00    +0.258 C 
ATOM      9  N   LIG    1        1.709  -4.208   0.198  0.00  0.00    -0.243 N 
ATOM     10  H   LIG    1        0.743  -4.282   0.223  0.00  0.00    +0.159 HD
ATOM     11  C   LIG    1        2.465  -5.327   0.275  0.00  0.00    +0.283 C 
ATOM     12  O   LIG    1        2.105  -6.484   0.376  0.00  0.00    -0.262 OA
ATOM     13  O   LIG    1        1.589  -2.007   0.032  0.00  0.00    -0.269 OA
ATOM     14  S   LIG    1        4.125  -4.674   0.189  0.00  0.00    -0.026 S 
ENDBRANCH   4   6
BRANCH   1  21
ATOM     15  C   LIG    1        0.014   0.950  -1.031  0.00  0.00    +0.012 A 
ATOM     16  C   LIG    1       -1.180   1.592  -1.284  0.00  0.00    +0.016 A 
ATOM     17  C   LIG    1       -1.208   2.966  -1.458  0.00  0.00    +0.018 A 
ATOM     18 BR   LIG    1       -2.851   3.838  -1.798  0.00  0.00    -0.050 Br
ATOM     19  C   LIG    1       -0.038   3.703  -1.389  0.00  0.00    +0.016 A 
ATOM     20  C   LIG    1        1.164   3.073  -1.142  0.00  0.00    +0.012 A 
ATOM     21  C   LIG    1        1.199   1.688  -0.961  0.00  0.00    +0.017 A 
ENDBRANCH   1  21
TORSDOF 2
