REMARK  Name = ZINC01036032
REMARK                            x       y       z     vdW  Elec       q    Type
REMARK                         _______ _______ _______ _____ _____    ______ ____
ROOT
ATOM      1  C   LIG    1       -1.298   2.117   0.020  0.00  0.00    +0.015 C 
ATOM      2  C   LIG    1       -1.314   3.463   0.129  0.00  0.00    +0.001 C 
ATOM      3  C   LIG    1       -0.045   4.294   0.133  0.00  0.00    +0.043 C 
ATOM      4  C   LIG    1       -0.125   5.311  -1.002  0.00  0.00    +0.040 C 
ATOM      5  C   LIG    1       -1.423   6.070  -0.989  0.00  0.00    -0.036 A 
ATOM      6  C   LIG    1       -1.461   7.322  -1.582  0.00  0.00    +0.004 A 
ATOM      7  C   LIG    1       -2.633   8.053  -1.604  0.00  0.00    +0.000 A 
ATOM      8  C   LIG    1       -3.788   7.544  -1.034  0.00  0.00    +0.001 A 
ATOM      9  C   LIG    1       -3.767   6.301  -0.436  0.00  0.00    +0.012 A 
ATOM     10  C   LIG    1       -2.583   5.564  -0.409  0.00  0.00    +0.025 A 
ATOM     11  C   LIG    1       -2.569   4.234   0.247  0.00  0.00    +0.189 C 
ATOM     12  O   LIG    1       -3.536   3.805   0.849  0.00  0.00    -0.287 OA
ENDROOT
BRANCH   1  16
ATOM     13  C   LIG    1        2.378   0.011   0.211  0.00  0.00    +0.000 A 
ATOM     14  C   LIG    1        2.192   1.144   0.985  0.00  0.00    +0.001 A 
ATOM     15  C   LIG    1        1.001   1.835   0.927  0.00  0.00    +0.008 A 
ATOM     16  C   LIG    1       -0.022   1.389   0.083  0.00  0.00    -0.025 A 
ATOM     17  C   LIG    1        0.174   0.243  -0.695  0.00  0.00    +0.008 A 
ATOM     18  C   LIG    1        1.371  -0.437  -0.626  0.00  0.00    +0.001 A 
ENDBRANCH   1  16
TORSDOF 1
