REMARK  Name = ZINC01231982
REMARK                            x       y       z     vdW  Elec       q    Type
REMARK                         _______ _______ _______ _____ _____    ______ ____
ROOT
ATOM      1  C   LIG    1        2.078  -5.039  -1.440  0.00  0.00    +0.062 A 
ATOM      2  C   LIG    1        1.992  -6.241  -2.133  0.00  0.00    +0.027 A 
ATOM      3  C   LIG    1        2.659  -6.399  -3.330  0.00  0.00    +0.022 A 
ATOM      4  C   LIG    1        3.420  -5.363  -3.852  0.00  0.00    +0.042 A 
ATOM      5 CL   LIG    1        4.253  -5.579  -5.360  0.00  0.00    -0.084 Cl
ATOM      6  C   LIG    1        3.518  -4.164  -3.181  0.00  0.00    +0.033 A 
ATOM      7  C   LIG    1        2.842  -3.986  -1.969  0.00  0.00    +0.046 A 
ENDROOT
BRANCH   1   8
ATOM      8  N   LIG    1        1.407  -4.878  -0.235  0.00  0.00    -0.205 N 
ATOM      9  C   LIG    1        2.049  -5.279   1.019  0.00  0.00    +0.157 C 
BRANCH   8  10
ATOM     10  S   LIG    1       -0.118  -4.234  -0.216  0.00  0.00    +0.074 S 
ATOM     11  O   LIG    1       -0.680  -4.483  -1.498  0.00  0.00    -0.150 OA
ATOM     12  O   LIG    1       -0.733  -4.680   0.985  0.00  0.00    -0.150 OA
BRANCH  10  17
ATOM     13  C   LIG    1        0.476   1.750   0.271  0.00  0.00    +0.044 C 
ATOM     14  C   LIG    1        0.328   0.256   0.149  0.00  0.00    -0.050 A 
ATOM     15  C   LIG    1       -0.035  -0.306  -1.060  0.00  0.00    +0.005 A 
ATOM     16  C   LIG    1       -0.171  -1.677  -1.172  0.00  0.00    +0.029 A 
ATOM     17  C   LIG    1        0.056  -2.486  -0.074  0.00  0.00    +0.109 A 
ATOM     18  C   LIG    1        0.420  -1.924   1.135  0.00  0.00    +0.029 A 
ATOM     19  C   LIG    1        0.560  -0.553   1.246  0.00  0.00    +0.005 A 
ENDBRANCH  10  17
ENDBRANCH   8  10
ENDBRANCH   1   8
BRANCH   7  20
ATOM     20  C   LIG    1        2.938  -2.705  -1.248  0.00  0.00    +0.195 C 
ATOM     21  O   LIG    1        2.324  -1.735  -1.649  0.00  0.00    -0.287 OA
BRANCH  20  22
ATOM     22  C   LIG    1        3.779  -2.599  -0.038  0.00  0.00    +0.022 A 
ATOM     23  C   LIG    1        4.598  -3.664   0.343  0.00  0.00    +0.012 A 
ATOM     24  C   LIG    1        5.381  -3.558   1.474  0.00  0.00    +0.001 A 
ATOM     25  C   LIG    1        5.356  -2.399   2.230  0.00  0.00    +0.000 A 
ATOM     26  C   LIG    1        4.546  -1.340   1.859  0.00  0.00    +0.001 A 
ATOM     27  C   LIG    1        3.763  -1.430   0.727  0.00  0.00    +0.012 A 
ENDBRANCH  20  22
ENDBRANCH   7  20
TORSDOF 5
