REMARK  Name = ZINC00706043
REMARK                            x       y       z     vdW  Elec       q    Type
REMARK                         _______ _______ _______ _____ _____    ______ ____
ROOT
ATOM      1  N   LIG    1       -0.288   1.272  -2.443  0.00  0.00    -0.206 N 
ATOM      2  H   LIG    1        0.507   0.726  -2.543  0.00  0.00    +0.177 HD
ATOM      3  C   LIG    1       -0.742   1.585  -1.213  0.00  0.00    +0.242 C 
ATOM      4  O   LIG    1       -1.736   2.268  -1.088  0.00  0.00    -0.273 OA
ENDROOT
BRANCH   1   6
ATOM      5  C   LIG    1       -0.530   1.435  -4.763  0.00  0.00    +0.138 C 
ATOM      6  N   LIG    1       -0.966   1.736  -3.578  0.00  0.00    -0.188 NA
BRANCH   5   9
ATOM      7  C   LIG    1       -1.445   2.060  -8.352  0.00  0.00    +0.166 A 
ATOM      8  C   LIG    1       -0.774   1.600  -7.233  0.00  0.00    +0.059 A 
ATOM      9  C   LIG    1       -1.243   1.924  -5.957  0.00  0.00    +0.002 A 
ATOM     10  C   LIG    1       -2.392   2.706  -5.815  0.00  0.00    +0.059 A 
ATOM     11  C   LIG    1       -3.055   3.167  -6.938  0.00  0.00    +0.166 A 
ATOM     12  C   LIG    1       -2.586   2.844  -8.207  0.00  0.00    +0.204 A 
BRANCH   7  14
ATOM     13  C   LIG    1        0.186   0.937  -9.668  0.00  0.00    +0.277 C 
ATOM     14  O   LIG    1       -0.990   1.745  -9.594  0.00  0.00    -0.491 OA
ENDBRANCH   7  14
BRANCH  11  15
ATOM     15  O   LIG    1       -4.170   3.934  -6.801  0.00  0.00    -0.491 OA
ATOM     16  C   LIG    1       -4.596   4.228  -5.468  0.00  0.00    +0.277 C 
ENDBRANCH  11  15
BRANCH  12  17
ATOM     17  O   LIG    1       -3.244   3.294  -9.309  0.00  0.00    -0.488 OA
ATOM     18  C   LIG    1       -4.279   2.459  -9.833  0.00  0.00    +0.277 C 
ENDBRANCH  12  17
ENDBRANCH   5   9
ENDBRANCH   1   6
BRANCH   3  19
ATOM     19  C   LIG    1       -0.013   1.086   0.008  0.00  0.00    +0.171 C 
BRANCH  19  20
ATOM     20  S   LIG    1       -0.862   1.671   1.500  0.00  0.00    -0.114 S 
BRANCH  20  21
ATOM     21  C   LIG    1        0.099   1.013   2.823  0.00  0.00    +0.034 A 
ATOM     22  C   LIG    1        1.214   0.246   2.558  0.00  0.00    +0.017 A 
ATOM     23  C   LIG    1        1.980  -0.280   3.593  0.00  0.00    +0.002 A 
ATOM     24  C   LIG    1        1.651  -0.051   4.895  0.00  0.00    +0.010 A 
ATOM     25  C   LIG    1        0.523   0.725   5.207  0.00  0.00    +0.001 A 
ATOM     26  C   LIG    1        0.156   0.978   6.542  0.00  0.00    +0.011 A 
ATOM     27  C   LIG    1       -0.943   1.756   6.772  0.00  0.00    +0.020 A 
ATOM     28  C   LIG    1       -1.676   2.257   5.699  0.00  0.00    +0.111 A 
ATOM     29  N   LIG    1       -1.335   2.014   4.457  0.00  0.00    -0.254 NA
ATOM     30  C   LIG    1       -0.264   1.271   4.164  0.00  0.00    +0.084 A 
ENDBRANCH  20  21
ENDBRANCH  19  20
ENDBRANCH   3  19
TORSDOF 8
