REMARK  Name = ZINC01066512
REMARK                            x       y       z     vdW  Elec       q    Type
REMARK                         _______ _______ _______ _____ _____    ______ ____
ROOT
ATOM      1  C   LIG    1        1.115  -6.036  -1.837  0.00  0.00    +0.118 C 
ENDROOT
BRANCH   1   2
ATOM      2  C   LIG    1       -0.014  -6.470  -2.737  0.00  0.00    +0.019 A 
ATOM      3  C   LIG    1        0.249  -6.774  -4.069  0.00  0.00    +0.029 A 
ATOM      4  C   LIG    1       -0.749  -7.170  -4.908  0.00  0.00    +0.051 A 
ATOM      5 CL   LIG    1       -0.398  -7.544  -6.566  0.00  0.00    -0.083 Cl
ATOM      6  C   LIG    1       -2.065  -7.273  -4.425  0.00  0.00    +0.022 A 
ATOM      7  C   LIG    1       -3.123  -7.678  -5.260  0.00  0.00    +0.013 A 
ATOM      8  C   LIG    1       -4.375  -7.756  -4.721  0.00  0.00    +0.020 A 
ATOM      9  C   LIG    1       -4.576  -7.438  -3.380  0.00  0.00    +0.111 A 
ATOM     10  N   LIG    1       -3.588  -7.061  -2.605  0.00  0.00    -0.251 NA
ATOM     11  C   LIG    1       -2.339  -6.964  -3.070  0.00  0.00    +0.114 A 
ATOM     12  C   LIG    1       -1.279  -6.563  -2.230  0.00  0.00    +0.148 A 
BRANCH  12  13
ATOM     13  O   LIG    1       -1.516  -6.266  -0.926  0.00  0.00    -0.504 OA
ATOM     14  H   LIG    1       -1.734  -5.338  -0.767  0.00  0.00    +0.292 HD
ENDBRANCH  12  13
ENDBRANCH   1   2
BRANCH   1  18
ATOM     15  C   LIG    1        1.314  -1.768  -1.758  0.00  0.00    +0.121 A 
ATOM     16  C   LIG    1        0.827  -2.461  -0.660  0.00  0.00    +0.046 A 
ATOM     17  C   LIG    1        0.763  -3.841  -0.688  0.00  0.00    +0.009 A 
ATOM     18  C   LIG    1        1.185  -4.531  -1.810  0.00  0.00    -0.026 A 
ATOM     19  C   LIG    1        1.672  -3.842  -2.905  0.00  0.00    +0.009 A 
ATOM     20  C   LIG    1        1.732  -2.462  -2.884  0.00  0.00    +0.046 A 
BRANCH  15  21
ATOM     21  O   LIG    1        1.377  -0.410  -1.733  0.00  0.00    -0.492 OA
BRANCH  21  23
ATOM     22  C   LIG    1        1.076   1.753  -0.698  0.00  0.00    +0.048 C 
ATOM     23  C   LIG    1        0.931   0.238  -0.540  0.00  0.00    +0.225 C 
ENDBRANCH  21  23
ENDBRANCH  15  21
ENDBRANCH   1  18
BRANCH   1  24
ATOM     24  N   LIG    1        2.379  -6.574  -2.346  0.00  0.00    -0.302 NA
ATOM     25  H   LIG    1        2.953  -6.023  -2.900  0.00  0.00    +0.123 HD
BRANCH  24  26
ATOM     26  C   LIG    1        2.756  -7.883  -2.034  0.00  0.00    +0.068 C 
ATOM     27  C   LIG    1        1.983  -8.655  -1.170  0.00  0.00    +0.021 C 
ATOM     28  C   LIG    1        2.399  -9.946  -0.891  0.00  0.00    +0.017 C 
ATOM     29  C   LIG    1        3.558 -10.423  -1.474  0.00  0.00    +0.081 C 
ATOM     30  N   LIG    1        4.268  -9.667  -2.288  0.00  0.00    -0.315 NA
ATOM     31  H   LIG    1        5.078 -10.028  -2.682  0.00  0.00    +0.122 HD
ATOM     32  C   LIG    1        3.906  -8.435  -2.585  0.00  0.00    +0.099 C 
ENDBRANCH  24  26
ENDBRANCH   1  24
TORSDOF 7
