REMARK  Name = ZINC00902004
REMARK                            x       y       z     vdW  Elec       q    Type
REMARK                         _______ _______ _______ _____ _____    ______ ____
ROOT
ATOM      1  C   LIG    1        2.362  -0.006  -0.033  0.00  0.00    +0.046 A 
ATOM      2  C   LIG    1        1.175  -0.728  -0.022  0.00  0.00    +0.011 A 
ATOM      3  C   LIG    1        0.002  -0.004   0.002  0.00  0.00    +0.005 A 
ATOM      4  C   LIG    1       -0.017   1.396   0.010  0.00  0.00    +0.129 A 
ATOM      5  O   LIG    1       -1.281   1.869   0.015  0.00  0.00    -0.483 OA
ATOM      6  C   LIG    1       -2.168   0.821   0.446  0.00  0.00    +0.218 C 
ATOM      7  C   LIG    1       -3.506   0.967  -0.210  0.00  0.00    +0.035 A 
ATOM      8  C   LIG    1       -4.264   2.095   0.072  0.00  0.00    +0.014 A 
ATOM      9  C   LIG    1       -5.505   2.269  -0.505  0.00  0.00    +0.046 A 
ATOM     10  C   LIG    1       -6.010   1.312  -1.373  0.00  0.00    +0.120 A 
ATOM     11  C   LIG    1       -5.258   0.184  -1.661  0.00  0.00    +0.091 A 
ATOM     12  C   LIG    1       -4.009   0.018  -1.084  0.00  0.00    +0.131 A 
ATOM     13  O   LIG    1       -3.271  -1.082  -1.399  0.00  0.00    -0.491 OA
ATOM     14  C   LIG    1       -1.853  -0.895  -1.374  0.00  0.00    +0.241 C 
ATOM     15  C   LIG    1        1.179   2.112   0.002  0.00  0.00    +0.091 A 
ATOM     16  C   LIG    1       -1.433  -0.466   0.032  0.00  0.00    +0.105 C 
ATOM     17  C   LIG    1        2.361   1.379  -0.020  0.00  0.00    +0.120 A 
ENDROOT
BRANCH  10  18
ATOM     18  O   LIG    1       -7.234   1.481  -1.939  0.00  0.00    -0.507 OA
ATOM     19  H   LIG    1       -7.216   1.951  -2.784  0.00  0.00    +0.292 HD
ENDBRANCH  10  18
BRANCH  17  20
ATOM     20  O   LIG    1        3.548   2.040  -0.028  0.00  0.00    -0.507 OA
ATOM     21  H   LIG    1        3.881   2.240  -0.913  0.00  0.00    +0.292 HD
ENDBRANCH  17  20
TORSDOF 2
