REMARK  Name = ZINC00754759
REMARK                            x       y       z     vdW  Elec       q    Type
REMARK                         _______ _______ _______ _____ _____    ______ ____
ROOT
ATOM      1  C   LIG    1        4.833  -2.493   0.005  0.00  0.00    +0.049 A 
ATOM      2  C   LIG    1        6.096  -1.928  -0.062  0.00  0.00    +0.048 A 
ATOM      3  C   LIG    1        7.216  -2.736  -0.186  0.00  0.00    +0.049 A 
ATOM      4  C   LIG    1        7.073  -4.138  -0.242  0.00  0.00    +0.081 A 
ATOM      5  C   LIG    1        5.804  -4.710  -0.175  0.00  0.00    +0.033 A 
ATOM      6  C   LIG    1        4.682  -3.894  -0.046  0.00  0.00    +0.081 A 
ENDROOT
BRANCH   1   8
ATOM      7  C   LIG    1        3.683  -0.482  -0.490  0.00  0.00    +0.248 C 
ATOM      8  N   LIG    1        3.716  -1.680   0.127  0.00  0.00    -0.281 N 
ATOM      9  H   LIG    1        2.958  -1.974   0.657  0.00  0.00    +0.155 HD
ATOM     10  O   LIG    1        4.664  -0.078  -1.084  0.00  0.00    -0.270 OA
BRANCH   7  14
ATOM     11  C   LIG    1        0.156   1.879  -0.358  0.00  0.00    +0.000 A 
ATOM     12  C   LIG    1        1.270   2.342  -1.035  0.00  0.00    +0.001 A 
ATOM     13  C   LIG    1        2.419   1.581  -1.082  0.00  0.00    +0.013 A 
ATOM     14  C   LIG    1        2.456   0.340  -0.444  0.00  0.00    +0.037 A 
ATOM     15  C   LIG    1        1.328  -0.122   0.238  0.00  0.00    +0.013 A 
ATOM     16  C   LIG    1        0.186   0.650   0.277  0.00  0.00    +0.001 A 
ENDBRANCH   7  14
ENDBRANCH   1   8
BRANCH   3  17
ATOM     17  N   LIG    1        8.478  -2.165  -0.253  0.00  0.00    -0.281 N 
ATOM     18  H   LIG    1        9.163  -2.569  -0.808  0.00  0.00    +0.155 HD
ATOM     19  C   LIG    1        8.752  -1.050   0.452  0.00  0.00    +0.248 C 
ATOM     20  O   LIG    1        7.926  -0.600   1.223  0.00  0.00    -0.270 OA
BRANCH  19  21
ATOM     21  C   LIG    1       10.056  -0.374   0.288  0.00  0.00    +0.037 A 
ATOM     22  C   LIG    1       11.004  -0.884  -0.600  0.00  0.00    +0.013 A 
ATOM     23  C   LIG    1       12.219  -0.248  -0.748  0.00  0.00    +0.001 A 
ATOM     24  C   LIG    1       12.499   0.893  -0.018  0.00  0.00    +0.000 A 
ATOM     25  C   LIG    1       11.564   1.404   0.865  0.00  0.00    +0.001 A 
ATOM     26  C   LIG    1       10.343   0.782   1.018  0.00  0.00    +0.013 A 
ENDBRANCH  19  21
ENDBRANCH   3  17
BRANCH   4  27
ATOM     27  C   LIG    1        8.260  -4.993  -0.373  0.00  0.00    +0.339 C 
ATOM     28  O   LIG    1        8.144  -6.211  -0.332  0.00  0.00    -0.245 OA
BRANCH  27  29
ATOM     29  O   LIG    1        9.365  -4.489  -0.524  0.00  0.00    -0.477 OA
ATOM     30  H   LIG    1        9.453  -3.556  -0.556  0.00  0.00    +0.295 HD
ENDBRANCH  27  29
ENDBRANCH   4  27
BRANCH   6  31
ATOM     31  C   LIG    1        3.342  -4.493   0.032  0.00  0.00    +0.339 C 
ATOM     32  O   LIG    1        3.217  -5.709   0.086  0.00  0.00    -0.245 OA
BRANCH  31  33
ATOM     33  O   LIG    1        2.351  -3.775   0.043  0.00  0.00    -0.477 OA
ATOM     34  H   LIG    1        2.446  -2.844   0.002  0.00  0.00    +0.295 HD
ENDBRANCH  31  33
ENDBRANCH   6  31
TORSDOF 8
