REMARK  Name = ZINC01176208
REMARK                            x       y       z     vdW  Elec       q    Type
REMARK                         _______ _______ _______ _____ _____    ______ ____
ROOT
ATOM      1  C   LIG    1        4.212   2.565   3.609  0.00  0.00    +0.040 C 
ATOM      2  C   LIG    1        5.102   2.651   2.368  0.00  0.00    +0.084 C 
ATOM      3  C   LIG    1        4.298   2.294   1.139  0.00  0.00    +0.115 C 
ATOM      4  C   LIG    1        3.284   1.414   1.215  0.00  0.00    +0.046 C 
ATOM      5  C   LIG    1        2.929   0.810   2.437  0.00  0.00    +0.164 C 
ATOM      6  O   LIG    1        2.017   0.007   2.463  0.00  0.00    -0.292 OA
ATOM      7  C   LIG    1        2.490   1.048  -0.016  0.00  0.00    +0.101 C 
ATOM      8  C   LIG    1        3.257   1.425  -1.252  0.00  0.00    +0.098 C 
ATOM      9  C   LIG    1        4.275   2.312  -1.187  0.00  0.00    +0.198 C 
ATOM     10  O   LIG    1        4.628   2.885  -0.025  0.00  0.00    -0.445 OA
ATOM     11  C   LIG    1        3.658   1.140   3.711  0.00  0.00    +0.088 C 
ENDROOT
BRANCH   7  12
ATOM     12  C   LIG    1        1.175   1.783   0.000  0.00  0.00    -0.034 A 
ATOM     13  C   LIG    1       -0.013   1.076   0.008  0.00  0.00    +0.007 A 
ATOM     14  C   LIG    1       -1.219   1.751   0.017  0.00  0.00    +0.033 A 
ATOM     15  C   LIG    1       -1.238   3.133   0.029  0.00  0.00    +0.122 A 
ATOM     16  C   LIG    1       -0.050   3.840   0.022  0.00  0.00    +0.033 A 
ATOM     17  C   LIG    1        1.156   3.165   0.008  0.00  0.00    +0.007 A 
BRANCH  15  18
ATOM     18  N   LIG    1       -2.529   3.855   0.045  0.00  0.00    +0.006 N 
ATOM     19  O   LIG    1       -2.546   5.073   0.052  0.00  0.00    -0.130 OA
BRANCH  18  20
ATOM     20  O   LIG    1       -3.576   3.232   0.051  0.00  0.00    -0.396 OA
ATOM     21  H   LIG    1       -3.563   2.295   0.046  0.00  0.00    +0.329 HD
ENDBRANCH  18  20
ENDBRANCH  15  18
ENDBRANCH   7  12
BRANCH   1  24
ATOM     22  C   LIG    1        5.727   3.974   6.808  0.00  0.00    +0.008 A 
ATOM     23  C   LIG    1        4.848   3.874   5.745  0.00  0.00    +0.011 A 
ATOM     24  C   LIG    1        5.024   2.882   4.838  0.00  0.00    -0.006 A 
ATOM     25  S   LIG    1        6.463   2.044   5.481  0.00  0.00    -0.101 S 
ATOM     26  C   LIG    1        6.739   3.078   6.911  0.00  0.00    +0.045 A 
ENDBRANCH   1  24
BRANCH   9  27
ATOM     27  N   LIG    1        4.962   2.635  -2.330  0.00  0.00    -0.328 N 
ATOM     28  H   LIG    1        4.716   2.228  -3.175  0.00  0.00    +0.145 HD
ATOM     29  H   LIG    1        5.694   3.271  -2.293  0.00  0.00    +0.145 HD
ENDBRANCH   9  27
BRANCH   8  30
ATOM     30  C   LIG    1        2.908   0.840  -2.512  0.00  0.00    +0.101 C 
ATOM     31  N   LIG    1        2.632   0.376  -3.511  0.00  0.00    -0.191 NA
ENDBRANCH   8  30
TORSDOF 6
