REMARK  Name = ZINC01027467
REMARK                            x       y       z     vdW  Elec       q    Type
REMARK                         _______ _______ _______ _____ _____    ______ ____
ROOT
ATOM      1  C   LIG    1        2.505  -1.369  -0.029  0.00  0.00    +0.028 C 
ATOM      2  C   LIG    1        1.826  -0.223  -0.286  0.00  0.00    +0.080 C 
ATOM      3  C   LIG    1        2.303   1.176  -0.278  0.00  0.00    +0.258 C 
ATOM      4  N   LIG    1        1.410   2.107  -0.570  0.00  0.00    -0.243 N 
ATOM      5  H   LIG    1        1.682   3.038  -0.577  0.00  0.00    +0.159 HD
ATOM      6  C   LIG    1        0.132   1.791  -0.860  0.00  0.00    +0.283 C 
ATOM      7  O   LIG    1       -0.784   2.538  -1.148  0.00  0.00    -0.262 OA
ATOM      8  O   LIG    1        3.457   1.457  -0.016  0.00  0.00    -0.269 OA
ATOM      9  S   LIG    1        0.110   0.011  -0.726  0.00  0.00    -0.026 S 
ENDROOT
BRANCH   1  16
ATOM     10  C   LIG    1        0.383  -2.660   0.080  0.00  0.00    +0.011 A 
ATOM     11  C   LIG    1       -0.289  -3.860   0.166  0.00  0.00    +0.039 A 
ATOM     12  C   LIG    1        0.419  -5.050   0.253  0.00  0.00    +0.123 A 
ATOM     13  F   LIG    1       -0.245  -6.223   0.342  0.00  0.00    -0.205 F 
ATOM     14  C   LIG    1        1.806  -5.041   0.248  0.00  0.00    +0.039 A 
ATOM     15  C   LIG    1        2.490  -3.849   0.157  0.00  0.00    +0.011 A 
ATOM     16  C   LIG    1        1.782  -2.644   0.069  0.00  0.00    -0.024 A 
ENDBRANCH   1  16
TORSDOF 1
