REMARK  Name = ZINC01247140
REMARK                            x       y       z     vdW  Elec       q    Type
REMARK                         _______ _______ _______ _____ _____    ______ ____
ROOT
ATOM      1  N   LIG    1        2.657  -1.834  -4.664  0.00  0.00    -0.299 N 
ATOM      2  H   LIG    1        3.451  -2.409  -4.579  0.00  0.00    +0.154 HD
ENDROOT
BRANCH   1   3
ATOM      3  C   LIG    1        2.116  -1.584  -5.907  0.00  0.00    +0.130 A 
ATOM      4  C   LIG    1        1.445  -0.403  -6.159  0.00  0.00    +0.067 A 
ATOM      5  C   LIG    1        0.913  -0.186  -7.427  0.00  0.00    +0.045 A 
ATOM      6  C   LIG    1        0.177   1.096  -7.721  0.00  0.00    +0.066 C 
ATOM      7  N   LIG    1        1.048  -1.093  -8.372  0.00  0.00    -0.216 NA
ATOM      8  C   LIG    1        1.695  -2.241  -8.143  0.00  0.00    +0.255 A 
ATOM      9  N   LIG    1        1.958  -3.291  -8.914  0.00  0.00    -0.197 NA
ATOM     10  C   LIG    1        2.652  -4.189  -8.226  0.00  0.00    +0.247 A 
ATOM     11  N   LIG    1        2.843  -3.757  -7.004  0.00  0.00    -0.151 NA
ATOM     12  N   LIG    1        2.239  -2.496  -6.916  0.00  0.00    -0.182 N 
ENDBRANCH   1   3
BRANCH   1  16
ATOM     13  C   LIG    1        0.928  -0.156  -1.267  0.00  0.00    -0.048 A 
ATOM     14  C   LIG    1        0.147  -0.430  -2.375  0.00  0.00    +0.005 A 
ATOM     15  C   LIG    1        0.717  -0.986  -3.503  0.00  0.00    +0.023 A 
ATOM     16  C   LIG    1        2.077  -1.270  -3.524  0.00  0.00    +0.032 A 
ATOM     17  C   LIG    1        2.858  -0.995  -2.409  0.00  0.00    +0.023 A 
ATOM     18  C   LIG    1        2.283  -0.433  -1.286  0.00  0.00    +0.005 A 
BRANCH  13  20
ATOM     19  C   LIG    1        0.353   1.976  -0.139  0.00  0.00    +0.009 C 
ATOM     20  C   LIG    1        0.303   0.450  -0.037  0.00  0.00    +0.032 C 
ENDBRANCH  13  20
ENDBRANCH   1  16
TORSDOF 3
