REMARK  Name = ZINC01169969
REMARK                            x       y       z     vdW  Elec       q    Type
REMARK                         _______ _______ _______ _____ _____    ______ ____
ROOT
ATOM      1  C   LIG    1        2.492   1.021  -0.016  0.00  0.00    +0.137 C 
ENDROOT
BRANCH   1   2
ATOM      2  C   LIG    1        1.189   1.779   0.000  0.00  0.00    +0.022 A 
ATOM      3  C   LIG    1       -0.013   1.076   0.008  0.00  0.00    +0.030 A 
ATOM      4  C   LIG    1       -1.207   1.732   0.017  0.00  0.00    +0.051 A 
ATOM      5 CL   LIG    1       -2.694   0.835   0.020  0.00  0.00    -0.083 Cl
ATOM      6  C   LIG    1       -1.230   3.137   0.030  0.00  0.00    +0.022 A 
ATOM      7  C   LIG    1       -2.444   3.849   0.045  0.00  0.00    +0.013 A 
ATOM      8  C   LIG    1       -2.389   5.214   0.051  0.00  0.00    +0.020 A 
ATOM      9  C   LIG    1       -1.155   5.861   0.043  0.00  0.00    +0.111 A 
ATOM     10  N   LIG    1       -0.027   5.193   0.029  0.00  0.00    -0.251 NA
ATOM     11  C   LIG    1       -0.011   3.857   0.022  0.00  0.00    +0.114 A 
ATOM     12  C   LIG    1        1.206   3.144   0.007  0.00  0.00    +0.148 A 
BRANCH  12  13
ATOM     13  O   LIG    1        2.389   3.812   0.001  0.00  0.00    -0.504 OA
ATOM     14  H   LIG    1        2.399   4.912   0.006  0.00  0.00    +0.292 HD
ENDBRANCH  12  13
ENDBRANCH   1   2
BRANCH   1  18
ATOM     15  C   LIG    1        4.038   0.929  -3.999  0.00  0.00    +0.120 A 
ATOM     16  C   LIG    1        4.539   1.840  -3.080  0.00  0.00    +0.046 A 
ATOM     17  C   LIG    1        4.037   1.868  -1.793  0.00  0.00    +0.009 A 
ATOM     18  C   LIG    1        3.037   0.989  -1.420  0.00  0.00    -0.022 A 
ATOM     19  C   LIG    1        2.540   0.076  -2.333  0.00  0.00    +0.009 A 
ATOM     20  C   LIG    1        3.034   0.048  -3.622  0.00  0.00    +0.046 A 
BRANCH  15  22
ATOM     21  C   LIG    1        3.967  -0.065  -6.157  0.00  0.00    +0.277 C 
ATOM     22  O   LIG    1        4.530   0.899  -5.265  0.00  0.00    -0.495 OA
ENDBRANCH  15  22
ENDBRANCH   1  18
BRANCH   1  23
ATOM     23  N   LIG    1        2.266  -0.349   0.452  0.00  0.00    -0.302 N 
ATOM     24  H   LIG    1        2.090  -1.156  -0.275  0.00  0.00    +0.150 HD
ATOM     25  C   LIG    1        2.273  -0.620   1.772  0.00  0.00    +0.251 C 
ATOM     26  O   LIG    1        2.467   0.270   2.573  0.00  0.00    -0.272 OA
BRANCH  25  27
ATOM     27  C   LIG    1        2.040  -2.029   2.253  0.00  0.00    +0.324 C 
BRANCH  27  28
ATOM     28  O   LIG    1        2.095  -2.060   3.681  0.00  0.00    -0.483 OA
BRANCH  28  29
ATOM     29  C   LIG    1        1.904  -3.265   4.279  0.00  0.00    +0.121 A 
ATOM     30  C   LIG    1        1.663  -4.394   3.509  0.00  0.00    +0.045 A 
ATOM     31  C   LIG    1        1.475  -5.618   4.120  0.00  0.00    +0.004 A 
ATOM     32  C   LIG    1        1.515  -5.718   5.498  0.00  0.00    +0.000 A 
ATOM     33  C   LIG    1        1.750  -4.594   6.268  0.00  0.00    +0.004 A 
ATOM     34  C   LIG    1        1.944  -3.368   5.662  0.00  0.00    +0.045 A 
ENDBRANCH  28  29
ENDBRANCH  27  28
ENDBRANCH  25  27
ENDBRANCH   1  23
TORSDOF 8
