REMARK  Name = ZINC00728137
REMARK                            x       y       z     vdW  Elec       q    Type
REMARK                         _______ _______ _______ _____ _____    ______ ____
ROOT
ATOM      1  C   LIG    1       -0.128   9.603   0.058  0.00  0.00    +0.101 C 
ATOM      2  C   LIG    1        0.557  10.118  -1.177  0.00  0.00    +0.098 C 
ATOM      3  C   LIG    1        1.827  10.589  -1.110  0.00  0.00    +0.198 C 
ATOM      4  O   LIG    1        2.506  10.604   0.047  0.00  0.00    -0.445 OA
ATOM      5  C   LIG    1        1.838  10.577   1.216  0.00  0.00    +0.115 C 
ATOM      6  C   LIG    1        2.542  11.098   2.447  0.00  0.00    +0.083 C 
ATOM      7  C   LIG    1        2.050  10.340   3.681  0.00  0.00    +0.034 C 
ATOM      8  C   LIG    1        0.533  10.529   3.794  0.00  0.00    +0.088 C 
ATOM      9  C   LIG    1       -0.112  10.063   2.518  0.00  0.00    +0.164 C 
ATOM     10  O   LIG    1       -1.251   9.642   2.544  0.00  0.00    -0.292 OA
ATOM     11  C   LIG    1        0.583  10.105   1.291  0.00  0.00    +0.046 C 
ENDROOT
BRANCH   1  15
ATOM     12  C   LIG    1       -0.070   5.328   0.032  0.00  0.00    -0.018 A 
ATOM     13  C   LIG    1        1.125   6.043   0.030  0.00  0.00    +0.009 A 
ATOM     14  C   LIG    1        1.101   7.423   0.034  0.00  0.00    +0.005 A 
ATOM     15  C   LIG    1       -0.108   8.096   0.048  0.00  0.00    -0.035 A 
ATOM     16  C   LIG    1       -1.298   7.391   0.055  0.00  0.00    +0.005 A 
ATOM     17  C   LIG    1       -1.285   6.011   0.047  0.00  0.00    +0.009 A 
BRANCH  12  21
ATOM     18  C   LIG    1       -0.013   1.076   0.008  0.00  0.00    +0.000 A 
ATOM     19  C   LIG    1       -1.221   1.748   0.017  0.00  0.00    +0.001 A 
ATOM     20  C   LIG    1       -1.246   3.128   0.031  0.00  0.00    +0.008 A 
ATOM     21  C   LIG    1       -0.050   3.844   0.023  0.00  0.00    -0.018 A 
ATOM     22  C   LIG    1        1.164   3.161   0.008  0.00  0.00    +0.008 A 
ATOM     23  C   LIG    1        1.177   1.781   0.000  0.00  0.00    +0.001 A 
ENDBRANCH  12  21
ENDBRANCH   1  15
BRANCH   7  24
ATOM     24  C   LIG    1        2.722  10.889   4.913  0.00  0.00    -0.043 A 
ATOM     25  C   LIG    1        2.565  12.220   5.252  0.00  0.00    +0.004 A 
ATOM     26  C   LIG    1        3.178  12.721   6.385  0.00  0.00    +0.000 A 
ATOM     27  C   LIG    1        3.955  11.894   7.174  0.00  0.00    +0.000 A 
ATOM     28  C   LIG    1        4.115  10.564   6.833  0.00  0.00    +0.000 A 
ATOM     29  C   LIG    1        3.499  10.062   5.702  0.00  0.00    +0.004 A 
ENDBRANCH   7  24
BRANCH   3  30
ATOM     30  N   LIG    1        2.430  11.059  -2.251  0.00  0.00    -0.328 N 
ATOM     31  H   LIG    1        3.338  11.398  -2.214  0.00  0.00    +0.145 HD
ATOM     32  H   LIG    1        1.948  11.052  -3.092  0.00  0.00    +0.145 HD
ENDBRANCH   3  30
BRANCH   2  33
ATOM     33  C   LIG    1       -0.135  10.112  -2.430  0.00  0.00    +0.101 C 
ATOM     34  N   LIG    1       -0.684  10.108  -3.425  0.00  0.00    -0.191 NA
ENDBRANCH   2  33
TORSDOF 5
