REMARK  Name = ZINC00975830
REMARK                            x       y       z     vdW  Elec       q    Type
REMARK                         _______ _______ _______ _____ _____    ______ ____
ROOT
ATOM      1  C   LIG    1       -1.591  -0.305  -0.374  0.00  0.00    +0.137 A 
ATOM      2  C   LIG    1       -1.855  -1.390  -1.180  0.00  0.00    +0.050 A 
ATOM      3  C   LIG    1       -3.001  -2.007  -0.673  0.00  0.00    +0.050 A 
ATOM      4  C   LIG    1       -3.396  -1.271   0.431  0.00  0.00    +0.130 A 
ATOM      5  O   LIG    1       -2.525  -0.253   0.593  0.00  0.00    -0.455 OA
ENDROOT
BRANCH   4   6
ATOM      6  C   LIG    1       -4.513  -1.542   1.248  0.00  0.00    +0.066 C 
ATOM      7  C   LIG    1       -4.751  -0.778   2.355  0.00  0.00    +0.082 C 
ATOM      8  C   LIG    1       -3.943   0.240   2.946  0.00  0.00    +0.258 C 
ATOM      9  N   LIG    1       -4.401   0.846   4.027  0.00  0.00    -0.243 N 
ATOM     10  H   LIG    1       -3.872   1.543   4.445  0.00  0.00    +0.159 HD
ATOM     11  C   LIG    1       -5.593   0.503   4.564  0.00  0.00    +0.283 C 
ATOM     12  O   LIG    1       -6.145   0.958   5.549  0.00  0.00    -0.262 OA
ATOM     13  O   LIG    1       -2.866   0.543   2.466  0.00  0.00    -0.269 OA
ATOM     14  S   LIG    1       -6.154  -0.786   3.462  0.00  0.00    -0.026 S 
ENDBRANCH   4   6
BRANCH   1  17
ATOM     15  C   LIG    1        0.352   2.890  -0.692  0.00  0.00    +0.021 A 
ATOM     16  C   LIG    1       -0.702   2.014  -0.538  0.00  0.00    +0.014 A 
ATOM     17  C   LIG    1       -0.468   0.637  -0.538  0.00  0.00    +0.036 A 
ATOM     18  C   LIG    1        0.836   0.156  -0.695  0.00  0.00    +0.053 A 
ATOM     19 CL   LIG    1        1.139  -1.553  -0.697  0.00  0.00    -0.083 Cl
ATOM     20  C   LIG    1        1.881   1.044  -0.848  0.00  0.00    +0.040 A 
ATOM     21  C   LIG    1        1.641   2.408  -0.846  0.00  0.00    +0.042 A 
ATOM     22 CL   LIG    1        2.962   3.518  -1.039  0.00  0.00    -0.083 Cl
ENDBRANCH   1  17
TORSDOF 2
