REMARK  Name = ZINC01404025
REMARK                            x       y       z     vdW  Elec       q    Type
REMARK                         _______ _______ _______ _____ _____    ______ ____
ROOT
ATOM      1  C   LIG    1        3.580   0.665  -0.029  0.00  0.00    +0.261 C 
ATOM      2  N   LIG    1        4.244  -0.508  -0.042  0.00  0.00    -0.306 N 
ATOM      3  H   LIG    1        3.752  -1.343  -0.041  0.00  0.00    +0.149 HD
ATOM      4  O   LIG    1        4.198   1.714  -0.030  0.00  0.00    -0.269 OA
ENDROOT
BRANCH   1   7
ATOM      5  C   LIG    1       -0.016   1.350   0.009  0.00  0.00    +0.020 A 
ATOM      6  C   LIG    1        1.309   1.797  -0.001  0.00  0.00    +0.032 A 
ATOM      7  C   LIG    1        2.114   0.678  -0.015  0.00  0.00    +0.102 A 
ATOM      8  N   LIG    1        1.290  -0.425  -0.013  0.00  0.00    -0.357 N 
ATOM      9  H   LIG    1        1.583  -1.350  -0.020  0.00  0.00    +0.165 HD
ATOM     10  C   LIG    1        0.002  -0.004   0.002  0.00  0.00    +0.083 A 
ENDBRANCH   1   7
BRANCH   2  11
ATOM     11  C   LIG    1        5.709  -0.521  -0.057  0.00  0.00    +0.140 C 
BRANCH  11  12
ATOM     12  C   LIG    1        6.198  -1.946  -0.069  0.00  0.00    -0.030 A 
ATOM     13  C   LIG    1        6.429  -2.607   1.123  0.00  0.00    +0.008 A 
ATOM     14  C   LIG    1        6.878  -3.914   1.113  0.00  0.00    +0.038 A 
ATOM     15  C   LIG    1        7.096  -4.561  -0.091  0.00  0.00    +0.123 A 
ATOM     16  F   LIG    1        7.535  -5.839  -0.102  0.00  0.00    -0.205 F 
ATOM     17  C   LIG    1        6.865  -3.898  -1.284  0.00  0.00    +0.038 A 
ATOM     18  C   LIG    1        6.411  -2.593  -1.272  0.00  0.00    +0.008 A 
ENDBRANCH  11  12
ENDBRANCH   2  11
TORSDOF 3
