REMARK  Name = ZINC00896041
REMARK                            x       y       z     vdW  Elec       q    Type
REMARK                         _______ _______ _______ _____ _____    ______ ____
ROOT
ATOM      1  C   LIG    1       -0.518   3.009   1.370  0.00  0.00    -0.036 C 
ATOM      2  N   LIG    1       -0.712   1.561   1.216  0.00  0.00    +0.384 N 
ATOM      3  H   LIG    1       -0.335   1.077   2.040  0.00  0.00    -0.085 HD
ATOM      4  H   LIG    1       -1.715   1.359   1.130  0.00  0.00    -0.085 HD
ATOM      5  C   LIG    1       -0.013   1.086   0.008  0.00  0.00    -0.077 C 
ATOM      6  C   LIG    1       -0.760   1.596  -1.224  0.00  0.00    +0.016 C 
ATOM      7  C   LIG    1       -0.997   3.080  -1.105  0.00  0.00    -0.044 A 
ATOM      8  C   LIG    1       -1.332   3.789  -2.249  0.00  0.00    +0.053 A 
ATOM      9  C   LIG    1       -1.562   5.151  -2.186  0.00  0.00    +0.158 A 
ATOM     10  C   LIG    1       -1.456   5.812  -0.966  0.00  0.00    +0.158 A 
ATOM     11  C   LIG    1       -1.121   5.101   0.172  0.00  0.00    +0.051 A 
ATOM     12  C   LIG    1       -0.889   3.735   0.104  0.00  0.00    -0.054 A 
ENDROOT
BRANCH   9  13
ATOM     13  O   LIG    1       -1.889   5.842  -3.312  0.00  0.00    -0.503 OA
ATOM     14  H   LIG    1       -2.840   5.890  -3.481  0.00  0.00    +0.292 HD
ENDBRANCH   9  13
BRANCH  10  15
ATOM     15  O   LIG    1       -1.682   7.151  -0.893  0.00  0.00    -0.503 OA
ATOM     16  H   LIG    1       -2.603   7.386  -0.715  0.00  0.00    +0.292 HD
ENDBRANCH  10  15
BRANCH   1  17
ATOM     17  C   LIG    1       -1.396   3.513   2.517  0.00  0.00    +0.024 C 
BRANCH  17  23
ATOM     18  C   LIG    1       -1.504   1.684   4.222  0.00  0.00    +0.007 A 
ATOM     19  C   LIG    1       -1.090   1.099   5.403  0.00  0.00    +0.045 A 
ATOM     20  C   LIG    1       -0.123   1.719   6.181  0.00  0.00    +0.117 A 
ATOM     21  C   LIG    1        0.431   2.922   5.767  0.00  0.00    +0.045 A 
ATOM     22  C   LIG    1        0.018   3.499   4.582  0.00  0.00    +0.007 A 
ATOM     23  C   LIG    1       -0.947   2.880   3.809  0.00  0.00    -0.048 A 
BRANCH  20  24
ATOM     24  O   LIG    1        0.281   1.149   7.346  0.00  0.00    -0.507 OA
ATOM     25  H   LIG    1       -0.233   1.423   8.118  0.00  0.00    +0.292 HD
ENDBRANCH  20  24
ENDBRANCH  17  23
ENDBRANCH   1  17
TORSDOF 5
