REMARK  Name = ZINC01024890
REMARK                            x       y       z     vdW  Elec       q    Type
REMARK                         _______ _______ _______ _____ _____    ______ ____
ROOT
ATOM      1  C   LIG    1        1.669  -4.049  -0.768  0.00  0.00    -0.045 A 
ATOM      2  C   LIG    1        2.672  -4.663  -0.041  0.00  0.00    +0.004 A 
ATOM      3  C   LIG    1        2.859  -6.030  -0.133  0.00  0.00    +0.002 A 
ATOM      4  C   LIG    1        2.043  -6.787  -0.951  0.00  0.00    +0.024 A 
ATOM      5  C   LIG    1        1.034  -6.173  -1.682  0.00  0.00    +0.048 A 
ATOM      6  C   LIG    1        0.846  -4.800  -1.583  0.00  0.00    +0.028 A 
ENDROOT
BRANCH   5   7
ATOM      7  N   LIG    1        0.208  -6.935  -2.511  0.00  0.00    -0.216 N 
ATOM      8  H   LIG    1        0.011  -6.632  -3.411  0.00  0.00    +0.174 HD
BRANCH   7   9
ATOM      9  S   LIG    1       -0.437  -8.356  -1.956  0.00  0.00    +0.074 S 
ATOM     10  O   LIG    1       -1.235  -8.878  -3.010  0.00  0.00    -0.150 OA
ATOM     11  O   LIG    1       -0.962  -8.087  -0.664  0.00  0.00    -0.150 OA
BRANCH   9  12
ATOM     12  C   LIG    1        0.899  -9.482  -1.732  0.00  0.00    +0.128 A 
ATOM     13  C   LIG    1        1.200  -9.956  -0.469  0.00  0.00    +0.050 A 
ATOM     14  C   LIG    1        2.249 -10.840  -0.292  0.00  0.00    +0.043 A 
ATOM     15 CL   LIG    1        2.627 -11.434   1.294  0.00  0.00    -0.083 Cl
ATOM     16  C   LIG    1        2.998 -11.250  -1.381  0.00  0.00    +0.021 A 
ATOM     17  C   LIG    1        2.698 -10.777  -2.644  0.00  0.00    +0.023 A 
ATOM     18  C   LIG    1        1.645  -9.897  -2.821  0.00  0.00    +0.068 A 
ATOM     19 CL   LIG    1        1.263  -9.309  -4.409  0.00  0.00    -0.082 Cl
ENDBRANCH   9  12
ENDBRANCH   7   9
ENDBRANCH   5   7
BRANCH   1  20
ATOM     20  C   LIG    1        1.469  -2.559  -0.664  0.00  0.00    +0.041 C 
BRANCH  20  21
ATOM     21  C   LIG    1        0.490  -2.253   0.471  0.00  0.00    +0.060 C 
BRANCH  21  26
ATOM     22  C   LIG    1       -1.160   1.133   0.609  0.00  0.00    +0.003 A 
ATOM     23  C   LIG    1       -0.036   1.931   0.762  0.00  0.00    +0.020 A 
ATOM     24  C   LIG    1        1.210   1.336   0.815  0.00  0.00    +0.111 A 
ATOM     25  N   LIG    1        1.337   0.026   0.721  0.00  0.00    -0.260 NA
ATOM     26  C   LIG    1        0.291  -0.763   0.574  0.00  0.00    +0.042 A 
ATOM     27  C   LIG    1       -0.987  -0.239   0.514  0.00  0.00    +0.023 A 
ENDBRANCH  21  26
ENDBRANCH  20  21
ENDBRANCH   1  20
TORSDOF 6
