REMARK  Name = ZINC00870710
REMARK                            x       y       z     vdW  Elec       q    Type
REMARK                         _______ _______ _______ _____ _____    ______ ____
ROOT
ATOM      1  C   LIG    1       -2.768  -4.922   2.000  0.00  0.00    +0.109 A 
ATOM      2  N   LIG    1       -2.848  -6.235   2.143  0.00  0.00    -0.239 NA
ATOM      3  C   LIG    1       -3.530  -6.777   3.133  0.00  0.00    +0.079 A 
ATOM      4  C   LIG    1       -4.170  -5.965   4.034  0.00  0.00    +0.075 A 
ATOM      5  S   LIG    1       -3.736  -4.353   3.392  0.00  0.00    -0.075 S 
ENDROOT
BRANCH   3   6
ATOM      6  C   LIG    1       -3.605  -8.253   3.271  0.00  0.00    +0.001 A 
ATOM      7  C   LIG    1       -4.332  -8.821   4.315  0.00  0.00    +0.011 A 
ATOM      8  C   LIG    1       -4.398 -10.194   4.439  0.00  0.00    +0.016 A 
ATOM      9  C   LIG    1       -3.745 -11.006   3.528  0.00  0.00    +0.018 A 
ATOM     10 BR   LIG    1       -3.841 -12.886   3.703  0.00  0.00    -0.050 Br
ATOM     11  C   LIG    1       -3.022 -10.446   2.489  0.00  0.00    +0.016 A 
ATOM     12  C   LIG    1       -2.953  -9.075   2.353  0.00  0.00    +0.011 A 
ENDBRANCH   3   6
BRANCH   1  15
ATOM     13  C   LIG    1       -1.413  -2.041   0.005  0.00  0.00    +0.042 A 
ATOM     14  C   LIG    1       -2.087  -2.736   0.987  0.00  0.00    +0.034 A 
ATOM     15  C   LIG    1       -2.061  -4.135   0.968  0.00  0.00    +0.010 A 
ATOM     16  C   LIG    1       -1.346  -4.768  -0.055  0.00  0.00    +0.030 A 
ATOM     17  C   LIG    1       -0.700  -3.994  -0.997  0.00  0.00    +0.111 A 
ATOM     18  N   LIG    1       -0.755  -2.677  -0.945  0.00  0.00    -0.260 NA
BRANCH  13  19
ATOM     19  C   LIG    1       -1.433  -0.534   0.013  0.00  0.00    +0.055 C 
BRANCH  19  21
ATOM     20  C   LIG    1       -0.019   1.526   0.010  0.00  0.00    +0.004 C 
ATOM     21  C   LIG    1        0.002  -0.004   0.002  0.00  0.00    +0.003 C 
ENDBRANCH  19  21
ENDBRANCH  13  19
ENDBRANCH   1  15
TORSDOF 4
