REMARK  Name = ZINC00899007
REMARK                            x       y       z     vdW  Elec       q    Type
REMARK                         _______ _______ _______ _____ _____    ______ ____
ROOT
ATOM      1  CA  THR A  1       -0.013   1.086   0.008  0.00  0.00    -0.014 C 
ATOM      2  N   THR A  1        1.363   1.618  -0.007  0.00  0.00    +0.389 N 
ATOM      3  H1  THR A  1        1.403   2.482   0.546  0.00  0.00    -0.085 HD
ATOM      4  H2  THR A  1        2.005   0.925   0.393  0.00  0.00    -0.085 HD
ATOM      5  CA  THR A  1        1.749   1.904  -1.397  0.00  0.00    -0.014 C 
ATOM      6  CB  THR A  1        0.537   1.550  -2.285  0.00  0.00    +0.130 C 
ATOM      7  CG2 THR A  1       -0.655   1.624  -1.295  0.00  0.00    +0.130 C 
ENDROOT
BRANCH   6   8
ATOM      8  OG1 THR A  1        0.383   2.508  -3.334  0.00  0.00    -0.391 OA
ATOM      9  HG1 THR A  1       -0.365   2.332  -3.921  0.00  0.00    +0.210 HD
ENDBRANCH   6   8
BRANCH   7  10
ATOM     10  OG1 THR A  1       -1.728   0.782  -1.722  0.00  0.00    -0.391 OA
ATOM     11  HG1 THR A  1       -2.161   1.079  -2.535  0.00  0.00    +0.210 HD
ENDBRANCH   7  10
BRANCH   1  12
ATOM     12  C   THR A  1       -0.774   1.601   1.231  0.00  0.00    +0.143 C 
BRANCH  12  13
ATOM     13  O   THR A  1       -0.214   1.030   2.416  0.00  0.00    -0.397 OA
ATOM     14  H   THR A  1       -0.648   1.313   3.232  0.00  0.00    +0.209 HD
ENDBRANCH  12  13
ENDBRANCH   1  12
BRANCH   5  15
ATOM     15  C   THR A  1        2.954   1.048  -1.791  0.00  0.00    +0.143 C 
BRANCH  15  16
ATOM     16  O   THR A  1        4.095   1.454  -1.032  0.00  0.00    -0.397 OA
ATOM     17  H   THR A  1        4.898   0.952  -1.230  0.00  0.00    +0.209 HD
ENDBRANCH  15  16
ENDBRANCH   5  15
TORSDOF 6
