REMARK  Name = ZINC01081537
REMARK                            x       y       z     vdW  Elec       q    Type
REMARK                         _______ _______ _______ _____ _____    ______ ____
ROOT
ATOM      1  C   LIG    1        0.606  -0.607  -1.055  0.00  0.00    +0.169 A 
ATOM      2  C   LIG    1        1.170   0.167  -2.057  0.00  0.00    +0.096 A 
ATOM      3  C   LIG    1        1.787  -0.439  -3.139  0.00  0.00    +0.146 A 
ATOM      4  C   LIG    1        1.837  -1.843  -3.211  0.00  0.00    +0.109 A 
ATOM      5  C   LIG    1        1.266  -2.621  -2.198  0.00  0.00    +0.177 A 
ATOM      6  C   LIG    1        2.498  -2.464  -4.371  0.00  0.00    +0.197 A 
ATOM      7  C   LIG    1        3.047  -1.600  -5.348  0.00  0.00    +0.098 A 
ATOM      8  C   LIG    1        2.947  -0.253  -5.184  0.00  0.00    +0.139 A 
ATOM      9  O   LIG    1        2.570  -3.677  -4.486  0.00  0.00    -0.287 OA
ATOM     10  O   LIG    1        2.341   0.302  -4.123  0.00  0.00    -0.454 OA
ATOM     11  C   LIG    1        0.657  -1.998  -1.120  0.00  0.00    +0.204 A 
ENDROOT
BRANCH   8  12
ATOM     12  C   LIG    1        3.526   0.631  -6.213  0.00  0.00    +0.018 A 
ATOM     13  C   LIG    1        4.158   0.084  -7.333  0.00  0.00    +0.015 A 
ATOM     14  C   LIG    1        4.697   0.913  -8.291  0.00  0.00    +0.046 A 
ATOM     15  C   LIG    1        4.614   2.292  -8.146  0.00  0.00    +0.117 A 
ATOM     16  C   LIG    1        3.986   2.841  -7.034  0.00  0.00    +0.046 A 
ATOM     17  C   LIG    1        3.438   2.019  -6.074  0.00  0.00    +0.015 A 
BRANCH  15  18
ATOM     18  O   LIG    1        5.147   3.106  -9.093  0.00  0.00    -0.507 OA
ATOM     19  H   LIG    1        4.533   3.341  -9.801  0.00  0.00    +0.292 HD
ENDBRANCH  15  18
ENDBRANCH   8  12
BRANCH   1  21
ATOM     20  C   LIG    1       -0.017   1.425   0.010  0.00  0.00    +0.277 C 
ATOM     21  O   LIG    1        0.002  -0.004   0.002  0.00  0.00    -0.491 OA
ENDBRANCH   1  21
BRANCH   5  22
ATOM     22  O   LIG    1        1.313  -3.977  -2.267  0.00  0.00    -0.503 OA
ATOM     23  H   LIG    1        2.095  -4.365  -1.851  0.00  0.00    +0.292 HD
ENDBRANCH   5  22
BRANCH  11  24
ATOM     24  O   LIG    1        0.103  -2.746  -0.126  0.00  0.00    -0.488 OA
ATOM     25  C   LIG    1       -1.269  -3.114  -0.279  0.00  0.00    +0.277 C 
ENDBRANCH  11  24
TORSDOF 5
