REMARK  Name = ZINC00780133
REMARK                            x       y       z     vdW  Elec       q    Type
REMARK                         _______ _______ _______ _____ _____    ______ ____
ROOT
ATOM      1  C   LIG    1        3.011   7.478  -3.925  0.00  0.00    +0.000 A 
ATOM      2  C   LIG    1        3.368   7.030  -2.666  0.00  0.00    +0.002 A 
ATOM      3  C   LIG    1        2.398   6.684  -1.748  0.00  0.00    +0.024 A 
ATOM      4  C   LIG    1        1.049   6.783  -2.084  0.00  0.00    +0.043 A 
ATOM      5  C   LIG    1        0.704   7.230  -3.353  0.00  0.00    +0.015 A 
ATOM      6  C   LIG    1       -0.807   7.234  -3.406  0.00  0.00    +0.175 C 
ATOM      7  C   LIG    1       -1.224   6.738  -2.038  0.00  0.00    +0.257 C 
ATOM      8  O   LIG    1       -2.361   6.584  -1.643  0.00  0.00    -0.272 OA
ATOM      9  N   LIG    1       -0.099   6.499  -1.344  0.00  0.00    -0.264 N 
ATOM     10  C   LIG    1        1.674   7.569  -4.270  0.00  0.00    +0.009 A 
ENDROOT
BRANCH   6  11
ATOM     11  O   LIG    1       -1.274   6.348  -4.425  0.00  0.00    -0.374 OA
ATOM     12  H   LIG    1       -2.237   6.266  -4.463  0.00  0.00    +0.211 HD
ENDBRANCH   6  11
BRANCH   6  13
ATOM     13  C   LIG    1       -1.331   8.652  -3.645  0.00  0.00    +0.129 C 
BRANCH  13  14
ATOM     14  C   LIG    1       -2.828   8.668  -3.477  0.00  0.00    +0.173 C 
ATOM     15  O   LIG    1       -3.419   7.646  -3.193  0.00  0.00    -0.291 OA
BRANCH  14  16
ATOM     16  C   LIG    1       -3.545   9.873  -3.649  0.00  0.00    +0.055 A 
ATOM     17  C   LIG    1       -4.913  10.102  -3.546  0.00  0.00    +0.019 A 
ATOM     18  C   LIG    1       -5.348  11.384  -3.761  0.00  0.00    +0.008 A 
ATOM     19  C   LIG    1       -4.441  12.351  -4.069  0.00  0.00    +0.046 A 
ATOM     20  S   LIG    1       -2.932  11.497  -4.063  0.00  0.00    -0.094 S 
ENDBRANCH  14  16
ENDBRANCH  13  14
ENDBRANCH   6  13
BRANCH   9  21
ATOM     21  C   LIG    1       -0.079   6.003   0.035  0.00  0.00    +0.148 C 
BRANCH  21  22
ATOM     22  C   LIG    1       -0.059   4.497   0.026  0.00  0.00    -0.030 A 
ATOM     23  C   LIG    1        1.148   3.822   0.012  0.00  0.00    +0.006 A 
ATOM     24  C   LIG    1        1.167   2.440   0.004  0.00  0.00    +0.020 A 
ATOM     25  C   LIG    1       -0.021   1.732   0.012  0.00  0.00    +0.041 A 
ATOM     26 CL   LIG    1        0.002  -0.004   0.002  0.00  0.00    -0.084 Cl
ATOM     27  C   LIG    1       -1.229   2.407   0.021  0.00  0.00    +0.020 A 
ATOM     28  C   LIG    1       -1.247   3.789   0.034  0.00  0.00    +0.006 A 
ENDBRANCH  21  22
ENDBRANCH   9  21
TORSDOF 6
