REMARK  Name = ZINC00878206
REMARK                            x       y       z     vdW  Elec       q    Type
REMARK                         _______ _______ _______ _____ _____    ______ ____
ROOT
ATOM      1  C   LIG    1       -1.074   1.768  -3.574  0.00  0.00    +0.328 C 
ENDROOT
BRANCH   1   2
ATOM      2  C   LIG    1       -0.409   1.333  -4.855  0.00  0.00    +0.255 C 
ATOM      3  N   LIG    1       -0.933   1.695  -6.043  0.00  0.00    -0.282 N 
ATOM      4  H   LIG    1       -1.772   2.179  -6.075  0.00  0.00    +0.155 HD
ATOM      5  O   LIG    1        0.598   0.658  -4.816  0.00  0.00    -0.272 OA
BRANCH   3   6
ATOM      6  C   LIG    1       -0.269   1.373  -7.223  0.00  0.00    +0.048 A 
ATOM      7  C   LIG    1        0.429   0.177  -7.327  0.00  0.00    +0.024 A 
ATOM      8  C   LIG    1        1.083  -0.143  -8.501  0.00  0.00    +0.002 A 
ATOM      9  C   LIG    1        1.057   0.728  -9.578  0.00  0.00    +0.001 A 
ATOM     10  C   LIG    1        0.374   1.922  -9.491  0.00  0.00    +0.017 A 
ATOM     11  C   LIG    1       -0.297   2.257  -8.312  0.00  0.00    +0.080 A 
BRANCH  11  12
ATOM     12  C   LIG    1       -1.028   3.533  -8.212  0.00  0.00    +0.341 C 
ATOM     13  O   LIG    1       -1.527   3.866  -7.156  0.00  0.00    -0.245 OA
BRANCH  12  14
ATOM     14  O   LIG    1       -1.144   4.330  -9.293  0.00  0.00    -0.464 OA
ATOM     15  C   LIG    1       -1.878   5.570  -9.122  0.00  0.00    +0.280 C 
ENDBRANCH  12  14
ENDBRANCH  11  12
ENDBRANCH   3   6
ENDBRANCH   1   2
BRANCH   1  16
ATOM     16  O   LIG    1       -0.324   1.255  -2.441  0.00  0.00    -0.455 OA
BRANCH  16  17
ATOM     17  C   LIG    1       -0.788   1.556  -1.218  0.00  0.00    +0.318 C 
ATOM     18  O   LIG    1       -1.787   2.225  -1.097  0.00  0.00    -0.250 OA
BRANCH  17  19
ATOM     19  C   LIG    1       -0.062   1.058   0.006  0.00  0.00    +0.197 C 
BRANCH  19  20
ATOM     20  S   LIG    1       -0.926   1.625   1.492  0.00  0.00    -0.075 S 
BRANCH  20  27
ATOM     21  C   LIG    1        3.165  -1.131   2.854  0.00  0.00    +0.066 C 
ATOM     22  C   LIG    1        1.962  -0.328   3.276  0.00  0.00    +0.043 A 
ATOM     23  C   LIG    1        1.676  -0.147   4.621  0.00  0.00    +0.046 A 
ATOM     24  C   LIG    1        0.560   0.598   4.967  0.00  0.00    +0.043 A 
ATOM     25  C   LIG    1        0.211   0.820   6.416  0.00  0.00    +0.066 C 
ATOM     26  N   LIG    1       -0.195   1.113   4.011  0.00  0.00    -0.227 NA
ATOM     27  C   LIG    1        0.106   0.922   2.734  0.00  0.00    +0.189 A 
ATOM     28  N   LIG    1        1.163   0.209   2.369  0.00  0.00    -0.227 NA
ENDBRANCH  20  27
ENDBRANCH  19  20
ENDBRANCH  17  19
ENDBRANCH  16  17
ENDBRANCH   1  16
TORSDOF 9
