REMARK  Name = ZINC01077916
REMARK                            x       y       z     vdW  Elec       q    Type
REMARK                         _______ _______ _______ _____ _____    ______ ____
ROOT
ATOM      1  C   LIG    1        1.169   2.089   0.002  0.00  0.00    +0.007 A 
ATOM      2  C   LIG    1        2.377   1.420  -0.013  0.00  0.00    +0.023 A 
ATOM      3  C   LIG    1        2.400   0.031  -0.021  0.00  0.00    +0.025 A 
ATOM      4  C   LIG    1        1.206  -0.680  -0.013  0.00  0.00    +0.023 A 
ATOM      5  C   LIG    1        0.002  -0.004   0.002  0.00  0.00    +0.007 A 
ATOM      6  C   LIG    1       -0.017   1.379   0.010  0.00  0.00    -0.028 A 
ENDROOT
BRANCH   3   7
ATOM      7  N   LIG    1        3.620  -0.649  -0.037  0.00  0.00    -0.358 N 
ATOM      8  H   LIG    1        4.452  -0.152  -0.042  0.00  0.00    +0.142 HD
ATOM      9  H   LIG    1        3.634  -1.619  -0.042  0.00  0.00    +0.142 HD
ENDBRANCH   3   7
BRANCH   6  10
ATOM     10  C   LIG    1       -1.333   2.113   0.020  0.00  0.00    +0.157 C 
BRANCH  10  11
ATOM     11  N   LIG    1       -1.753   2.343   1.404  0.00  0.00    -0.332 N 
ATOM     12  C   LIG    1       -1.449   3.433   2.175  0.00  0.00    +0.107 A 
ATOM     13  C   LIG    1       -2.033   3.238   3.373  0.00  0.00    +0.130 A 
ATOM     14  N   LIG    1       -2.675   2.062   3.335  0.00  0.00    -0.244 NA
ATOM     15  C   LIG    1       -2.517   1.522   2.157  0.00  0.00    +0.199 A 
ENDBRANCH  10  11
ENDBRANCH   6  10
TORSDOF 3
