REMARK  Name = ZINC01386783
REMARK                            x       y       z     vdW  Elec       q    Type
REMARK                         _______ _______ _______ _____ _____    ______ ____
ROOT
ATOM      1  N   LIG    1        1.364  -2.189   0.173  0.00  0.00    -0.299 N 
ATOM      2  H   LIG    1        0.638  -2.764   0.460  0.00  0.00    +0.154 HD
ENDROOT
BRANCH   1  11
ATOM      3  C   LIG    1        2.134  -6.328   0.581  0.00  0.00    +0.162 A 
ATOM      4  C   LIG    1        1.849  -4.998   0.457  0.00  0.00    +0.062 A 
ATOM      5  C   LIG    1        2.875  -4.095   0.153  0.00  0.00    +0.044 A 
ATOM      6  C   LIG    1        4.200  -4.564  -0.023  0.00  0.00    +0.080 A 
ATOM      7  N   LIG    1        5.165  -3.676  -0.314  0.00  0.00    -0.235 NA
ATOM      8  C   LIG    1        4.882  -2.401  -0.432  0.00  0.00    +0.223 A 
ATOM      9  N   LIG    1        3.659  -1.918  -0.282  0.00  0.00    -0.220 NA
ATOM     10  C   LIG    1        4.470  -5.931   0.109  0.00  0.00    +0.078 A 
ATOM     11  C   LIG    1        2.633  -2.707   0.013  0.00  0.00    +0.134 A 
ATOM     12  C   LIG    1        3.443  -6.799   0.408  0.00  0.00    +0.164 A 
BRANCH   3  14
ATOM     13  C   LIG    1       -0.175  -6.663   1.039  0.00  0.00    +0.277 C 
ATOM     14  O   LIG    1        1.137  -7.205   0.876  0.00  0.00    -0.491 OA
ENDBRANCH   3  14
BRANCH  12  15
ATOM     15  O   LIG    1        3.702  -8.127   0.538  0.00  0.00    -0.491 OA
ATOM     16  C   LIG    1        5.055  -8.545   0.350  0.00  0.00    +0.277 C 
ENDBRANCH  12  15
ENDBRANCH   1  11
BRANCH   1  17
ATOM     17  C   LIG    1        1.124  -0.833  -0.081  0.00  0.00    +0.033 A 
ATOM     18  C   LIG    1        1.802  -0.188  -1.107  0.00  0.00    +0.027 A 
ATOM     19  C   LIG    1        1.564   1.149  -1.357  0.00  0.00    +0.048 A 
ATOM     20  C   LIG    1        0.649   1.848  -0.582  0.00  0.00    +0.129 A 
ATOM     21  C   LIG    1       -0.027   1.204   0.443  0.00  0.00    +0.048 A 
ATOM     22  C   LIG    1        0.209  -0.133   0.694  0.00  0.00    +0.027 A 
BRANCH  20  23
ATOM     23  O   LIG    1        0.416   3.165  -0.829  0.00  0.00    -0.456 OA
BRANCH  23  24
ATOM     24  C   LIG    1        1.108   3.757  -1.837  0.00  0.00    +0.128 A 
ATOM     25  C   LIG    1        2.189   4.579  -1.549  0.00  0.00    +0.046 A 
ATOM     26  C   LIG    1        2.893   5.177  -2.576  0.00  0.00    +0.004 A 
ATOM     27  C   LIG    1        2.516   4.965  -3.890  0.00  0.00    +0.000 A 
ATOM     28  C   LIG    1        1.437   4.150  -4.179  0.00  0.00    +0.004 A 
ATOM     29  C   LIG    1        0.732   3.546  -3.156  0.00  0.00    +0.046 A 
ENDBRANCH  23  24
ENDBRANCH  20  23
ENDBRANCH   1  17
TORSDOF 6
