REMARK  Name = ZINC01170061
REMARK                            x       y       z     vdW  Elec       q    Type
REMARK                         _______ _______ _______ _____ _____    ______ ____
ROOT
ATOM      1  C   LIG    1        6.490  -4.489  -0.087  0.00  0.00    +0.137 C 
ENDROOT
BRANCH   1   2
ATOM      2  C   LIG    1        6.460  -5.913  -0.581  0.00  0.00    +0.022 A 
ATOM      3  C   LIG    1        5.247  -6.595  -0.631  0.00  0.00    +0.030 A 
ATOM      4  C   LIG    1        5.185  -7.883  -1.073  0.00  0.00    +0.051 A 
ATOM      5 CL   LIG    1        3.663  -8.714  -1.127  0.00  0.00    -0.083 Cl
ATOM      6  C   LIG    1        6.361  -8.534  -1.483  0.00  0.00    +0.022 A 
ATOM      7  C   LIG    1        6.338  -9.864  -1.946  0.00  0.00    +0.013 A 
ATOM      8  C   LIG    1        7.519 -10.433  -2.329  0.00  0.00    +0.020 A 
ATOM      9  C   LIG    1        8.701  -9.699  -2.255  0.00  0.00    +0.111 A 
ATOM     10  N   LIG    1        8.718  -8.461  -1.823  0.00  0.00    -0.251 NA
ATOM     11  C   LIG    1        7.598  -7.846  -1.434  0.00  0.00    +0.114 A 
ATOM     12  C   LIG    1        7.621  -6.512  -0.976  0.00  0.00    +0.148 A 
BRANCH  12  13
ATOM     13  O   LIG    1        8.794  -5.829  -0.924  0.00  0.00    -0.504 OA
ATOM     14  H   LIG    1        9.265  -5.919  -0.084  0.00  0.00    +0.292 HD
ENDBRANCH  12  13
ENDBRANCH   1   2
BRANCH   1  15
ATOM     15  C   LIG    1        6.768  -4.476   1.394  0.00  0.00    -0.023 A 
ATOM     16  C   LIG    1        5.748  -4.734   2.291  0.00  0.00    +0.007 A 
ATOM     17  C   LIG    1        6.002  -4.723   3.649  0.00  0.00    +0.020 A 
ATOM     18  C   LIG    1        7.278  -4.453   4.112  0.00  0.00    +0.041 A 
ATOM     19 CL   LIG    1        7.598  -4.438   5.818  0.00  0.00    -0.084 Cl
ATOM     20  C   LIG    1        8.298  -4.195   3.214  0.00  0.00    +0.020 A 
ATOM     21  C   LIG    1        8.044  -4.212   1.855  0.00  0.00    +0.007 A 
ENDBRANCH   1  15
BRANCH   1  23
ATOM     22  C   LIG    1        5.121  -2.520  -0.518  0.00  0.00    +0.251 C 
ATOM     23  N   LIG    1        5.195  -3.855  -0.347  0.00  0.00    -0.302 N 
ATOM     24  H   LIG    1        4.391  -4.395  -0.395  0.00  0.00    +0.150 HD
ATOM     25  O   LIG    1        6.126  -1.844  -0.458  0.00  0.00    -0.272 OA
BRANCH  22  26
ATOM     26  C   LIG    1        3.789  -1.867  -0.785  0.00  0.00    +0.324 C 
BRANCH  26  27
ATOM     27  O   LIG    1        3.970  -0.457  -0.929  0.00  0.00    -0.483 OA
BRANCH  27  31
ATOM     28  C   LIG    1        0.597   1.797  -1.679  0.00  0.00    +0.000 A 
ATOM     29  C   LIG    1        1.831   2.413  -1.578  0.00  0.00    +0.004 A 
ATOM     30  C   LIG    1        2.962   1.661  -1.327  0.00  0.00    +0.045 A 
ATOM     31  C   LIG    1        2.859   0.285  -1.176  0.00  0.00    +0.121 A 
ATOM     32  C   LIG    1        1.620  -0.331  -1.277  0.00  0.00    +0.045 A 
ATOM     33  C   LIG    1        0.492   0.426  -1.528  0.00  0.00    +0.004 A 
ENDBRANCH  27  31
ENDBRANCH  26  27
ENDBRANCH  22  26
ENDBRANCH   1  23
TORSDOF 7
