REMARK  Name = ZINC00941058
REMARK                            x       y       z     vdW  Elec       q    Type
REMARK                         _______ _______ _______ _____ _____    ______ ____
ROOT
ATOM      1  C   LIG    1       -2.065   1.841   5.837  0.00  0.00    +0.241 C 
ATOM      2  N   LIG    1       -1.289   1.180   4.956  0.00  0.00    -0.276 N 
ATOM      3  H   LIG    1       -0.734   0.443   5.256  0.00  0.00    +0.156 HD
ATOM      4  O   LIG    1       -2.761   2.766   5.460  0.00  0.00    -0.270 OA
ENDROOT
BRANCH   2   5
ATOM      5  C   LIG    1       -1.283   1.552   3.622  0.00  0.00    +0.085 A 
ATOM      6  C   LIG    1       -0.558   0.999   2.575  0.00  0.00    +0.068 A 
ATOM      7  C   LIG    1       -0.732   1.580   1.257  0.00  0.00    -0.023 A 
ATOM      8  C   LIG    1       -1.601   2.615   1.194  0.00  0.00    -0.004 A 
ATOM      9  C   LIG    1       -1.979   3.405  -0.021  0.00  0.00    +0.043 C 
ATOM     10  C   LIG    1       -0.956   3.111  -1.127  0.00  0.00    +0.005 C 
ATOM     11  C   LIG    1       -0.758   1.595  -1.227  0.00  0.00    +0.005 C 
ATOM     12  C   LIG    1       -0.013   1.086   0.008  0.00  0.00    +0.037 C 
ATOM     13  S   LIG    1       -2.179   2.821   2.855  0.00  0.00    -0.077 S 
BRANCH   6  14
ATOM     14  C   LIG    1        0.351  -0.130   2.793  0.00  0.00    +0.244 C 
ATOM     15  N   LIG    1        1.643   0.095   3.104  0.00  0.00    -0.325 N 
ATOM     16  H   LIG    1        2.245  -0.652   3.248  0.00  0.00    +0.145 HD
ATOM     17  H   LIG    1        1.971   1.005   3.184  0.00  0.00    +0.145 HD
ATOM     18  O   LIG    1       -0.061  -1.272   2.693  0.00  0.00    -0.270 OA
ENDBRANCH   6  14
ENDBRANCH   2   5
BRANCH   1  20
ATOM     19  C   LIG    1       -2.849   2.111   8.127  0.00  0.00    +0.013 C 
ATOM     20  C   LIG    1       -2.071   1.448   7.245  0.00  0.00    +0.068 C 
BRANCH  19  24
ATOM     21  C   LIG    1       -2.863   0.966  12.214  0.00  0.00    +0.162 A 
ATOM     22  C   LIG    1       -2.064   0.285  11.306  0.00  0.00    +0.050 A 
ATOM     23  C   LIG    1       -2.056   0.653   9.979  0.00  0.00    +0.012 A 
ATOM     24  C   LIG    1       -2.856   1.716   9.543  0.00  0.00    -0.021 A 
ATOM     25  C   LIG    1       -3.657   2.405  10.461  0.00  0.00    +0.057 A 
ATOM     26  C   LIG    1       -3.662   2.026  11.788  0.00  0.00    +0.162 A 
BRANCH  21  28
ATOM     27  C   LIG    1       -2.024  -0.496  13.890  0.00  0.00    +0.277 C 
ATOM     28  O   LIG    1       -2.867   0.598  13.522  0.00  0.00    -0.491 OA
ENDBRANCH  21  28
BRANCH  26  29
ATOM     29  O   LIG    1       -4.444   2.690  12.682  0.00  0.00    -0.491 OA
ATOM     30  C   LIG    1       -5.237   3.766  12.176  0.00  0.00    +0.277 C 
ENDBRANCH  26  29
ENDBRANCH  19  24
ENDBRANCH   1  20
TORSDOF 6
