REMARK  Name = ZINC01318428
REMARK                            x       y       z     vdW  Elec       q    Type
REMARK                         _______ _______ _______ _____ _____    ______ ____
ROOT
ATOM      1  C   LIG    1        5.342  -1.618   1.575  0.00  0.00    +0.150 A 
ATOM      2  C   LIG    1        5.777  -1.867   2.888  0.00  0.00    +0.147 A 
ATOM      3  C   LIG    1        6.994  -2.547   3.066  0.00  0.00    +0.167 A 
ATOM      4  N   LIG    1        7.173  -2.653   4.421  0.00  0.00    -0.286 N 
ATOM      5  C   LIG    1        6.104  -2.058   5.023  0.00  0.00    +0.203 A 
ATOM      6  N   LIG    1        7.683  -2.927   1.995  0.00  0.00    -0.216 NA
ATOM      7  C   LIG    1        7.236  -2.673   0.783  0.00  0.00    +0.225 A 
ATOM      8  N   LIG    1        5.286  -1.598   4.122  0.00  0.00    -0.231 NA
ATOM      9  N   LIG    1        6.097  -2.041   0.567  0.00  0.00    -0.219 NA
ENDROOT
BRANCH   4  10
ATOM     10  C1* LIG    1        8.306  -3.289   5.099  0.00  0.00    +0.253 C 
ATOM     11  C2* LIG    1        9.462  -2.280   5.275  0.00  0.00    +0.195 C 
ATOM     12  C3* LIG    1       10.057  -2.628   6.659  0.00  0.00    +0.178 C 
ATOM     13  C4* LIG    1        9.189  -3.806   7.154  0.00  0.00    +0.177 C 
ATOM     14  O4* LIG    1        7.939  -3.671   6.442  0.00  0.00    -0.346 OA
BRANCH  11  15
ATOM     15  O2* LIG    1       10.441  -2.454   4.249  0.00  0.00    -0.385 OA
ATOM     16  H2* LIG    1       11.190  -1.846   4.311  0.00  0.00    +0.210 HD
ENDBRANCH  11  15
BRANCH  12  17
ATOM     17  O3* LIG    1       11.423  -3.027   6.530  0.00  0.00    -0.386 OA
ATOM     18  H3* LIG    1       11.845  -3.257   7.369  0.00  0.00    +0.210 HD
ENDBRANCH  12  17
BRANCH  13  19
ATOM     19  C5* LIG    1        8.960  -3.701   8.663  0.00  0.00    +0.190 C 
BRANCH  19  20
ATOM     20  O5* LIG    1        8.257  -4.858   9.120  0.00  0.00    -0.392 OA
ATOM     21  H5* LIG    1        8.076  -4.860  10.070  0.00  0.00    +0.210 HD
ENDBRANCH  19  20
ENDBRANCH  13  19
ENDBRANCH   4  10
BRANCH   1  22
ATOM     22  N   LIG    1        4.152  -0.952   1.338  0.00  0.00    -0.323 N 
ATOM     23  H   LIG    1        3.610  -0.648   2.082  0.00  0.00    +0.148 HD
BRANCH  22  24
ATOM     24  C   LIG    1        3.711  -0.707  -0.038  0.00  0.00    +0.138 C 
BRANCH  24  28
ATOM     25  C   LIG    1       -0.017   1.378   0.010  0.00  0.00    +0.000 A 
ATOM     26  C   LIG    1        1.171   2.086   0.002  0.00  0.00    +0.000 A 
ATOM     27  C   LIG    1        2.377   1.411  -0.013  0.00  0.00    +0.005 A 
ATOM     28  C   LIG    1        2.396   0.029  -0.020  0.00  0.00    -0.030 A 
ATOM     29  C   LIG    1        1.208  -0.679  -0.012  0.00  0.00    +0.005 A 
ATOM     30  C   LIG    1        0.002  -0.004   0.002  0.00  0.00    +0.000 A 
ENDBRANCH  24  28
ENDBRANCH  22  24
ENDBRANCH   1  22
TORSDOF 8
