REMARK  Name = ZINC00812573
REMARK                            x       y       z     vdW  Elec       q    Type
REMARK                         _______ _______ _______ _____ _____    ______ ____
ROOT
ATOM      1  N   LIG    1        1.651  -4.999  -0.034  0.00  0.00    -0.112 N 
ATOM      2  C   LIG    1        2.413  -5.215  -1.138  0.00  0.00    +0.143 A 
ATOM      3  C   LIG    1        3.653  -5.584  -0.715  0.00  0.00    +0.114 A 
ATOM      4  C   LIG    1        3.643  -5.593   0.686  0.00  0.00    +0.246 A 
ATOM      5  N   LIG    1        2.448  -5.239   1.093  0.00  0.00    -0.110 NA
ENDROOT
BRANCH   1   6
ATOM      6  S   LIG    1        0.063  -4.530  -0.023  0.00  0.00    +0.101 S 
ATOM      7  O   LIG    1       -0.490  -4.937  -1.267  0.00  0.00    -0.146 OA
ATOM      8  O   LIG    1       -0.476  -4.950   1.223  0.00  0.00    -0.146 OA
BRANCH   6  13
ATOM      9  C   LIG    1       -0.018   1.503   0.010  0.00  0.00    +0.044 C 
ATOM     10  C   LIG    1        0.002  -0.004   0.002  0.00  0.00    -0.050 A 
ATOM     11  C   LIG    1        0.006  -0.689  -1.199  0.00  0.00    +0.005 A 
ATOM     12  C   LIG    1        0.025  -2.071  -1.206  0.00  0.00    +0.029 A 
ATOM     13  C   LIG    1        0.040  -2.768  -0.013  0.00  0.00    +0.113 A 
ATOM     14  C   LIG    1        0.037  -2.084   1.188  0.00  0.00    +0.029 A 
ATOM     15  C   LIG    1        0.023  -0.702   1.195  0.00  0.00    +0.005 A 
ENDBRANCH   6  13
ENDBRANCH   1   6
BRANCH   2  16
ATOM     16  N   LIG    1        2.000  -5.082  -2.461  0.00  0.00    -0.342 N 
ATOM     17  H   LIG    1        2.623  -5.259  -3.183  0.00  0.00    +0.144 HD
ATOM     18  H   LIG    1        1.090  -4.812  -2.660  0.00  0.00    +0.144 HD
ENDBRANCH   2  16
BRANCH   4  19
ATOM     19  O   LIG    1        4.694  -5.911   1.488  0.00  0.00    -0.402 OA
BRANCH  19  20
ATOM     20  C   LIG    1        4.509  -5.867   2.823  0.00  0.00    +0.352 C 
ATOM     21  O   LIG    1        3.425  -5.551   3.277  0.00  0.00    -0.244 OA
BRANCH  20  22
ATOM     22  C   LIG    1        5.611  -6.201   3.727  0.00  0.00    +0.097 A 
ATOM     23  C   LIG    1        5.628  -6.224   5.114  0.00  0.00    +0.023 A 
ATOM     24  C   LIG    1        6.824  -6.580   5.690  0.00  0.00    +0.008 A 
ATOM     25  C   LIG    1        7.878  -6.878   4.890  0.00  0.00    +0.046 A 
ATOM     26  S   LIG    1        7.279  -6.691   3.332  0.00  0.00    -0.090 S 
ENDBRANCH  20  22
ENDBRANCH  19  20
ENDBRANCH   4  19
TORSDOF 6
