REMARK  Name = ZINC00898438
REMARK                            x       y       z     vdW  Elec       q    Type
REMARK                         _______ _______ _______ _____ _____    ______ ____
ROOT
ATOM      1  C   LIG    1        0.623   1.516  -0.042  0.00  0.00    -0.095 C 
ATOM      2  N   LIG    1        0.421   0.062  -0.013  0.00  0.00    +0.383 N 
ATOM      3  H   LIG    1       -0.563  -0.138   0.086  0.00  0.00    -0.081 HD
ATOM      4  C   LIG    1        0.913  -0.523  -1.261  0.00  0.00    -0.074 C 
ATOM      5  C   LIG    1        0.547  -1.996  -1.349  0.00  0.00    +0.017 C 
ATOM      6  C   LIG    1        0.679  -2.692  -0.024  0.00  0.00    -0.043 A 
ATOM      7  C   LIG    1        0.518  -4.072   0.011  0.00  0.00    +0.053 A 
ATOM      8  C   LIG    1        0.652  -4.772   1.196  0.00  0.00    +0.162 A 
ATOM      9  C   LIG    1        0.947  -4.090   2.371  0.00  0.00    +0.167 A 
ATOM     10  C   LIG    1        1.088  -2.704   2.342  0.00  0.00    +0.029 A 
ATOM     11  C   LIG    1        1.401  -1.958   3.584  0.00  0.00    -0.007 A 
ATOM     12  C   LIG    1        1.896  -2.619   4.704  0.00  0.00    +0.058 A 
ATOM     13  C   LIG    1        2.199  -1.901   5.848  0.00  0.00    +0.159 A 
ATOM     14  C   LIG    1        2.008  -0.522   5.873  0.00  0.00    +0.162 A 
ATOM     15  C   LIG    1        1.508   0.134   4.758  0.00  0.00    +0.053 A 
ATOM     16  C   LIG    1        1.196  -0.580   3.619  0.00  0.00    -0.037 A 
ATOM     17  C   LIG    1        0.632   0.119   2.413  0.00  0.00    +0.025 C 
ATOM     18  C   LIG    1        0.960  -2.006   1.138  0.00  0.00    -0.046 A 
ATOM     19  C   LIG    1        1.154  -0.512   1.124  0.00  0.00    -0.033 C 
ENDROOT
BRANCH   8  20
ATOM     20  O   LIG    1        0.494  -6.123   1.213  0.00  0.00    -0.491 OA
ATOM     21  C   LIG    1        0.192  -6.756  -0.032  0.00  0.00    +0.277 C 
ENDBRANCH   8  20
BRANCH   9  22
ATOM     22  O   LIG    1        1.097  -4.769   3.539  0.00  0.00    -0.503 OA
ATOM     23  H   LIG    1        0.266  -4.943   4.002  0.00  0.00    +0.292 HD
ENDBRANCH   9  22
BRANCH  13  24
ATOM     24  O   LIG    1        2.681  -2.541   6.946  0.00  0.00    -0.503 OA
ATOM     25  H   LIG    1        3.645  -2.608   6.971  0.00  0.00    +0.292 HD
ENDBRANCH  13  24
BRANCH  14  26
ATOM     26  O   LIG    1        2.315   0.185   6.994  0.00  0.00    -0.491 OA
ATOM     27  C   LIG    1        2.095   1.596   6.952  0.00  0.00    +0.277 C 
ENDBRANCH  14  26
TORSDOF 4
