REMARK  Name = ZINC01275236
REMARK                            x       y       z     vdW  Elec       q    Type
REMARK                         _______ _______ _______ _____ _____    ______ ____
ROOT
ATOM      1  C   LIG    1       -2.500   0.981  -0.132  0.00  0.00    +0.169 A 
ATOM      2  N   LIG    1       -2.641  -0.302   0.108  0.00  0.00    -0.128 NA
ATOM      3  N   LIG    1       -3.887  -0.594   0.226  0.00  0.00    -0.122 NA
ATOM      4  C   LIG    1       -4.621   0.485   0.069  0.00  0.00    +0.197 A 
ATOM      5  N   LIG    1       -3.764   1.528  -0.159  0.00  0.00    -0.270 N 
ENDROOT
BRANCH   1   9
ATOM      6  C   LIG    1        1.163   3.060  -0.694  0.00  0.00    +0.120 A 
ATOM      7  C   LIG    1       -0.031   3.636  -1.109  0.00  0.00    +0.046 A 
ATOM      8  C   LIG    1       -1.221   2.963  -0.932  0.00  0.00    +0.015 A 
ATOM      9  C   LIG    1       -1.226   1.704  -0.329  0.00  0.00    +0.020 A 
ATOM     10  C   LIG    1       -0.023   1.126   0.083  0.00  0.00    +0.015 A 
ATOM     11  C   LIG    1        1.163   1.805  -0.099  0.00  0.00    +0.046 A 
BRANCH   6  13
ATOM     12  C   LIG    1        3.524   3.076  -0.421  0.00  0.00    +0.277 C 
ATOM     13  O   LIG    1        2.334   3.726  -0.871  0.00  0.00    -0.495 OA
ENDBRANCH   6  13
ENDBRANCH   1   9
BRANCH   5  14
ATOM     14  C   LIG    1       -4.103   2.871  -0.376  0.00  0.00    +0.051 A 
ATOM     15  C   LIG    1       -3.780   3.832   0.572  0.00  0.00    +0.026 A 
ATOM     16  C   LIG    1       -4.109   5.155   0.352  0.00  0.00    +0.002 A 
ATOM     17  C   LIG    1       -4.770   5.521  -0.805  0.00  0.00    +0.000 A 
ATOM     18  C   LIG    1       -5.099   4.566  -1.749  0.00  0.00    +0.002 A 
ATOM     19  C   LIG    1       -4.767   3.242  -1.538  0.00  0.00    +0.026 A 
ENDBRANCH   5  14
BRANCH   4  20
ATOM     20  S   LIG    1       -6.379   0.573   0.144  0.00  0.00    -0.078 S 
BRANCH  20  21
ATOM     21  C   LIG    1       -6.767  -1.163   0.478  0.00  0.00    +0.157 C 
BRANCH  21  22
ATOM     22  C   LIG    1       -8.260  -1.332   0.587  0.00  0.00    +0.173 C 
ATOM     23  O   LIG    1       -8.991  -0.373   0.451  0.00  0.00    -0.291 OA
BRANCH  22  24
ATOM     24  C   LIG    1       -8.831  -2.658   0.856  0.00  0.00    +0.022 A 
ATOM     25  C   LIG    1       -7.990  -3.767   1.007  0.00  0.00    +0.015 A 
ATOM     26  C   LIG    1       -8.528  -5.008   1.266  0.00  0.00    +0.050 A 
ATOM     27  C   LIG    1       -9.905  -5.166   1.365  0.00  0.00    +0.158 A 
ATOM     28  C   LIG    1      -10.749  -4.067   1.210  0.00  0.00    +0.159 A 
ATOM     29  C   LIG    1      -10.219  -2.818   0.957  0.00  0.00    +0.060 A 
BRANCH  27  30
ATOM     30  O   LIG    1      -10.429  -6.393   1.615  0.00  0.00    -0.503 OA
ATOM     31  H   LIG    1      -10.626  -6.905   0.819  0.00  0.00    +0.292 HD
ENDBRANCH  27  30
BRANCH  28  32
ATOM     32  O   LIG    1      -12.097  -4.226   1.309  0.00  0.00    -0.503 OA
ATOM     33  H   LIG    1      -12.531  -4.428   0.469  0.00  0.00    +0.292 HD
ENDBRANCH  28  32
ENDBRANCH  22  24
ENDBRANCH  21  22
ENDBRANCH  20  21
ENDBRANCH   4  20
TORSDOF 9
