REMARK  Name = ZINC00972753
REMARK                            x       y       z     vdW  Elec       q    Type
REMARK                         _______ _______ _______ _____ _____    ______ ____
ROOT
ATOM      1  N   LIG    1       -2.202   1.191   0.019  0.00  0.00    -0.082 NA
ATOM      2  C   LIG    1       -3.363   1.763   0.028  0.00  0.00    +0.161 C 
ENDROOT
BRANCH   2   3
ATOM      3  C   LIG    1       -4.589   0.943   0.029  0.00  0.00    -0.004 A 
ATOM      4  C   LIG    1       -4.499  -0.451   0.015  0.00  0.00    +0.013 A 
ATOM      5  C   LIG    1       -5.647  -1.214   0.022  0.00  0.00    +0.046 A 
ATOM      6  C   LIG    1       -6.892  -0.598   0.031  0.00  0.00    +0.117 A 
ATOM      7  C   LIG    1       -6.986   0.788   0.040  0.00  0.00    +0.046 A 
ATOM      8  C   LIG    1       -5.844   1.558   0.038  0.00  0.00    +0.013 A 
BRANCH   6   9
ATOM      9  O   LIG    1       -8.021  -1.353   0.032  0.00  0.00    -0.507 OA
ATOM     10  H   LIG    1       -8.352  -1.566  -0.852  0.00  0.00    +0.292 HD
ENDBRANCH   6   9
ENDBRANCH   2   3
BRANCH   1  11
ATOM     11  O   LIG    1       -1.190   1.868   0.018  0.00  0.00    -0.312 OA
BRANCH  11  12
ATOM     12  C   LIG    1       -0.014   1.211   0.009  0.00  0.00    +0.366 C 
ATOM     13  O   LIG    1        0.002  -0.004   0.002  0.00  0.00    -0.243 OA
BRANCH  12  17
ATOM     14  C   LIG    1        3.634   3.384  -0.014  0.00  0.00    +0.000 A 
ATOM     15  C   LIG    1        3.656   2.000  -0.022  0.00  0.00    +0.001 A 
ATOM     16  C   LIG    1        2.475   1.288  -0.015  0.00  0.00    +0.015 A 
ATOM     17  C   LIG    1        1.255   1.967   0.001  0.00  0.00    +0.061 A 
ATOM     18  C   LIG    1        1.239   3.363   0.003  0.00  0.00    +0.015 A 
ATOM     19  C   LIG    1        2.428   4.062   0.001  0.00  0.00    +0.001 A 
ENDBRANCH  12  17
ENDBRANCH  11  12
ENDBRANCH   1  11
TORSDOF 5
