REMARK  Name = ZINC00753111
REMARK                            x       y       z     vdW  Elec       q    Type
REMARK                         _______ _______ _______ _____ _____    ______ ____
ROOT
ATOM      1  C   LIG    1       -3.026   1.962   0.043  0.00  0.00    +0.089 A 
ATOM      2  C   LIG    1       -4.313   2.403   0.183  0.00  0.00    +0.077 A 
ATOM      3  S   LIG    1       -4.999   1.940  -1.401  0.00  0.00    -0.060 S 
ATOM      4  C   LIG    1       -3.517   1.213  -2.085  0.00  0.00    +0.163 A 
ATOM      5  N   LIG    1       -2.658   1.380  -1.096  0.00  0.00    -0.224 NA
ENDROOT
BRANCH   1   8
ATOM      6  C   LIG    1       -0.057   1.086   0.051  0.00  0.00    +0.067 C 
ATOM      7  C   LIG    1       -0.732   1.773   1.210  0.00  0.00    +0.055 A 
ATOM      8  C   LIG    1       -2.052   2.137   1.143  0.00  0.00    +0.061 A 
ATOM      9  S   LIG    1       -2.269   2.878   2.755  0.00  0.00    -0.071 S 
ATOM     10  C   LIG    1       -0.646   2.647   3.329  0.00  0.00    +0.076 A 
ATOM     11  C   LIG    1       -0.050   3.037   4.657  0.00  0.00    +0.073 C 
ATOM     12  N   LIG    1       -0.071   2.048   2.312  0.00  0.00    -0.249 NA
ENDBRANCH   1   8
BRANCH   4  13
ATOM     13  N   LIG    1       -3.319   0.632  -3.328  0.00  0.00    -0.294 N 
ATOM     14  H   LIG    1       -2.429   0.358  -3.600  0.00  0.00    +0.154 HD
BRANCH  13  15
ATOM     15  C   LIG    1       -4.402   0.440  -4.191  0.00  0.00    +0.033 A 
ATOM     16  C   LIG    1       -5.660   0.154  -3.675  0.00  0.00    +0.024 A 
ATOM     17  C   LIG    1       -6.730  -0.029  -4.529  0.00  0.00    +0.017 A 
ATOM     18  C   LIG    1       -6.547   0.061  -5.898  0.00  0.00    +0.018 A 
ATOM     19 BR   LIG    1       -8.013  -0.197  -7.065  0.00  0.00    -0.050 Br
ATOM     20  C   LIG    1       -5.294   0.341  -6.415  0.00  0.00    +0.017 A 
ATOM     21  C   LIG    1       -4.222   0.530  -5.565  0.00  0.00    +0.024 A 
ENDBRANCH  13  15
ENDBRANCH   4  13
TORSDOF 3
