REMARK  Name = ZINC00968330
REMARK                            x       y       z     vdW  Elec       q    Type
REMARK                         _______ _______ _______ _____ _____    ______ ____
ROOT
ATOM      1  C   LIG    1       -3.335  -2.240   1.041  0.00  0.00    +0.121 A 
ATOM      2  C   LIG    1       -3.976  -1.747   2.169  0.00  0.00    +0.046 A 
ATOM      3  C   LIG    1       -5.285  -2.102   2.428  0.00  0.00    +0.007 A 
ATOM      4  C   LIG    1       -5.957  -2.947   1.565  0.00  0.00    -0.046 A 
ATOM      5  C   LIG    1       -5.321  -3.440   0.440  0.00  0.00    +0.007 A 
ATOM      6  C   LIG    1       -4.013  -3.084   0.174  0.00  0.00    +0.046 A 
ENDROOT
BRANCH   1   7
ATOM      7  O   LIG    1       -2.046  -1.892   0.784  0.00  0.00    -0.491 OA
BRANCH   7   8
ATOM      8  C   LIG    1       -1.411  -1.020   1.720  0.00  0.00    +0.244 C 
BRANCH   8   9
ATOM      9  C   LIG    1        0.024  -0.743   1.267  0.00  0.00    +0.126 C 
BRANCH   9  11
ATOM     10  C   LIG    1       -0.018   1.461   0.010  0.00  0.00    +0.106 C 
ATOM     11  N   LIG    1        0.002  -0.004   0.002  0.00  0.00    -0.287 NA
BRANCH  11  12
ATOM     12  C   LIG    1        0.000  -0.693  -1.206  0.00  0.00    +0.124 C 
ATOM     13  C   LIG    1        0.013  -2.084  -1.206  0.00  0.00    +0.035 C 
ATOM     14  C   LIG    1        0.011  -2.756  -2.415  0.00  0.00    +0.004 C 
ATOM     15  C   LIG    1       -0.004  -2.012  -3.587  0.00  0.00    +0.015 C 
ATOM     16  C   LIG    1       -0.017  -0.633  -3.513  0.00  0.00    +0.082 C 
ATOM     17  N   LIG    1       -0.020  -0.019  -2.345  0.00  0.00    -0.301 NA
ATOM     18  H   LIG    1       -0.033   0.951  -2.321  0.00  0.00    +0.123 HD
ENDBRANCH  11  12
ENDBRANCH   9  11
ENDBRANCH   8   9
ENDBRANCH   7   8
ENDBRANCH   1   7
BRANCH   4  19
ATOM     19  C   LIG    1       -7.386  -3.333   1.850  0.00  0.00    +0.059 C 
BRANCH  19  20
ATOM     20  C   LIG    1       -8.328  -2.325   1.188  0.00  0.00    +0.146 C 
ATOM     21  C   LIG    1       -9.786  -2.662   1.470  0.00  0.00    +0.234 C 
ATOM     22  N   LIG    1      -10.517  -2.947   0.405  0.00  0.00    -0.246 N 
ATOM     23  H   LIG    1      -11.452  -3.169   0.536  0.00  0.00    +0.158 HD
ATOM     24  C   LIG    1      -10.032  -2.947  -0.850  0.00  0.00    +0.279 C 
ATOM     25  O   LIG    1      -10.624  -3.194  -1.883  0.00  0.00    -0.263 OA
ATOM     26  O   LIG    1      -10.245  -2.669   2.592  0.00  0.00    -0.274 OA
ATOM     27  S   LIG    1       -8.313  -2.497  -0.645  0.00  0.00    -0.054 S 
ENDBRANCH  19  20
ENDBRANCH   4  19
TORSDOF 7
