REMARK  Name = ZINC01238258
REMARK                            x       y       z     vdW  Elec       q    Type
REMARK                         _______ _______ _______ _____ _____    ______ ____
ROOT
ATOM      1  C   LIG    1        3.618   2.203  -0.162  0.00  0.00    -0.014 A 
ATOM      2  C   LIG    1        4.827   1.516  -0.067  0.00  0.00    +0.009 A 
ATOM      3  C   LIG    1        6.011   2.215   0.047  0.00  0.00    +0.004 A 
ATOM      4  C   LIG    1        6.003   3.597   0.068  0.00  0.00    +0.046 A 
ATOM      5  C   LIG    1        4.804   4.289  -0.026  0.00  0.00    +0.134 A 
ATOM      6  C   LIG    1        3.611   3.595  -0.147  0.00  0.00    +0.055 A 
ENDROOT
BRANCH   1   9
ATOM      7  C   LIG    1       -0.053   1.446  -0.502  0.00  0.00    +0.001 A 
ATOM      8  C   LIG    1        1.135   2.142  -0.386  0.00  0.00    +0.008 A 
ATOM      9  C   LIG    1        2.344   1.453  -0.285  0.00  0.00    -0.017 A 
ATOM     10  C   LIG    1        2.352   0.062  -0.301  0.00  0.00    +0.021 A 
ATOM     11  C   LIG    1        1.151  -0.635  -0.417  0.00  0.00    +0.037 A 
ATOM     12  C   LIG    1       -0.052   0.066  -0.518  0.00  0.00    +0.013 A 
BRANCH  11  13
ATOM     13  C   LIG    1        1.151  -2.114  -0.435  0.00  0.00    +0.242 C 
ATOM     14  N   LIG    1       -0.011  -2.786  -0.548  0.00  0.00    -0.325 N 
ATOM     15  H   LIG    1       -0.011  -3.756  -0.559  0.00  0.00    +0.145 HD
ATOM     16  H   LIG    1       -0.848  -2.301  -0.617  0.00  0.00    +0.145 HD
ATOM     17  O   LIG    1        2.200  -2.723  -0.348  0.00  0.00    -0.270 OA
ENDBRANCH  11  13
ENDBRANCH   1   9
BRANCH   5  18
ATOM     18  O   LIG    1        4.800   5.649  -0.005  0.00  0.00    -0.412 OA
BRANCH  18  19
ATOM     19  C   LIG    1        4.301   6.263   1.085  0.00  0.00    +0.406 C 
ATOM     20  N   LIG    1        4.167   7.603   1.101  0.00  0.00    -0.278 N 
ATOM     21  H   LIG    1        4.429   8.126   0.327  0.00  0.00    +0.152 HD
ATOM     22  O   LIG    1        3.971   5.607   2.054  0.00  0.00    -0.226 OA
BRANCH  20  23
ATOM     23  C   LIG    1        3.624   8.271   2.286  0.00  0.00    +0.076 C 
ATOM     24  C   LIG    1        4.750   8.519   3.292  0.00  0.00    +0.022 C 
ATOM     25  C   LIG    1        4.183   9.216   4.530  0.00  0.00    +0.002 C 
ATOM     26  C   LIG    1        3.560  10.553   4.123  0.00  0.00    +0.000 C 
ATOM     27  C   LIG    1        2.434  10.306   3.116  0.00  0.00    +0.002 C 
ATOM     28  C   LIG    1        3.001   9.608   1.878  0.00  0.00    +0.022 C 
ENDBRANCH  20  23
ENDBRANCH  18  19
ENDBRANCH   5  18
TORSDOF 5
