REMARK  Name = ZINC01336315
REMARK                            x       y       z     vdW  Elec       q    Type
REMARK                         _______ _______ _______ _____ _____    ______ ____
ROOT
ATOM      1  C   LIG    1        1.250  -2.160  -0.022  0.00  0.00    +0.249 C 
ATOM      2  N   LIG    1        0.097  -2.851  -0.116  0.00  0.00    -0.297 N 
ATOM      3  C   LIG    1       -1.190  -2.149  -0.216  0.00  0.00    +0.109 C 
ATOM      4  C   LIG    1       -2.125  -2.674   0.878  0.00  0.00    +0.030 C 
ATOM      5  C   LIG    1       -2.229  -4.197   0.768  0.00  0.00    +0.063 C 
ATOM      6  C   LIG    1       -0.846  -4.820   0.973  0.00  0.00    +0.030 C 
ATOM      7  C   LIG    1        0.103  -4.320  -0.126  0.00  0.00    +0.109 C 
ATOM      8  O   LIG    1        1.226  -0.950   0.092  0.00  0.00    -0.270 OA
ENDROOT
BRANCH   1  14
ATOM      9  C   LIG    1        4.046  -4.403  -1.138  0.00  0.00    +0.001 A 
ATOM     10  C   LIG    1        4.968  -4.211  -0.124  0.00  0.00    +0.003 A 
ATOM     11  C   LIG    1        4.686  -3.355   0.924  0.00  0.00    +0.039 A 
ATOM     12  C   LIG    1        3.478  -2.683   0.965  0.00  0.00    +0.135 A 
ATOM     13  F   LIG    1        3.202  -1.846   1.989  0.00  0.00    -0.205 F 
ATOM     14  C   LIG    1        2.543  -2.873  -0.057  0.00  0.00    +0.072 A 
ATOM     15  C   LIG    1        2.837  -3.741  -1.111  0.00  0.00    +0.016 A 
ENDBRANCH   1  14
BRANCH   5  16
ATOM     16  C   LIG    1       -3.174  -4.713   1.823  0.00  0.00    +0.166 C 
ATOM     17  O   LIG    1       -3.357  -4.075   2.837  0.00  0.00    -0.292 OA
BRANCH  16  18
ATOM     18  C   LIG    1       -3.874  -5.990   1.621  0.00  0.00    +0.018 A 
ATOM     19  C   LIG    1       -3.660  -6.731   0.453  0.00  0.00    +0.014 A 
ATOM     20  C   LIG    1       -4.319  -7.927   0.270  0.00  0.00    +0.039 A 
ATOM     21  C   LIG    1       -5.193  -8.396   1.240  0.00  0.00    +0.123 A 
ATOM     22  F   LIG    1       -5.837  -9.570   1.054  0.00  0.00    -0.205 F 
ATOM     23  C   LIG    1       -5.409  -7.666   2.399  0.00  0.00    +0.039 A 
ATOM     24  C   LIG    1       -4.752  -6.472   2.598  0.00  0.00    +0.014 A 
ENDBRANCH  16  18
ENDBRANCH   5  16
TORSDOF 3
