REMARK  Name = ZINC00755692
REMARK                            x       y       z     vdW  Elec       q    Type
REMARK                         _______ _______ _______ _____ _____    ______ ____
ROOT
ATOM      1  C   LIG    1        0.383   3.739  -0.152  0.00  0.00    +0.163 A 
ATOM      2  N   LIG    1       -0.841   3.241  -0.155  0.00  0.00    -0.223 NA
ATOM      3  C   LIG    1       -1.053   1.940  -0.343  0.00  0.00    +0.099 A 
ATOM      4  C   LIG    1        0.017   1.107  -0.524  0.00  0.00    +0.078 A 
ATOM      5  S   LIG    1        1.368   2.274  -0.429  0.00  0.00    -0.060 S 
ENDROOT
BRANCH   3   6
ATOM      6  C   LIG    1       -2.430   1.401  -0.350  0.00  0.00    +0.095 A 
ATOM      7  C   LIG    1       -3.522   1.949   0.259  0.00  0.00    +0.066 A 
ATOM      8  C   LIG    1       -3.534   3.223   1.064  0.00  0.00    +0.068 C 
ATOM      9  N   LIG    1       -4.575   1.169   0.021  0.00  0.00    -0.232 NA
ATOM     10  C   LIG    1       -4.201   0.135  -0.721  0.00  0.00    +0.138 A 
ATOM     11  C   LIG    1       -4.913  -0.964  -1.241  0.00  0.00    +0.047 A 
ATOM     12  C   LIG    1       -4.255  -1.893  -1.985  0.00  0.00    +0.005 A 
ATOM     13  C   LIG    1       -2.878  -1.747  -2.225  0.00  0.00    +0.018 A 
ATOM     14  C   LIG    1       -2.208  -0.690  -1.720  0.00  0.00    +0.093 A 
ATOM     15  N   LIG    1       -2.858   0.254  -0.977  0.00  0.00    -0.298 N 
ENDBRANCH   3   6
BRANCH   1  16
ATOM     16  N   LIG    1        0.793   5.052   0.020  0.00  0.00    -0.294 N 
ATOM     17  H   LIG    1        0.136   5.763   0.074  0.00  0.00    +0.154 HD
BRANCH  16  21
ATOM     18  C   LIG    1        4.856   5.944   0.302  0.00  0.00    +0.121 A 
ATOM     19  C   LIG    1        3.987   6.848  -0.292  0.00  0.00    +0.047 A 
ATOM     20  C   LIG    1        2.641   6.553  -0.386  0.00  0.00    +0.027 A 
ATOM     21  C   LIG    1        2.158   5.351   0.114  0.00  0.00    +0.033 A 
ATOM     22  C   LIG    1        3.027   4.449   0.714  0.00  0.00    +0.027 A 
ATOM     23  C   LIG    1        4.373   4.744   0.802  0.00  0.00    +0.047 A 
BRANCH  18  24
ATOM     24  O   LIG    1        6.181   6.236   0.395  0.00  0.00    -0.492 OA
BRANCH  24  26
ATOM     25  C   LIG    1        8.464   5.760   1.030  0.00  0.00    +0.048 C 
ATOM     26  C   LIG    1        7.018   5.259   1.018  0.00  0.00    +0.225 C 
ENDBRANCH  24  26
ENDBRANCH  18  24
ENDBRANCH  16  21
ENDBRANCH   1  16
TORSDOF 5
