REMARK  Name = ZINC01024890
REMARK                            x       y       z     vdW  Elec       q    Type
REMARK                         _______ _______ _______ _____ _____    ______ ____
ROOT
ATOM      1  C   LIG    1        2.109  -4.159  -1.225  0.00  0.00    -0.045 A 
ATOM      2  C   LIG    1        3.109  -4.833  -0.547  0.00  0.00    +0.004 A 
ATOM      3  C   LIG    1        3.143  -6.215  -0.554  0.00  0.00    +0.002 A 
ATOM      4  C   LIG    1        2.177  -6.928  -1.237  0.00  0.00    +0.024 A 
ATOM      5  C   LIG    1        1.172  -6.255  -1.919  0.00  0.00    +0.048 A 
ATOM      6  C   LIG    1        1.138  -4.866  -1.906  0.00  0.00    +0.028 A 
ENDROOT
BRANCH   5   7
ATOM      7  N   LIG    1        0.194  -6.972  -2.611  0.00  0.00    -0.216 N 
ATOM      8  H   LIG    1       -0.519  -6.494  -3.094  0.00  0.00    +0.174 HD
BRANCH   7   9
ATOM      9  S   LIG    1        0.232  -8.628  -2.620  0.00  0.00    +0.074 S 
ATOM     10  O   LIG    1       -0.014  -9.047  -1.285  0.00  0.00    -0.150 OA
ATOM     11  O   LIG    1        1.403  -9.003  -3.333  0.00  0.00    -0.150 OA
BRANCH   9  12
ATOM     12  C   LIG    1       -1.139  -9.176  -3.581  0.00  0.00    +0.128 A 
ATOM     13  C   LIG    1       -0.925  -9.857  -4.765  0.00  0.00    +0.050 A 
ATOM     14  C   LIG    1       -2.002 -10.287  -5.519  0.00  0.00    +0.043 A 
ATOM     15 CL   LIG    1       -1.734 -11.142  -7.006  0.00  0.00    -0.083 Cl
ATOM     16  C   LIG    1       -3.293 -10.035  -5.089  0.00  0.00    +0.021 A 
ATOM     17  C   LIG    1       -3.507  -9.354  -3.906  0.00  0.00    +0.023 A 
ATOM     18  C   LIG    1       -2.430  -8.929  -3.148  0.00  0.00    +0.068 A 
ATOM     19 CL   LIG    1       -2.698  -8.079  -1.659  0.00  0.00    -0.082 Cl
ENDBRANCH   9  12
ENDBRANCH   7   9
ENDBRANCH   5   7
BRANCH   1  20
ATOM     20  C   LIG    1        2.077  -2.653  -1.216  0.00  0.00    +0.041 C 
BRANCH  20  21
ATOM     21  C   LIG    1        1.250  -2.168  -0.023  0.00  0.00    +0.060 C 
BRANCH  21  26
ATOM     22  C   LIG    1       -0.017   1.382   0.010  0.00  0.00    +0.003 A 
ATOM     23  C   LIG    1        1.194   2.059   0.002  0.00  0.00    +0.020 A 
ATOM     24  C   LIG    1        2.370   1.334  -0.013  0.00  0.00    +0.111 A 
ATOM     25  N   LIG    1        2.350   0.015  -0.021  0.00  0.00    -0.260 NA
ATOM     26  C   LIG    1        1.218  -0.661  -0.014  0.00  0.00    +0.042 A 
ATOM     27  C   LIG    1        0.002  -0.004   0.002  0.00  0.00    +0.023 A 
ENDBRANCH  21  26
ENDBRANCH  20  21
ENDBRANCH   1  20
TORSDOF 6
