REMARK  Name = ZINC00752466
REMARK                            x       y       z     vdW  Elec       q    Type
REMARK                         _______ _______ _______ _____ _____    ______ ____
ROOT
ATOM      1  C   LIG    1        2.451   3.937   0.000  0.00  0.00    +0.034 C 
ATOM      2  C   LIG    1        2.535   4.812   1.252  0.00  0.00    +0.083 C 
ATOM      3  C   LIG    1        3.815   5.616   1.225  0.00  0.00    +0.115 C 
ATOM      4  C   LIG    1        4.355   6.005   0.056  0.00  0.00    +0.046 C 
ATOM      5  C   LIG    1        3.756   5.674  -1.174  0.00  0.00    +0.164 C 
ATOM      6  O   LIG    1        4.262   6.063  -2.208  0.00  0.00    -0.292 OA
ATOM      7  C   LIG    1        5.632   6.811   0.031  0.00  0.00    +0.101 C 
ATOM      8  C   LIG    1        6.351   6.679   1.344  0.00  0.00    +0.098 C 
ATOM      9  C   LIG    1        5.692   6.245   2.446  0.00  0.00    +0.198 C 
ATOM     10  O   LIG    1        4.389   5.928   2.402  0.00  0.00    -0.445 OA
ATOM     11  C   LIG    1        2.501   4.846  -1.232  0.00  0.00    +0.088 C 
ENDROOT
BRANCH   1  15
ATOM     12  C   LIG    1       -1.219   1.751   0.017  0.00  0.00    +0.000 A 
ATOM     13  C   LIG    1       -0.013   1.076   0.008  0.00  0.00    +0.000 A 
ATOM     14  C   LIG    1        1.175   1.783   0.000  0.00  0.00    +0.004 A 
ATOM     15  C   LIG    1        1.156   3.165   0.008  0.00  0.00    -0.043 A 
ATOM     16  C   LIG    1       -0.050   3.840   0.022  0.00  0.00    +0.004 A 
ATOM     17  C   LIG    1       -1.238   3.133   0.029  0.00  0.00    +0.000 A 
ENDBRANCH   1  15
BRANCH   7  18
ATOM     18  C   LIG    1        5.302   8.261  -0.214  0.00  0.00    -0.034 A 
ATOM     19  C   LIG    1        4.497   8.947   0.675  0.00  0.00    +0.007 A 
ATOM     20  C   LIG    1        4.199  10.279   0.452  0.00  0.00    +0.033 A 
ATOM     21  C   LIG    1        4.698  10.921  -0.665  0.00  0.00    +0.122 A 
ATOM     22  C   LIG    1        5.499  10.234  -1.558  0.00  0.00    +0.033 A 
ATOM     23  C   LIG    1        5.802   8.904  -1.332  0.00  0.00    +0.007 A 
BRANCH  21  24
ATOM     24  N   LIG    1        4.375  12.345  -0.907  0.00  0.00    +0.006 N 
ATOM     25  O   LIG    1        4.815  12.911  -1.892  0.00  0.00    -0.130 OA
BRANCH  24  26
ATOM     26  O   LIG    1        3.669  12.951  -0.121  0.00  0.00    -0.396 OA
ATOM     27  H   LIG    1        3.331  12.516   0.637  0.00  0.00    +0.329 HD
ENDBRANCH  24  26
ENDBRANCH  21  24
ENDBRANCH   7  18
BRANCH   9  28
ATOM     28  N   LIG    1        6.372   6.127   3.633  0.00  0.00    -0.328 N 
ATOM     29  H   LIG    1        7.314   6.354   3.676  0.00  0.00    +0.145 HD
ATOM     30  H   LIG    1        5.910   5.817   4.428  0.00  0.00    +0.145 HD
ENDBRANCH   9  28
BRANCH   8  31
ATOM     31  C   LIG    1        7.741   7.013   1.431  0.00  0.00    +0.101 C 
ATOM     32  N   LIG    1        8.844   7.278   1.500  0.00  0.00    -0.191 NA
ENDBRANCH   8  31
TORSDOF 6
