REMARK  Name = ZINC00943067
REMARK                            x       y       z     vdW  Elec       q    Type
REMARK                         _______ _______ _______ _____ _____    ______ ____
ROOT
ATOM      1  C   LIG    1        1.460   8.533   0.057  0.00  0.00    +0.070 C 
ATOM      2  C   LIG    1        2.837   8.363   0.039  0.00  0.00    +0.117 C 
ENDROOT
BRANCH   1   6
ATOM      3  C   LIG    1       -0.071   5.322   0.076  0.00  0.00    +0.136 A 
ATOM      4  C   LIG    1       -1.201   6.111   0.091  0.00  0.00    +0.050 A 
ATOM      5  C   LIG    1       -0.773   7.438   0.086  0.00  0.00    +0.050 A 
ATOM      6  C   LIG    1        0.614   7.412   0.068  0.00  0.00    +0.130 A 
ATOM      7  O   LIG    1        1.010   6.120   0.068  0.00  0.00    -0.455 OA
BRANCH   3  10
ATOM      8  C   LIG    1       -1.223   1.749   0.087  0.00  0.00    +0.001 A 
ATOM      9  C   LIG    1       -1.250   3.129   0.092  0.00  0.00    +0.011 A 
ATOM     10  C   LIG    1       -0.051   3.846   0.076  0.00  0.00    +0.018 A 
ATOM     11  C   LIG    1        1.166   3.161   0.060  0.00  0.00    +0.024 A 
ATOM     12  C   LIG    1        1.177   1.782   0.060  0.00  0.00    +0.055 A 
ATOM     13  C   LIG    1       -0.014   1.077   0.077  0.00  0.00    +0.012 A 
BRANCH  12  14
ATOM     14  C   LIG    1        2.489   1.040   0.043  0.00  0.00    +0.417 C 
ATOM     15  F   LIG    1        3.235   1.386   1.175  0.00  0.00    -0.166 F 
ATOM     16  F   LIG    1        3.204   1.384  -1.109  0.00  0.00    -0.166 F 
ATOM     17  F   LIG    1        2.246  -0.338   0.048  0.00  0.00    -0.166 F 
ENDBRANCH  12  14
ENDBRANCH   3  10
ENDBRANCH   1   6
BRANCH   2  18
ATOM     18  C   LIG    1        3.720   9.535   0.028  0.00  0.00    +0.259 C 
ATOM     19  N   LIG    1        5.058   9.370   0.011  0.00  0.00    -0.280 N 
ATOM     20  H   LIG    1        5.438   8.480   0.072  0.00  0.00    +0.155 HD
ATOM     21  O   LIG    1        3.245  10.655   0.035  0.00  0.00    -0.269 OA
BRANCH  19  22
ATOM     22  C   LIG    1        5.896  10.479  -0.095  0.00  0.00    +0.043 A 
ATOM     23  C   LIG    1        5.548  11.674   0.501  0.00  0.00    +0.024 A 
ATOM     24  C   LIG    1        6.383  12.783   0.406  0.00  0.00    +0.004 A 
ATOM     25  C   LIG    1        7.554  12.726  -0.286  0.00  0.00    +0.028 A 
ATOM     26  C   LIG    1        7.943  11.530  -0.914  0.00  0.00    +0.073 A 
ATOM     27  N   LIG    1        9.090  11.454  -1.599  0.00  0.00    -0.255 NA
ATOM     28  C   LIG    1        9.459  10.342  -2.187  0.00  0.00    +0.111 A 
ATOM     29  C   LIG    1        8.680   9.189  -2.130  0.00  0.00    +0.020 A 
ATOM     30  C   LIG    1        7.497   9.199  -1.446  0.00  0.00    +0.013 A 
ATOM     31  C   LIG    1        7.104  10.393  -0.817  0.00  0.00    +0.022 A 
ENDBRANCH  19  22
ENDBRANCH   2  18
BRANCH   2  32
ATOM     32  C   LIG    1        3.396   7.045   0.032  0.00  0.00    +0.104 C 
ATOM     33  N   LIG    1        3.840   5.999   0.026  0.00  0.00    -0.191 NA
ENDBRANCH   2  32
TORSDOF 6
