REMARK  Name = ZINC00968516
REMARK                            x       y       z     vdW  Elec       q    Type
REMARK                         _______ _______ _______ _____ _____    ______ ____
ROOT
ATOM      1  C   LIG    1        3.602   3.260   0.386  0.00  0.00    +0.108 C 
ATOM      2  C   LIG    1        3.711   1.918  -0.353  0.00  0.00    +0.106 C 
ATOM      3  C   LIG    1        2.481   1.100  -0.011  0.00  0.00    +0.167 C 
ATOM      4  C   LIG    1        1.185   1.795   0.000  0.00  0.00    +0.038 A 
ATOM      5  C   LIG    1       -0.013   1.076   0.008  0.00  0.00    +0.013 A 
ATOM      6  C   LIG    1       -1.213   1.753   0.017  0.00  0.00    +0.001 A 
ATOM      7  C   LIG    1       -1.236   3.139   0.031  0.00  0.00    +0.002 A 
ATOM      8  C   LIG    1       -0.061   3.863   0.023  0.00  0.00    +0.023 A 
ATOM      9  C   LIG    1        1.160   3.201   0.006  0.00  0.00    +0.038 A 
ATOM     10  O   LIG    1        2.563  -0.083   0.243  0.00  0.00    -0.292 OA
ATOM     11  N   LIG    1        2.349   3.916  -0.007  0.00  0.00    -0.336 N 
ATOM     12  H   LIG    1        2.352   4.848  -0.275  0.00  0.00    +0.147 HD
ENDROOT
BRANCH   1  16
ATOM     13  C   LIG    1        3.604   2.587   4.604  0.00  0.00    +0.000 A 
ATOM     14  C   LIG    1        4.761   3.000   3.969  0.00  0.00    +0.000 A 
ATOM     15  C   LIG    1        4.760   3.218   2.604  0.00  0.00    +0.005 A 
ATOM     16  C   LIG    1        3.603   3.022   1.874  0.00  0.00    -0.027 A 
ATOM     17  C   LIG    1        2.445   2.614   2.509  0.00  0.00    +0.005 A 
ATOM     18  C   LIG    1        2.447   2.390   3.873  0.00  0.00    +0.000 A 
ENDBRANCH   1  16
TORSDOF 1
