REMARK  Name = ZINC01364533
REMARK                            x       y       z     vdW  Elec       q    Type
REMARK                         _______ _______ _______ _____ _____    ______ ____
ROOT
ATOM      1  C   LIG    1       -2.055  -2.738  -0.869  0.00  0.00    +0.095 C 
ATOM      2  C   LIG    1       -3.445  -2.111  -0.743  0.00  0.00    +0.016 C 
ATOM      3  C   LIG    1       -3.344  -0.598  -0.953  0.00  0.00    +0.020 C 
ATOM      4  C   LIG    1       -2.442   0.005   0.135  0.00  0.00    +0.108 C 
ATOM      5  N   LIG    1       -1.150  -0.694   0.111  0.00  0.00    -0.297 N 
ATOM      6  C   LIG    1        0.002  -0.004   0.002  0.00  0.00    +0.247 C 
ATOM      7  O   LIG    1        1.057  -0.597  -0.116  0.00  0.00    -0.270 OA
ATOM      8  C   LIG    1       -1.138  -2.160   0.214  0.00  0.00    +0.121 C 
ENDROOT
BRANCH   6   9
ATOM      9  C   LIG    1       -0.016   1.473   0.026  0.00  0.00    +0.037 A 
ATOM     10  C   LIG    1       -0.866   2.149   0.904  0.00  0.00    +0.016 A 
ATOM     11  C   LIG    1       -0.875   3.527   0.927  0.00  0.00    +0.039 A 
ATOM     12  C   LIG    1       -0.051   4.242   0.071  0.00  0.00    +0.123 A 
ATOM     13  F   LIG    1       -0.068   5.593   0.093  0.00  0.00    -0.205 F 
ATOM     14  C   LIG    1        0.790   3.576  -0.807  0.00  0.00    +0.039 A 
ATOM     15  C   LIG    1        0.812   2.198  -0.833  0.00  0.00    +0.016 A 
ENDBRANCH   6   9
BRANCH   1  18
ATOM     16  C   LIG    1       -2.085  -6.332  -0.982  0.00  0.00    +0.209 A 
ATOM     17  N   LIG    1       -1.819  -5.142  -1.571  0.00  0.00    -0.191 NA
ATOM     18  C   LIG    1       -2.159  -4.231  -0.694  0.00  0.00    +0.232 A 
ATOM     19  O   LIG    1       -2.622  -4.874   0.383  0.00  0.00    -0.337 OA
ATOM     20  N   LIG    1       -2.574  -6.073   0.205  0.00  0.00    -0.056 NA
BRANCH  16  23
ATOM     21  C   LIG    1       -1.836 -10.024  -1.772  0.00  0.00    +0.008 A 
ATOM     22  C   LIG    1       -2.122  -8.902  -1.028  0.00  0.00    +0.019 A 
ATOM     23  C   LIG    1       -1.869  -7.670  -1.570  0.00  0.00    +0.060 A 
ATOM     24  S   LIG    1       -1.218  -8.101  -3.176  0.00  0.00    -0.093 S 
ATOM     25  C   LIG    1       -1.314  -9.877  -3.017  0.00  0.00    +0.046 A 
ENDBRANCH  16  23
ENDBRANCH   1  18
TORSDOF 3
