REMARK  Name = ZINC00900751
REMARK                            x       y       z     vdW  Elec       q    Type
REMARK                         _______ _______ _______ _____ _____    ______ ____
ROOT
ATOM      1  C   LIG    1        1.221  -2.081  -0.774  0.00  0.00    +0.092 A 
ATOM      2  C   LIG    1        0.657  -2.887   0.215  0.00  0.00    +0.063 A 
ATOM      3  C   LIG    1        0.324  -4.200  -0.074  0.00  0.00    +0.129 A 
ATOM      4  C   LIG    1        0.552  -4.711  -1.345  0.00  0.00    +0.048 A 
ATOM      5  C   LIG    1        1.111  -3.913  -2.326  0.00  0.00    +0.037 A 
ATOM      6  C   LIG    1        1.441  -2.602  -2.051  0.00  0.00    +0.136 A 
ENDROOT
BRANCH   1   7
ATOM      7  C   LIG    1        1.579  -0.679  -0.474  0.00  0.00    +0.341 C 
ATOM      8  O   LIG    1        2.709  -0.283  -0.679  0.00  0.00    -0.245 OA
BRANCH   7  10
ATOM      9  C   LIG    1        1.067   1.501   0.293  0.00  0.00    +0.280 C 
ATOM     10  O   LIG    1        0.651   0.160   0.026  0.00  0.00    -0.464 OA
ENDBRANCH   7  10
ENDBRANCH   1   7
BRANCH   6  11
ATOM     11  N   LIG    1        2.034  -1.751  -3.107  0.00  0.00    +0.007 N 
ATOM     12  O   LIG    1        2.346  -2.235  -4.170  0.00  0.00    -0.130 OA
BRANCH  11  13
ATOM     13  O   LIG    1        2.207  -0.571  -2.906  0.00  0.00    -0.396 OA
ATOM     14  H   LIG    1        1.966  -0.196  -2.082  0.00  0.00    +0.329 HD
ENDBRANCH  11  13
ENDBRANCH   6  11
BRANCH   3  15
ATOM     15  O   LIG    1       -0.225  -4.988   0.887  0.00  0.00    -0.455 OA
BRANCH  15  16
ATOM     16  C   LIG    1       -1.553  -4.849   1.145  0.00  0.00    +0.147 A 
ATOM     17  C   LIG    1       -2.301  -3.911   0.449  0.00  0.00    +0.049 A 
ATOM     18  C   LIG    1       -3.650  -3.771   0.712  0.00  0.00    +0.023 A 
ATOM     19  C   LIG    1       -4.255  -4.565   1.669  0.00  0.00    +0.043 A 
ATOM     20 CL   LIG    1       -5.950  -4.386   1.998  0.00  0.00    -0.083 Cl
ATOM     21  C   LIG    1       -3.512  -5.502   2.365  0.00  0.00    +0.043 A 
ATOM     22  C   LIG    1       -2.163  -5.650   2.100  0.00  0.00    +0.085 A 
ATOM     23 CL   LIG    1       -1.232  -6.830   2.968  0.00  0.00    -0.080 Cl
ENDBRANCH  15  16
ENDBRANCH   3  15
TORSDOF 6
