REMARK  Name = ZINC00856801
REMARK                            x       y       z     vdW  Elec       q    Type
REMARK                         _______ _______ _______ _____ _____    ______ ____
ROOT
ATOM      1  C   LIG    1        1.059   6.201  -1.201  0.00  0.00    +0.027 C 
ENDROOT
BRANCH   1   2
ATOM      2  C   LIG    1        1.516   7.660  -1.145  0.00  0.00    +0.027 C 
BRANCH   2   7
ATOM      3  C   LIG    1        0.710  10.223  -4.584  0.00  0.00    +0.041 C 
ATOM      4  C   LIG    1        2.093  10.252  -3.931  0.00  0.00    +0.064 C 
ATOM      5  C   LIG    1        2.607  11.693  -3.889  0.00  0.00    +0.041 C 
ATOM      6  C   LIG    1        1.997   9.703  -2.506  0.00  0.00    +0.038 C 
ATOM      7  C   LIG    1        1.540   8.242  -2.560  0.00  0.00    +0.001 C 
ATOM      8  C   LIG    1        2.519   7.444  -3.426  0.00  0.00    +0.032 C 
ATOM      9  C   LIG    1        2.595   8.081  -4.816  0.00  0.00    +0.161 C 
ATOM     10  O   LIG    1        2.996   9.447  -4.691  0.00  0.00    -0.374 OA
ENDBRANCH   2   7
BRANCH   2  11
ATOM     11  C   LIG    1        0.560   8.453  -0.292  0.00  0.00    -0.002 A 
ATOM     12  C   LIG    1       -0.774   8.535  -0.641  0.00  0.00    +0.007 A 
ATOM     13  C   LIG    1       -1.651   9.262   0.142  0.00  0.00    +0.001 A 
ATOM     14  C   LIG    1       -1.196   9.909   1.276  0.00  0.00    +0.004 A 
ATOM     15  C   LIG    1        0.137   9.831   1.629  0.00  0.00    +0.046 A 
ATOM     16  C   LIG    1        1.018   9.097   0.848  0.00  0.00    +0.124 A 
BRANCH  16  17
ATOM     17  O   LIG    1        2.329   9.014   1.197  0.00  0.00    -0.495 OA
ATOM     18  C   LIG    1        2.730   9.702   2.384  0.00  0.00    +0.277 C 
ENDBRANCH  16  17
ENDBRANCH   2  11
ENDBRANCH   1   2
BRANCH   1  19
ATOM     19  C   LIG    1        1.155   5.582   0.195  0.00  0.00    +0.109 C 
BRANCH  19  20
ATOM     20  N   LIG    1        0.717   4.185   0.141  0.00  0.00    -0.291 N 
ATOM     21  C   LIG    1        1.581   3.223  -0.239  0.00  0.00    +0.282 C 
ATOM     22  O   LIG    1        1.198   2.073  -0.354  0.00  0.00    -0.267 OA
BRANCH  21  23
ATOM     23  C   LIG    1        2.981   3.561  -0.514  0.00  0.00    +0.189 A 
ATOM     24  C   LIG    1        3.983   2.674  -0.783  0.00  0.00    +0.054 A 
ATOM     25  C   LIG    1        5.149   3.429  -0.982  0.00  0.00    +0.042 A 
ATOM     26  C   LIG    1        4.812   4.729  -0.827  0.00  0.00    +0.196 A 
ATOM     27  O   LIG    1        3.505   4.804  -0.546  0.00  0.00    -0.458 OA
ENDBRANCH  21  23
BRANCH  20  28
ATOM     28  C   LIG    1       -0.659   3.834   0.501  0.00  0.00    +0.143 C 
BRANCH  28  29
ATOM     29  C   LIG    1       -0.713   3.443   1.956  0.00  0.00    -0.030 A 
ATOM     30  C   LIG    1       -0.443   2.139   2.330  0.00  0.00    +0.009 A 
ATOM     31  C   LIG    1       -0.486   1.779   3.663  0.00  0.00    +0.046 A 
ATOM     32  C   LIG    1       -0.814   2.724   4.625  0.00  0.00    +0.120 A 
ATOM     33  C   LIG    1       -1.091   4.029   4.246  0.00  0.00    +0.046 A 
ATOM     34  C   LIG    1       -1.040   4.386   2.912  0.00  0.00    +0.009 A 
BRANCH  32  35
ATOM     35  O   LIG    1       -0.862   2.370   5.936  0.00  0.00    -0.495 OA
ATOM     36  C   LIG    1       -0.566   1.009   6.253  0.00  0.00    +0.277 C 
ENDBRANCH  32  35
ENDBRANCH  28  29
ENDBRANCH  20  28
ENDBRANCH  19  20
ENDBRANCH   1  19
TORSDOF 10
