REMARK  Name = ZINC00988362
REMARK                            x       y       z     vdW  Elec       q    Type
REMARK                         _______ _______ _______ _____ _____    ______ ____
ROOT
ATOM      1  C   LIG    1        1.344   6.913   1.780  0.00  0.00    +0.272 C 
ATOM      2  N   LIG    1        2.637   7.288   1.709  0.00  0.00    -0.202 N 
ATOM      3  H   LIG    1        3.323   6.630   1.514  0.00  0.00    +0.178 HD
ATOM      4  O   LIG    1        0.483   7.739   2.024  0.00  0.00    -0.268 OA
ENDROOT
BRANCH   1  13
ATOM      5  C   LIG    1       -2.908   3.376   1.595  0.00  0.00    +0.044 C 
ATOM      6  C   LIG    1       -1.556   2.763   1.335  0.00  0.00    -0.037 A 
ATOM      7  C   LIG    1       -1.439   1.418   1.071  0.00  0.00    +0.027 A 
ATOM      8  C   LIG    1       -0.194   0.855   0.838  0.00  0.00    +0.040 A 
ATOM      9  C   LIG    1       -0.081  -0.621   0.555  0.00  0.00    +0.065 C 
ATOM     10  N   LIG    1        0.892   1.603   0.857  0.00  0.00    -0.245 NA
ATOM     11  C   LIG    1        0.832   2.894   1.100  0.00  0.00    +0.111 A 
ATOM     12  S   LIG    1        2.054   4.179   1.203  0.00  0.00    -0.062 S 
ATOM     13  C   LIG    1        0.987   5.558   1.571  0.00  0.00    +0.099 A 
ATOM     14  C   LIG    1       -0.269   4.991   1.604  0.00  0.00    +0.054 A 
ATOM     15  C   LIG    1       -0.387   3.563   1.355  0.00  0.00    +0.032 A 
BRANCH  14  16
ATOM     16  N   LIG    1       -1.391   5.763   1.867  0.00  0.00    -0.356 N 
ATOM     17  H   LIG    1       -1.293   6.643   2.265  0.00  0.00    +0.142 HD
ATOM     18  H   LIG    1       -2.275   5.424   1.654  0.00  0.00    +0.142 HD
ENDBRANCH  14  16
ENDBRANCH   1  13
BRANCH   2  19
ATOM     19  N   LIG    1        2.990   8.628   1.915  0.00  0.00    -0.187 NA
ATOM     20  C   LIG    1        4.237   8.989   1.847  0.00  0.00    +0.139 C 
BRANCH  20  21
ATOM     21  C   LIG    1        4.607  10.396   2.063  0.00  0.00    +0.002 A 
ATOM     22  C   LIG    1        5.939  10.792   2.030  0.00  0.00    +0.010 A 
ATOM     23  C   LIG    1        6.286  12.121   2.229  0.00  0.00    +0.001 A 
ATOM     24  C   LIG    1        5.349  13.078   2.475  0.00  0.00    +0.008 A 
ATOM     25  C   LIG    1        3.985  12.749   2.528  0.00  0.00    -0.017 A 
ATOM     26  C   LIG    1        3.006  13.727   2.780  0.00  0.00    +0.008 A 
ATOM     27  C   LIG    1        1.693  13.369   2.824  0.00  0.00    +0.001 A 
ATOM     28  C   LIG    1        1.303  12.047   2.623  0.00  0.00    +0.001 A 
ATOM     29  C   LIG    1        2.225  11.074   2.376  0.00  0.00    +0.009 A 
ATOM     30  C   LIG    1        3.584  11.406   2.325  0.00  0.00    -0.009 A 
ENDBRANCH  20  21
ENDBRANCH   2  19
TORSDOF 4
