REMARK  Name = ZINC01396918
REMARK                            x       y       z     vdW  Elec       q    Type
REMARK                         _______ _______ _______ _____ _____    ______ ____
ROOT
ATOM      1  C   LIG    1        2.474   4.321   0.002  0.00  0.00    +0.251 C 
ENDROOT
BRANCH   1   2
ATOM      2  S   LIG    1        2.127   6.101   0.015  0.00  0.00    +0.004 S 
ATOM      3  O   LIG    1        1.550   6.479   1.257  0.00  0.00    -0.169 OA
ATOM      4  O   LIG    1        1.526   6.492  -1.212  0.00  0.00    -0.169 OA
BRANCH   2   8
ATOM      5  C   LIG    1        6.199   8.079  -0.014  0.00  0.00    +0.000 A 
ATOM      6  C   LIG    1        5.566   7.784  -1.206  0.00  0.00    +0.002 A 
ATOM      7  C   LIG    1        4.322   7.180  -1.198  0.00  0.00    +0.027 A 
ATOM      8  C   LIG    1        3.712   6.871   0.004  0.00  0.00    +0.089 A 
ATOM      9  C   LIG    1        4.343   7.172   1.196  0.00  0.00    +0.027 A 
ATOM     10  C   LIG    1        5.588   7.771   1.188  0.00  0.00    +0.002 A 
ENDBRANCH   2   8
ENDBRANCH   1   2
BRANCH   1  11
ATOM     11  C   LIG    1        1.175   3.556   0.010  0.00  0.00    +0.184 C 
ATOM     12  O   LIG    1        0.120   4.154   0.023  0.00  0.00    -0.290 OA
BRANCH  11  13
ATOM     13  C   LIG    1        1.188   2.086   0.002  0.00  0.00    +0.019 A 
ATOM     14  C   LIG    1       -0.017   1.373   0.010  0.00  0.00    +0.014 A 
ATOM     15  C   LIG    1        0.002  -0.004   0.002  0.00  0.00    +0.039 A 
ATOM     16  C   LIG    1        1.211  -0.684  -0.013  0.00  0.00    +0.123 A 
ATOM     17  F   LIG    1        1.222  -2.035  -0.019  0.00  0.00    -0.205 F 
ATOM     18  C   LIG    1        2.408   0.016  -0.020  0.00  0.00    +0.039 A 
ATOM     19  C   LIG    1        2.404   1.394  -0.013  0.00  0.00    +0.014 A 
ENDBRANCH  11  13
ENDBRANCH   1  11
TORSDOF 4
