REMARK  Name = ZINC01169900
REMARK                            x       y       z     vdW  Elec       q    Type
REMARK                         _______ _______ _______ _____ _____    ______ ____
ROOT
ATOM      1  C   LIG    1        6.490  -4.489  -0.087  0.00  0.00    +0.137 C 
ENDROOT
BRANCH   1   2
ATOM      2  C   LIG    1        6.460  -5.913  -0.581  0.00  0.00    +0.022 A 
ATOM      3  C   LIG    1        5.247  -6.595  -0.631  0.00  0.00    +0.030 A 
ATOM      4  C   LIG    1        5.185  -7.883  -1.073  0.00  0.00    +0.051 A 
ATOM      5 CL   LIG    1        3.663  -8.714  -1.127  0.00  0.00    -0.083 Cl
ATOM      6  C   LIG    1        6.361  -8.534  -1.483  0.00  0.00    +0.022 A 
ATOM      7  C   LIG    1        6.338  -9.864  -1.946  0.00  0.00    +0.013 A 
ATOM      8  C   LIG    1        7.519 -10.433  -2.329  0.00  0.00    +0.020 A 
ATOM      9  C   LIG    1        8.701  -9.699  -2.255  0.00  0.00    +0.111 A 
ATOM     10  N   LIG    1        8.718  -8.461  -1.823  0.00  0.00    -0.251 NA
ATOM     11  C   LIG    1        7.598  -7.846  -1.434  0.00  0.00    +0.114 A 
ATOM     12  C   LIG    1        7.621  -6.512  -0.976  0.00  0.00    +0.148 A 
BRANCH  12  13
ATOM     13  O   LIG    1        8.794  -5.829  -0.924  0.00  0.00    -0.504 OA
ATOM     14  H   LIG    1        9.265  -5.919  -0.084  0.00  0.00    +0.292 HD
ENDBRANCH  12  13
ENDBRANCH   1   2
BRANCH   1  15
ATOM     15  C   LIG    1        6.768  -4.476   1.394  0.00  0.00    -0.023 A 
ATOM     16  C   LIG    1        5.748  -4.734   2.291  0.00  0.00    +0.008 A 
ATOM     17  C   LIG    1        6.003  -4.723   3.649  0.00  0.00    +0.033 A 
ATOM     18  C   LIG    1        7.278  -4.454   4.111  0.00  0.00    +0.122 A 
ATOM     19  C   LIG    1        8.298  -4.196   3.214  0.00  0.00    +0.033 A 
ATOM     20  C   LIG    1        8.044  -4.212   1.855  0.00  0.00    +0.008 A 
BRANCH  18  21
ATOM     21  N   LIG    1        7.550  -4.440   5.566  0.00  0.00    +0.006 N 
ATOM     22  O   LIG    1        6.658  -4.665   6.350  0.00  0.00    -0.130 OA
BRANCH  21  23
ATOM     23  O   LIG    1        8.665  -4.205   5.970  0.00  0.00    -0.396 OA
ATOM     24  H   LIG    1        9.357  -4.031   5.362  0.00  0.00    +0.329 HD
ENDBRANCH  21  23
ENDBRANCH  18  21
ENDBRANCH   1  15
BRANCH   1  26
ATOM     25  C   LIG    1        5.121  -2.520  -0.518  0.00  0.00    +0.251 C 
ATOM     26  N   LIG    1        5.195  -3.855  -0.347  0.00  0.00    -0.302 N 
ATOM     27  H   LIG    1        4.391  -4.395  -0.395  0.00  0.00    +0.150 HD
ATOM     28  O   LIG    1        6.126  -1.844  -0.458  0.00  0.00    -0.272 OA
BRANCH  25  29
ATOM     29  C   LIG    1        3.789  -1.867  -0.785  0.00  0.00    +0.324 C 
BRANCH  29  30
ATOM     30  O   LIG    1        3.970  -0.457  -0.929  0.00  0.00    -0.483 OA
BRANCH  30  34
ATOM     31  C   LIG    1        0.597   1.797  -1.679  0.00  0.00    +0.000 A 
ATOM     32  C   LIG    1        1.831   2.413  -1.578  0.00  0.00    +0.004 A 
ATOM     33  C   LIG    1        2.962   1.661  -1.327  0.00  0.00    +0.045 A 
ATOM     34  C   LIG    1        2.859   0.285  -1.176  0.00  0.00    +0.121 A 
ATOM     35  C   LIG    1        1.620  -0.331  -1.277  0.00  0.00    +0.045 A 
ATOM     36  C   LIG    1        0.492   0.426  -1.528  0.00  0.00    +0.004 A 
ENDBRANCH  30  34
ENDBRANCH  29  30
ENDBRANCH  25  29
ENDBRANCH   1  26
TORSDOF 9
