REMARK  Name = ZINC01016776
REMARK                            x       y       z     vdW  Elec       q    Type
REMARK                         _______ _______ _______ _____ _____    ______ ____
ROOT
ATOM      1  N   LIG    1        4.662   5.035  -0.189  0.00  0.00    -0.236 N 
ATOM      2  C   LIG    1        3.839   6.096  -0.256  0.00  0.00    +0.051 A 
ATOM      3  C   LIG    1        4.258   7.542  -0.315  0.00  0.00    +0.066 C 
ATOM      4  C   LIG    1        2.544   5.626  -0.261  0.00  0.00    +0.049 A 
ATOM      5  C   LIG    1        1.248   6.184  -0.313  0.00  0.00    +0.072 A 
ATOM      6  C   LIG    1        1.069   7.679  -0.386  0.00  0.00    +0.068 C 
ATOM      7  N   LIG    1        0.205   5.395  -0.297  0.00  0.00    -0.152 NA
ATOM      8  N   LIG    1        0.250   4.120  -0.243  0.00  0.00    -0.132 NA
ATOM      9  C   LIG    1        1.369   3.423  -0.183  0.00  0.00    +0.172 A 
ATOM     10  C   LIG    1        2.636   4.154  -0.190  0.00  0.00    +0.137 A 
ATOM     11  N   LIG    1        3.913   3.852  -0.150  0.00  0.00    -0.163 NA
ENDROOT
BRANCH   1  15
ATOM     12  C   LIG    1        8.827   5.237  -0.113  0.00  0.00    +0.121 A 
ATOM     13  C   LIG    1        8.075   6.125   0.644  0.00  0.00    +0.048 A 
ATOM     14  C   LIG    1        6.697   6.059   0.619  0.00  0.00    +0.031 A 
ATOM     15  C   LIG    1        6.062   5.103  -0.164  0.00  0.00    +0.066 A 
ATOM     16  C   LIG    1        6.815   4.211  -0.916  0.00  0.00    +0.031 A 
ATOM     17  C   LIG    1        8.193   4.282  -0.894  0.00  0.00    +0.048 A 
BRANCH  12  18
ATOM     18  O   LIG    1       10.184   5.302  -0.087  0.00  0.00    -0.492 OA
BRANCH  18  20
ATOM     19  C   LIG    1       12.399   4.584  -0.733  0.00  0.00    +0.048 C 
ATOM     20  C   LIG    1       10.894   4.357  -0.890  0.00  0.00    +0.225 C 
ENDBRANCH  18  20
ENDBRANCH  12  18
ENDBRANCH   1  15
BRANCH   9  21
ATOM     21  N   LIG    1        1.345   2.039  -0.119  0.00  0.00    -0.312 N 
ATOM     22  C   LIG    1       -0.034   1.536  -0.124  0.00  0.00    +0.106 C 
ATOM     23  C   LIG    1       -0.021   0.007  -0.200  0.00  0.00    +0.019 C 
ATOM     24  C   LIG    1        0.742  -0.552   1.004  0.00  0.00    +0.003 C 
ATOM     25  C   LIG    1        2.160   0.025   1.013  0.00  0.00    +0.019 C 
ATOM     26  C   LIG    1        2.083   1.553   1.054  0.00  0.00    +0.106 C 
ENDBRANCH   9  21
TORSDOF 4
