REMARK  Name = ZINC00968337
REMARK                            x       y       z     vdW  Elec       q    Type
REMARK                         _______ _______ _______ _____ _____    ______ ____
ROOT
ATOM      1  C   LIG    1       -2.741  -0.869   0.387  0.00  0.00    -0.096 C 
ATOM      2  N   LIG    1       -1.309  -1.128   0.183  0.00  0.00    +0.378 N 
ATOM      3  H   LIG    1       -0.834  -0.256   0.001  0.00  0.00    -0.082 HD
ATOM      4  C   LIG    1       -0.749  -1.740   1.394  0.00  0.00    -0.075 C 
ATOM      5  C   LIG    1        0.773  -1.852   1.252  0.00  0.00    +0.013 C 
ATOM      6  C   LIG    1        1.075  -2.602  -0.029  0.00  0.00    -0.063 C 
ATOM      7  C   LIG    1        0.357  -2.160  -1.287  0.00  0.00    +0.013 C 
ATOM      8  C   LIG    1        1.944  -3.620  -0.048  0.00  0.00    +0.007 C 
ATOM      9  C   LIG    1        2.517  -4.109   1.226  0.00  0.00    -0.013 A 
ATOM     10  C   LIG    1        3.297  -3.286   2.034  0.00  0.00    +0.009 A 
ATOM     11  C   LIG    1        3.800  -3.792   3.218  0.00  0.00    +0.001 A 
ATOM     12  C   LIG    1        3.525  -5.097   3.585  0.00  0.00    +0.000 A 
ATOM     13  C   LIG    1        2.750  -5.908   2.775  0.00  0.00    +0.004 A 
ATOM     14  C   LIG    1        2.247  -5.407   1.585  0.00  0.00    -0.039 A 
ATOM     15  C   LIG    1        1.424  -6.281   0.690  0.00  0.00    +0.040 C 
ATOM     16  C   LIG    1        2.149  -6.703  -0.559  0.00  0.00    +0.042 C 
ATOM     17  C   LIG    1        2.423  -5.594  -1.541  0.00  0.00    -0.021 A 
ATOM     18  C   LIG    1        2.832  -6.036  -2.806  0.00  0.00    +0.007 A 
ATOM     19  C   LIG    1        3.073  -5.130  -3.807  0.00  0.00    +0.020 A 
ATOM     20  C   LIG    1        2.913  -3.781  -3.543  0.00  0.00    +0.111 A 
ATOM     21  N   LIG    1        2.545  -3.385  -2.348  0.00  0.00    -0.255 NA
ATOM     22  C   LIG    1        2.309  -4.237  -1.342  0.00  0.00    +0.075 A 
ATOM     23  C   LIG    1       -1.135  -2.025  -0.965  0.00  0.00    -0.075 C 
ENDROOT
TORSDOF 0
