REMARK  Name = ZINC01044916
REMARK                            x       y       z     vdW  Elec       q    Type
REMARK                         _______ _______ _______ _____ _____    ______ ____
ROOT
ATOM      1  C   LIG    1        1.014  -6.822   0.177  0.00  0.00    +0.045 C 
ATOM      2  C   LIG    1       -0.368  -6.225   0.113  0.00  0.00    -0.030 A 
ATOM      3  C   LIG    1       -0.560  -4.774   0.086  0.00  0.00    +0.021 A 
ATOM      4  C   LIG    1        0.534  -3.902   0.119  0.00  0.00    +0.015 A 
ATOM      5  C   LIG    1        0.328  -2.553   0.087  0.00  0.00    +0.047 A 
ATOM      6  C   LIG    1       -0.966  -2.038   0.034  0.00  0.00    +0.137 A 
ATOM      7  C   LIG    1       -2.060  -2.886   0.002  0.00  0.00    +0.093 A 
ATOM      8  C   LIG    1       -1.869  -4.260   0.027  0.00  0.00    +0.143 A 
ATOM      9  O   LIG    1       -2.922  -5.104  -0.005  0.00  0.00    -0.422 OA
ATOM     10  C   LIG    1       -2.753  -6.436   0.020  0.00  0.00    +0.341 A 
ATOM     11  O   LIG    1       -3.733  -7.158  -0.010  0.00  0.00    -0.245 OA
ATOM     12  C   LIG    1       -1.470  -7.019   0.079  0.00  0.00    +0.045 A 
ENDROOT
BRANCH   6  13
ATOM     13  O   LIG    1       -1.155  -0.693   0.009  0.00  0.00    -0.411 OA
BRANCH  13  14
ATOM     14  C   LIG    1       -1.552  -0.110   1.157  0.00  0.00    +0.408 C 
ATOM     15  N   LIG    1       -1.663   1.231   1.228  0.00  0.00    -0.273 N 
ATOM     16  C   LIG    1       -1.345   2.055   0.059  0.00  0.00    +0.135 C 
ATOM     17  C   LIG    1       -2.094   1.865   2.476  0.00  0.00    +0.135 C 
ATOM     18  O   LIG    1       -1.810  -0.793   2.128  0.00  0.00    -0.226 OA
ENDBRANCH  13  14
ENDBRANCH   6  13
BRANCH  12  19
ATOM     19  C   LIG    1       -1.323  -8.518   0.105  0.00  0.00    +0.077 C 
BRANCH  19  20
ATOM     20  C   LIG    1       -1.331  -8.999   1.533  0.00  0.00    -0.043 A 
ATOM     21  C   LIG    1       -0.143  -9.107   2.232  0.00  0.00    +0.007 A 
ATOM     22  C   LIG    1       -0.150  -9.544   3.543  0.00  0.00    +0.038 A 
ATOM     23  C   LIG    1       -1.346  -9.883   4.153  0.00  0.00    +0.123 A 
ATOM     24  F   LIG    1       -1.353 -10.314   5.434  0.00  0.00    -0.205 F 
ATOM     25  C   LIG    1       -2.534  -9.780   3.450  0.00  0.00    +0.038 A 
ATOM     26  C   LIG    1       -2.525  -9.338   2.141  0.00  0.00    +0.007 A 
ENDBRANCH  19  20
ENDBRANCH  12  19
TORSDOF 4
