REMARK  Name = ZINC01336781
REMARK                            x       y       z     vdW  Elec       q    Type
REMARK                         _______ _______ _______ _____ _____    ______ ____
ROOT
ATOM      1  C   LIG    1        2.463   1.513  -0.001  0.00  0.00    +0.247 C 
ATOM      2  N   LIG    1        3.612   2.209   0.104  0.00  0.00    -0.297 N 
ATOM      3  C   LIG    1        3.589   3.661   0.333  0.00  0.00    +0.109 C 
ATOM      4  C   LIG    1        4.434   4.347  -0.738  0.00  0.00    +0.030 C 
ATOM      5  C   LIG    1        5.837   3.734  -0.748  0.00  0.00    +0.063 C 
ATOM      6  C   LIG    1        5.742   2.244  -1.086  0.00  0.00    +0.030 C 
ATOM      7  C   LIG    1        4.911   1.533  -0.013  0.00  0.00    +0.109 C 
ATOM      8  O   LIG    1        2.494   0.303  -0.118  0.00  0.00    -0.270 OA
ENDROOT
BRANCH   1  15
ATOM      9  C   LIG    1        0.586   1.137  -2.171  0.00  0.00    +0.044 C 
ATOM     10  C   LIG    1        0.251   2.046  -1.016  0.00  0.00    -0.038 A 
ATOM     11  C   LIG    1       -0.956   2.713  -0.989  0.00  0.00    +0.004 A 
ATOM     12  C   LIG    1       -1.267   3.544   0.073  0.00  0.00    +0.000 A 
ATOM     13  C   LIG    1       -0.366   3.720   1.108  0.00  0.00    +0.001 A 
ATOM     14  C   LIG    1        0.847   3.063   1.090  0.00  0.00    +0.013 A 
ATOM     15  C   LIG    1        1.165   2.219   0.025  0.00  0.00    +0.040 A 
ENDBRANCH   1  15
BRANCH   5  16
ATOM     16  C   LIG    1        6.681   4.430  -1.784  0.00  0.00    +0.166 C 
ATOM     17  O   LIG    1        6.712   4.013  -2.922  0.00  0.00    -0.292 OA
BRANCH  16  18
ATOM     18  C   LIG    1        7.468   5.616  -1.414  0.00  0.00    +0.018 A 
ATOM     19  C   LIG    1        7.430   6.104  -0.103  0.00  0.00    +0.014 A 
ATOM     20  C   LIG    1        8.173   7.212   0.238  0.00  0.00    +0.039 A 
ATOM     21  C   LIG    1        8.950   7.851  -0.718  0.00  0.00    +0.123 A 
ATOM     22  F   LIG    1        9.672   8.941  -0.378  0.00  0.00    -0.205 F 
ATOM     23  C   LIG    1        8.988   7.376  -2.021  0.00  0.00    +0.039 A 
ATOM     24  C   LIG    1        8.253   6.265  -2.373  0.00  0.00    +0.014 A 
ENDBRANCH  16  18
ENDBRANCH   5  16
TORSDOF 3
