REMARK  Name = ZINC00975828
REMARK                            x       y       z     vdW  Elec       q    Type
REMARK                         _______ _______ _______ _____ _____    ______ ____
ROOT
ATOM      1  C   LIG    1       -5.238   2.069  -0.173  0.00  0.00    +0.136 A 
ATOM      2  C   LIG    1       -5.744   3.348  -0.226  0.00  0.00    +0.050 A 
ATOM      3  C   LIG    1       -4.656   4.221  -0.151  0.00  0.00    +0.050 A 
ATOM      4  C   LIG    1       -3.520   3.437  -0.055  0.00  0.00    +0.130 A 
ATOM      5  O   LIG    1       -3.898   2.142  -0.076  0.00  0.00    -0.455 OA
ENDROOT
BRANCH   4   6
ATOM      6  C   LIG    1       -2.194   3.910   0.042  0.00  0.00    +0.066 C 
ATOM      7  C   LIG    1       -1.153   3.027   0.052  0.00  0.00    +0.082 C 
ATOM      8  C   LIG    1       -1.158   1.615  -0.161  0.00  0.00    +0.258 C 
ATOM      9  N   LIG    1       -0.004   0.974  -0.095  0.00  0.00    -0.243 N 
ATOM     10  H   LIG    1        0.018   0.014  -0.233  0.00  0.00    +0.159 HD
ATOM     11  C   LIG    1        1.147   1.637   0.155  0.00  0.00    +0.283 C 
ATOM     12  O   LIG    1        2.278   1.196   0.241  0.00  0.00    -0.262 OA
ATOM     13  O   LIG    1       -2.194   1.019  -0.391  0.00  0.00    -0.269 OA
ATOM     14  S   LIG    1        0.588   3.325   0.328  0.00  0.00    -0.026 S 
ENDBRANCH   4   6
BRANCH   1  22
ATOM     15  C   LIG    1       -7.424   0.886  -0.322  0.00  0.00    +0.013 A 
ATOM     16  C   LIG    1       -8.160  -0.279  -0.372  0.00  0.00    +0.022 A 
ATOM     17  C   LIG    1       -7.524  -1.507  -0.310  0.00  0.00    +0.059 A 
ATOM     18 CL   LIG    1       -8.458  -2.969  -0.367  0.00  0.00    -0.082 Cl
ATOM     19  C   LIG    1       -6.143  -1.575  -0.203  0.00  0.00    +0.060 A 
ATOM     20 CL   LIG    1       -5.354  -3.119  -0.126  0.00  0.00    -0.082 Cl
ATOM     21  C   LIG    1       -5.395  -0.416  -0.158  0.00  0.00    +0.033 A 
ATOM     22  C   LIG    1       -6.032   0.826  -0.221  0.00  0.00    +0.019 A 
ENDBRANCH   1  22
TORSDOF 2
