REMARK  Name = ZINC01397985
REMARK                            x       y       z     vdW  Elec       q    Type
REMARK                         _______ _______ _______ _____ _____    ______ ____
ROOT
ATOM      1  C   LIG    1        3.679  -0.736  -0.287  0.00  0.00    +0.067 C 
ATOM      2  N   LIG    1        4.755  -0.028  -0.316  0.00  0.00    -0.181 NA
ATOM      3  N   LIG    1        6.028  -0.609  -0.245  0.00  0.00    -0.189 N 
ATOM      4  C   LIG    1        7.128   0.111  -0.537  0.00  0.00    +0.266 C 
ATOM      5  O   LIG    1        8.216  -0.431  -0.584  0.00  0.00    -0.268 OA
ATOM      6  C   LIG    1        6.141  -2.020   0.154  0.00  0.00    +0.136 C 
ATOM      7  C   LIG    1        5.041  -2.799  -0.583  0.00  0.00    +0.027 C 
ATOM      8  C   LIG    1        3.682  -2.232  -0.160  0.00  0.00    +0.059 C 
ENDROOT
BRANCH   4   9
ATOM      9  C   LIG    1        7.014   1.560  -0.801  0.00  0.00    +0.039 A 
ATOM     10  C   LIG    1        5.807   2.222  -0.566  0.00  0.00    +0.014 A 
ATOM     11  C   LIG    1        5.707   3.575  -0.814  0.00  0.00    +0.021 A 
ATOM     12  C   LIG    1        6.800   4.277  -1.293  0.00  0.00    +0.041 A 
ATOM     13 CL   LIG    1        6.665   5.980  -1.603  0.00  0.00    -0.084 Cl
ATOM     14  C   LIG    1        8.000   3.627  -1.528  0.00  0.00    +0.021 A 
ATOM     15  C   LIG    1        8.114   2.275  -1.279  0.00  0.00    +0.014 A 
ENDBRANCH   4   9
BRANCH   1  19
ATOM     16  C   LIG    1       -0.058   1.260  -0.548  0.00  0.00    +0.000 A 
ATOM     17  C   LIG    1        1.116   1.970  -0.729  0.00  0.00    +0.001 A 
ATOM     18  C   LIG    1        2.334   1.328  -0.645  0.00  0.00    +0.010 A 
ATOM     19  C   LIG    1        2.381  -0.042  -0.377  0.00  0.00    -0.002 A 
ATOM     20  C   LIG    1        1.191  -0.752  -0.196  0.00  0.00    +0.010 A 
ATOM     21  C   LIG    1       -0.019  -0.097  -0.283  0.00  0.00    +0.001 A 
ENDBRANCH   1  19
TORSDOF 2
