REMARK  Name = ZINC00897236
REMARK                            x       y       z     vdW  Elec       q    Type
REMARK                         _______ _______ _______ _____ _____    ______ ____
ROOT
ATOM      1  C   LIG    1       -0.017   1.376   0.010  0.00  0.00    +0.047 A 
ATOM      2  C   LIG    1        1.178   2.094   0.002  0.00  0.00    +0.057 A 
ATOM      3  C   LIG    1        2.381   1.400  -0.023  0.00  0.00    +0.128 A 
ATOM      4  S   LIG    1        3.903   2.297  -0.076  0.00  0.00    +0.062 S 
ATOM      5  N   LIG    1        3.473   3.882   0.218  0.00  0.00    -0.167 NA
ATOM      6  H   LIG    1        4.230   4.478  -0.116  0.00  0.00    +0.150 HD
ATOM      7  C   LIG    1        2.221   4.339  -0.419  0.00  0.00    +0.192 C 
ATOM      8  O   LIG    1        4.680   1.864   1.032  0.00  0.00    -0.153 OA
ATOM      9  O   LIG    1        4.373   2.237  -1.416  0.00  0.00    -0.153 OA
ATOM     10  C   LIG    1        2.396   0.021  -0.020  0.00  0.00    +0.060 A 
ATOM     11  C   LIG    1        1.207  -0.685  -0.009  0.00  0.00    +0.125 A 
ATOM     12  N   LIG    1        1.126   3.485   0.032  0.00  0.00    -0.324 N 
ATOM     13  H   LIG    1        0.321   3.908   0.370  0.00  0.00    +0.148 HD
ATOM     14  C   LIG    1        0.002  -0.004   0.002  0.00  0.00    +0.069 A 
ATOM     15 CL   LIG    1       -1.491  -0.889   0.006  0.00  0.00    -0.081 Cl
ENDROOT
BRANCH   7  16
ATOM     16  C   LIG    1        1.943   5.790  -0.020  0.00  0.00    +0.207 C 
ATOM     17 CL   LIG    1        0.414   6.345  -0.800  0.00  0.00    -0.101 Cl
ATOM     18 CL   LIG    1        3.308   6.835  -0.562  0.00  0.00    -0.101 Cl
ENDBRANCH   7  16
BRANCH  11  19
ATOM     19  S   LIG    1        1.226  -2.447  -0.008  0.00  0.00    +0.057 S 
ATOM     20  O   LIG    1        2.592  -2.839   0.006  0.00  0.00    -0.153 OA
ATOM     21  O   LIG    1        0.325  -2.863  -1.025  0.00  0.00    -0.153 OA
BRANCH  19  22
ATOM     22  N   LIG    1        0.576  -2.943   1.432  0.00  0.00    -0.203 NA
ATOM     23  H   LIG    1        0.497  -3.890   1.628  0.00  0.00    +0.144 HD
ATOM     24  H   LIG    1        0.274  -2.287   2.079  0.00  0.00    +0.144 HD
ENDBRANCH  19  22
ENDBRANCH  11  19
TORSDOF 3
