REMARK  Name = ZINC01011313
REMARK                            x       y       z     vdW  Elec       q    Type
REMARK                         _______ _______ _______ _____ _____    ______ ____
ROOT
ATOM      1  C   LIG    1       -0.639   3.214   2.341  0.00  0.00    +0.001 A 
ATOM      2  C   LIG    1        0.685   3.518   2.613  0.00  0.00    +0.002 A 
ATOM      3  C   LIG    1        1.688   2.613   2.327  0.00  0.00    +0.024 A 
ATOM      4  C   LIG    1        1.377   1.382   1.761  0.00  0.00    +0.045 A 
ATOM      5  C   LIG    1        0.035   1.078   1.487  0.00  0.00    +0.010 A 
ATOM      6  C   LIG    1        0.026  -0.278   0.899  0.00  0.00    +0.065 C 
ATOM      7  C   LIG    1        1.444  -0.692   0.870  0.00  0.00    +0.253 C 
ATOM      8  O   LIG    1        1.871  -1.753   0.456  0.00  0.00    -0.270 OA
ATOM      9  C   LIG    1       -1.070  -1.001   0.469  0.00  0.00    +0.090 C 
ATOM     10  C   LIG    1       -2.521  -0.706   0.622  0.00  0.00    +0.263 C 
ATOM     11  N   LIG    1       -3.356  -1.587   0.099  0.00  0.00    -0.224 N 
ATOM     12  C   LIG    1       -2.913  -2.696  -0.527  0.00  0.00    +0.125 C 
ATOM     13  S   LIG    1       -3.834  -3.943  -1.253  0.00  0.00    -0.027 S 
ATOM     14  O   LIG    1       -2.916   0.292   1.193  0.00  0.00    -0.269 OA
ATOM     15  S   LIG    1       -1.137  -2.552  -0.417  0.00  0.00    -0.060 S 
ATOM     16  N   LIG    1        2.177   0.311   1.382  0.00  0.00    -0.256 N 
ATOM     17  C   LIG    1       -0.969   1.996   1.783  0.00  0.00    +0.010 A 
ENDROOT
BRANCH  11  18
ATOM     18  C   LIG    1       -4.736  -1.367   0.203  0.00  0.00    +0.043 A 
ATOM     19  C   LIG    1       -5.435  -1.842   1.304  0.00  0.00    +0.025 A 
ATOM     20  C   LIG    1       -6.794  -1.618   1.408  0.00  0.00    +0.017 A 
ATOM     21  C   LIG    1       -7.461  -0.930   0.410  0.00  0.00    +0.018 A 
ATOM     22 BR   LIG    1       -9.323  -0.632   0.551  0.00  0.00    -0.050 Br
ATOM     23  C   LIG    1       -6.768  -0.460  -0.692  0.00  0.00    +0.017 A 
ATOM     24  C   LIG    1       -5.408  -0.676  -0.797  0.00  0.00    +0.025 A 
ENDBRANCH  11  18
BRANCH  16  25
ATOM     25  C   LIG    1        3.635   0.279   1.522  0.00  0.00    +0.234 C 
BRANCH  25  26
ATOM     26  C   LIG    1        4.272   0.830   0.272  0.00  0.00    +0.323 C 
ATOM     27  O   LIG    1        3.579   1.210  -0.642  0.00  0.00    -0.249 OA
BRANCH  26  28
ATOM     28  O   LIG    1        5.609   0.899   0.174  0.00  0.00    -0.480 OA
ATOM     29  H   LIG    1        6.146   0.604   0.883  0.00  0.00    +0.295 HD
ENDBRANCH  26  28
ENDBRANCH  25  26
ENDBRANCH  16  25
TORSDOF 4
