REMARK  Name = ZINC00877569
REMARK                            x       y       z     vdW  Elec       q    Type
REMARK                         _______ _______ _______ _____ _____    ______ ____
ROOT
ATOM      1  C   LIG    1        4.049  -1.182   1.377  0.00  0.00    +0.123 C 
ENDROOT
BRANCH   1   2
ATOM      2  C   LIG    1        5.419  -1.809   1.383  0.00  0.00    +0.221 C 
ATOM      3  N   LIG    1        5.930  -2.302   2.529  0.00  0.00    -0.265 N 
ATOM      4  H   LIG    1        5.415  -2.253   3.350  0.00  0.00    +0.157 HD
ATOM      5  O   LIG    1        6.062  -1.870   0.357  0.00  0.00    -0.275 OA
BRANCH   3   6
ATOM      6  C   LIG    1        7.190  -2.878   2.534  0.00  0.00    +0.165 A 
ATOM      7  N   LIG    1        8.030  -3.030   1.537  0.00  0.00    -0.225 NA
ATOM      8  C   LIG    1        9.237  -3.616   1.688  0.00  0.00    +0.080 A 
ATOM      9  C   LIG    1       10.228  -3.840   0.704  0.00  0.00    +0.031 A 
ATOM     10  C   LIG    1       11.409  -4.455   1.027  0.00  0.00    +0.035 A 
ATOM     11  C   LIG    1       11.676  -4.879   2.321  0.00  0.00    +0.123 A 
ATOM     12  C   LIG    1       10.729  -4.676   3.309  0.00  0.00    +0.049 A 
ATOM     13  C   LIG    1        9.543  -4.060   2.994  0.00  0.00    +0.043 A 
ATOM     14  S   LIG    1        8.087  -3.598   3.902  0.00  0.00    -0.052 S 
BRANCH  11  15
ATOM     15  N   LIG    1       12.960  -5.542   2.642  0.00  0.00    +0.006 N 
ATOM     16  O   LIG    1       13.783  -5.716   1.774  0.00  0.00    -0.130 OA
BRANCH  15  17
ATOM     17  O   LIG    1       13.186  -5.908   3.772  0.00  0.00    -0.396 OA
ATOM     18  H   LIG    1       12.548  -5.773   4.444  0.00  0.00    +0.329 HD
ENDBRANCH  15  17
ENDBRANCH  11  15
ENDBRANCH   3   6
ENDBRANCH   1   2
BRANCH   1  19
ATOM     19  C   LIG    1        3.711  -0.707  -0.038  0.00  0.00    +0.112 C 
BRANCH  19  23
ATOM     20  C   LIG    1       -0.017   1.378   0.010  0.00  0.00    +0.000 A 
ATOM     21  C   LIG    1        1.171   2.086   0.002  0.00  0.00    +0.000 A 
ATOM     22  C   LIG    1        2.377   1.411  -0.013  0.00  0.00    +0.005 A 
ATOM     23  C   LIG    1        2.396   0.029  -0.020  0.00  0.00    -0.027 A 
ATOM     24  C   LIG    1        1.208  -0.679  -0.012  0.00  0.00    +0.005 A 
ATOM     25  C   LIG    1        0.002  -0.004   0.002  0.00  0.00    +0.000 A 
ENDBRANCH  19  23
BRANCH  19  26
ATOM     26  N   LIG    1        3.611  -1.865  -0.930  0.00  0.00    -0.304 N 
ATOM     27  H   LIG    1        3.392  -2.738  -0.569  0.00  0.00    +0.150 HD
ATOM     28  C   LIG    1        3.825  -1.716  -2.253  0.00  0.00    +0.245 C 
ATOM     29  O   LIG    1        4.099  -0.622  -2.705  0.00  0.00    -0.270 OA
BRANCH  28  30
ATOM     30  C   LIG    1        3.724  -2.884  -3.154  0.00  0.00    +0.037 A 
ATOM     31  C   LIG    1        3.403  -4.141  -2.638  0.00  0.00    +0.013 A 
ATOM     32  C   LIG    1        3.310  -5.226  -3.485  0.00  0.00    +0.001 A 
ATOM     33  C   LIG    1        3.535  -5.072  -4.841  0.00  0.00    +0.000 A 
ATOM     34  C   LIG    1        3.854  -3.829  -5.358  0.00  0.00    +0.001 A 
ATOM     35  C   LIG    1        3.944  -2.733  -4.524  0.00  0.00    +0.013 A 
ENDBRANCH  28  30
ENDBRANCH  19  26
ENDBRANCH   1  19
TORSDOF 8
