REMARK  Name = ZINC01206161
REMARK                            x       y       z     vdW  Elec       q    Type
REMARK                         _______ _______ _______ _____ _____    ______ ____
ROOT
ATOM      1  C   LIG    1        3.634  -2.137  -0.278  0.00  0.00    -0.023 A 
ATOM      2  C   LIG    1        2.490  -2.950  -0.144  0.00  0.00    +0.008 A 
ATOM      3  C   LIG    1        1.249  -2.441  -0.339  0.00  0.00    +0.009 A 
ATOM      4  C   LIG    1        1.089  -1.084  -0.681  0.00  0.00    -0.018 A 
ATOM      5  C   LIG    1       -0.188  -0.536  -0.888  0.00  0.00    +0.008 A 
ATOM      6  C   LIG    1       -0.313   0.779  -1.218  0.00  0.00    +0.001 A 
ATOM      7  C   LIG    1        0.808   1.595  -1.354  0.00  0.00    +0.001 A 
ATOM      8  C   LIG    1        2.062   1.100  -1.161  0.00  0.00    +0.008 A 
ATOM      9  C   LIG    1        2.230  -0.254  -0.819  0.00  0.00    -0.017 A 
ATOM     10  C   LIG    1        3.507  -0.795  -0.614  0.00  0.00    +0.016 A 
ENDROOT
BRANCH   1  16
ATOM     11  C   LIG    1        7.289  -6.706   1.751  0.00  0.00    +0.139 C 
ATOM     12  N   LIG    1        6.137  -5.833   1.510  0.00  0.00    -0.258 N 
ATOM     13  C   LIG    1        6.302  -4.723   0.811  0.00  0.00    +0.258 C 
ATOM     14  C   LIG    1        5.100  -3.887   0.604  0.00  0.00    +0.077 C 
ATOM     15  S   LIG    1        3.871  -4.846   1.479  0.00  0.00    -0.061 S 
ATOM     16  C   LIG    1        4.968  -2.713  -0.062  0.00  0.00    +0.028 C 
ATOM     17  O   LIG    1        7.387  -4.406   0.361  0.00  0.00    -0.269 OA
ATOM     18  C   LIG    1        4.932  -6.181   2.007  0.00  0.00    +0.120 C 
ATOM     19  S   LIG    1        4.522  -7.565   2.927  0.00  0.00    -0.027 S 
ENDBRANCH   1  16
TORSDOF 1
