REMARK  Name = ZINC01274665
REMARK                            x       y       z     vdW  Elec       q    Type
REMARK                         _______ _______ _______ _____ _____    ______ ____
ROOT
ATOM      1  C   LIG    1       -2.501   0.983  -0.131  0.00  0.00    +0.169 A 
ATOM      2  N   LIG    1       -2.643  -0.299   0.109  0.00  0.00    -0.128 NA
ATOM      3  N   LIG    1       -3.890  -0.589   0.227  0.00  0.00    -0.122 NA
ATOM      4  C   LIG    1       -4.622   0.491   0.070  0.00  0.00    +0.197 A 
ATOM      5  N   LIG    1       -3.764   1.532  -0.158  0.00  0.00    -0.270 N 
ENDROOT
BRANCH   1  10
ATOM      6  C   LIG    1        2.463   3.792  -0.892  0.00  0.00    +0.044 C 
ATOM      7  C   LIG    1        1.164   3.055  -0.695  0.00  0.00    -0.050 A 
ATOM      8  C   LIG    1       -0.024   3.632  -1.109  0.00  0.00    +0.004 A 
ATOM      9  C   LIG    1       -1.218   2.963  -0.932  0.00  0.00    +0.012 A 
ATOM     10  C   LIG    1       -1.225   1.704  -0.329  0.00  0.00    +0.020 A 
ATOM     11  C   LIG    1       -0.023   1.126   0.082  0.00  0.00    +0.012 A 
ATOM     12  C   LIG    1        1.163   1.806  -0.101  0.00  0.00    +0.004 A 
ENDBRANCH   1  10
BRANCH   5  13
ATOM     13  C   LIG    1       -4.100   2.875  -0.377  0.00  0.00    +0.051 A 
ATOM     14  C   LIG    1       -3.775   3.837   0.571  0.00  0.00    +0.026 A 
ATOM     15  C   LIG    1       -4.102   5.160   0.350  0.00  0.00    +0.002 A 
ATOM     16  C   LIG    1       -4.764   5.527  -0.808  0.00  0.00    +0.000 A 
ATOM     17  C   LIG    1       -5.094   4.571  -1.751  0.00  0.00    +0.002 A 
ATOM     18  C   LIG    1       -4.764   3.246  -1.538  0.00  0.00    +0.026 A 
ENDBRANCH   5  13
BRANCH   4  19
ATOM     19  S   LIG    1       -6.380   0.583   0.147  0.00  0.00    -0.078 S 
BRANCH  19  20
ATOM     20  C   LIG    1       -6.771  -1.152   0.482  0.00  0.00    +0.157 C 
BRANCH  20  21
ATOM     21  C   LIG    1       -8.265  -1.319   0.592  0.00  0.00    +0.173 C 
ATOM     22  O   LIG    1       -8.993  -0.359   0.456  0.00  0.00    -0.291 OA
BRANCH  21  23
ATOM     23  C   LIG    1       -8.838  -2.643   0.862  0.00  0.00    +0.022 A 
ATOM     24  C   LIG    1       -7.999  -3.754   1.013  0.00  0.00    +0.015 A 
ATOM     25  C   LIG    1       -8.539  -4.994   1.274  0.00  0.00    +0.050 A 
ATOM     26  C   LIG    1       -9.916  -5.148   1.374  0.00  0.00    +0.158 A 
ATOM     27  C   LIG    1      -10.759  -4.048   1.219  0.00  0.00    +0.159 A 
ATOM     28  C   LIG    1      -10.226  -2.800   0.965  0.00  0.00    +0.060 A 
BRANCH  26  29
ATOM     29  O   LIG    1      -10.443  -6.374   1.625  0.00  0.00    -0.503 OA
ATOM     30  H   LIG    1      -10.641  -6.887   0.830  0.00  0.00    +0.292 HD
ENDBRANCH  26  29
BRANCH  27  31
ATOM     31  O   LIG    1      -12.106  -4.204   1.319  0.00  0.00    -0.503 OA
ATOM     32  H   LIG    1      -12.542  -4.407   0.480  0.00  0.00    +0.292 HD
ENDBRANCH  27  31
ENDBRANCH  21  23
ENDBRANCH  20  21
ENDBRANCH  19  20
ENDBRANCH   4  19
TORSDOF 8
