REMARK  Name = ZINC00856800
REMARK                            x       y       z     vdW  Elec       q    Type
REMARK                         _______ _______ _______ _____ _____    ______ ____
ROOT
ATOM      1  C   LIG    1       -0.712  -0.180   3.015  0.00  0.00    +0.027 C 
ENDROOT
BRANCH   1   2
ATOM      2  C   LIG    1       -1.651  -1.080   3.820  0.00  0.00    +0.027 C 
BRANCH   2   7
ATOM      3  C   LIG    1        1.733  -4.758   3.904  0.00  0.00    +0.041 C 
ATOM      4  C   LIG    1        0.856  -3.844   4.763  0.00  0.00    +0.064 C 
ATOM      5  C   LIG    1        1.739  -3.055   5.732  0.00  0.00    +0.041 C 
ATOM      6  C   LIG    1        0.093  -2.872   3.860  0.00  0.00    +0.038 C 
ATOM      7  C   LIG    1       -0.827  -2.002   4.721  0.00  0.00    +0.001 C 
ATOM      8  C   LIG    1       -1.765  -2.907   5.525  0.00  0.00    +0.032 C 
ATOM      9  C   LIG    1       -0.930  -3.879   6.362  0.00  0.00    +0.161 C 
ATOM     10  O   LIG    1       -0.075  -4.636   5.503  0.00  0.00    -0.374 OA
ENDBRANCH   2   7
BRANCH   2  11
ATOM     11  C   LIG    1       -2.559  -0.228   4.669  0.00  0.00    -0.002 A 
ATOM     12  C   LIG    1       -2.022   0.624   5.615  0.00  0.00    +0.007 A 
ATOM     13  C   LIG    1       -2.854   1.407   6.394  0.00  0.00    +0.001 A 
ATOM     14  C   LIG    1       -4.225   1.339   6.228  0.00  0.00    +0.004 A 
ATOM     15  C   LIG    1       -4.767   0.489   5.284  0.00  0.00    +0.046 A 
ATOM     16  C   LIG    1       -3.934  -0.294   4.498  0.00  0.00    +0.124 A 
BRANCH  16  17
ATOM     17  O   LIG    1       -4.464  -1.127   3.565  0.00  0.00    -0.495 OA
ATOM     18  C   LIG    1       -5.888  -1.143   3.443  0.00  0.00    +0.277 C 
ENDBRANCH  16  17
ENDBRANCH   2  11
ENDBRANCH   1   2
BRANCH   1  19
ATOM     19  C   LIG    1       -1.528   0.653   2.025  0.00  0.00    +0.109 C 
BRANCH  19  20
ATOM     20  N   LIG    1       -0.629   1.515   1.254  0.00  0.00    -0.291 N 
ATOM     21  C   LIG    1       -0.332   2.751   1.702  0.00  0.00    +0.282 C 
ATOM     22  O   LIG    1       -0.737   3.118   2.789  0.00  0.00    -0.267 OA
BRANCH  21  23
ATOM     23  C   LIG    1        0.478   3.654   0.878  0.00  0.00    +0.189 A 
ATOM     24  C   LIG    1        0.759   4.961   1.159  0.00  0.00    +0.054 A 
ATOM     25  C   LIG    1        1.561   5.435   0.109  0.00  0.00    +0.042 A 
ATOM     26  C   LIG    1        1.726   4.413  -0.759  0.00  0.00    +0.196 A 
ATOM     27  O   LIG    1        1.072   3.342  -0.292  0.00  0.00    -0.458 OA
ENDBRANCH  21  23
BRANCH  20  28
ATOM     28  C   LIG    1       -0.052   1.033  -0.004  0.00  0.00    +0.143 C 
BRANCH  28  29
ATOM     29  C   LIG    1       -1.032   1.261  -1.125  0.00  0.00    -0.030 A 
ATOM     30  C   LIG    1       -1.871   0.238  -1.528  0.00  0.00    +0.009 A 
ATOM     31  C   LIG    1       -2.774   0.446  -2.552  0.00  0.00    +0.046 A 
ATOM     32  C   LIG    1       -2.832   1.679  -3.185  0.00  0.00    +0.120 A 
ATOM     33  C   LIG    1       -1.985   2.703  -2.784  0.00  0.00    +0.046 A 
ATOM     34  C   LIG    1       -1.087   2.491  -1.755  0.00  0.00    +0.009 A 
BRANCH  32  35
ATOM     35  O   LIG    1       -3.716   1.885  -4.196  0.00  0.00    -0.495 OA
ATOM     36  C   LIG    1       -4.556   0.787  -4.556  0.00  0.00    +0.277 C 
ENDBRANCH  32  35
ENDBRANCH  28  29
ENDBRANCH  20  28
ENDBRANCH  19  20
ENDBRANCH   1  19
TORSDOF 10
