REMARK  Name = ZINC01228042
REMARK                            x       y       z     vdW  Elec       q    Type
REMARK                         _______ _______ _______ _____ _____    ______ ____
ROOT
ATOM      1  C   LIG    1       -3.430   3.894  -1.015  0.00  0.00    +0.030 A 
ATOM      2  C   LIG    1       -4.625   4.556  -0.996  0.00  0.00    +0.031 A 
ATOM      3  C   LIG    1       -4.917   5.447   0.041  0.00  0.00    +0.082 A 
ATOM      4  C   LIG    1       -3.986   5.659   1.065  0.00  0.00    +0.068 A 
ATOM      5 CL   LIG    1       -4.347   6.766   2.353  0.00  0.00    -0.081 Cl
ATOM      6  C   LIG    1       -2.785   4.988   1.048  0.00  0.00    +0.049 A 
ATOM      7  C   LIG    1       -2.498   4.097   0.008  0.00  0.00    +0.065 A 
ENDROOT
BRANCH   3   8
ATOM      8  N   LIG    1       -6.111   6.112   0.054  0.00  0.00    -0.253 NA
ATOM      9  C   LIG    1       -7.224   5.459  -0.144  0.00  0.00    +0.123 C 
BRANCH   9  10
ATOM     10  C   LIG    1       -8.494   6.188  -0.249  0.00  0.00    +0.035 A 
ATOM     11  C   LIG    1       -9.690   5.491  -0.460  0.00  0.00    +0.016 A 
ATOM     12  C   LIG    1      -10.877   6.178  -0.558  0.00  0.00    +0.046 A 
ATOM     13  C   LIG    1      -10.895   7.565  -0.448  0.00  0.00    +0.120 A 
ATOM     14  C   LIG    1       -9.717   8.267  -0.238  0.00  0.00    +0.091 A 
ATOM     15  C   LIG    1       -8.516   7.588  -0.132  0.00  0.00    +0.129 A 
BRANCH  13  16
ATOM     16  O   LIG    1      -12.072   8.236  -0.546  0.00  0.00    -0.507 OA
ATOM     17  H   LIG    1      -12.526   8.359   0.299  0.00  0.00    +0.292 HD
ENDBRANCH  13  16
BRANCH  15  18
ATOM     18  O   LIG    1       -7.363   8.272   0.079  0.00  0.00    -0.506 OA
ATOM     19  H   LIG    1       -6.914   8.545  -0.733  0.00  0.00    +0.292 HD
ENDBRANCH  15  18
ENDBRANCH   9  10
ENDBRANCH   3   8
BRANCH   7  20
ATOM     20  N   LIG    1       -1.306   3.429  -0.011  0.00  0.00    -0.255 NA
ATOM     21  C   LIG    1       -1.278   2.152  -0.279  0.00  0.00    +0.123 C 
BRANCH  21  22
ATOM     22  C   LIG    1        0.003   1.435  -0.300  0.00  0.00    +0.035 A 
ATOM     23  C   LIG    1        0.037   0.065  -0.587  0.00  0.00    +0.016 A 
ATOM     24  C   LIG    1        1.241  -0.602  -0.611  0.00  0.00    +0.046 A 
ATOM     25  C   LIG    1        2.425   0.080  -0.351  0.00  0.00    +0.120 A 
ATOM     26  C   LIG    1        2.403   1.438  -0.065  0.00  0.00    +0.091 A 
ATOM     27  C   LIG    1        1.200   2.121  -0.037  0.00  0.00    +0.129 A 
BRANCH  25  28
ATOM     28  O   LIG    1        3.608  -0.586  -0.377  0.00  0.00    -0.507 OA
ATOM     29  H   LIG    1        4.035  -0.596  -1.244  0.00  0.00    +0.292 HD
ENDBRANCH  25  28
BRANCH  27  30
ATOM     30  O   LIG    1        1.177   3.449   0.243  0.00  0.00    -0.506 OA
ATOM     31  H   LIG    1        1.086   3.651   1.184  0.00  0.00    +0.292 HD
ENDBRANCH  27  30
ENDBRANCH  21  22
ENDBRANCH   7  20
TORSDOF 8
