REMARK  Name = ZINC00993502
REMARK                            x       y       z     vdW  Elec       q    Type
REMARK                         _______ _______ _______ _____ _____    ______ ____
ROOT
ATOM      1  C   LIG    1       -0.013   1.374   0.193  0.00  0.00    +0.025 A 
ATOM      2  C   LIG    1        1.174   2.082   0.190  0.00  0.00    +0.030 A 
ATOM      3  C   LIG    1        2.374   1.421   0.002  0.00  0.00    +0.105 A 
ATOM      4  C   LIG    1        2.391   0.051  -0.183  0.00  0.00    +0.030 A 
ATOM      5  C   LIG    1        1.208  -0.663  -0.180  0.00  0.00    +0.025 A 
ATOM      6  C   LIG    1        0.001  -0.002   0.007  0.00  0.00    +0.034 A 
ENDROOT
BRANCH   6   7
ATOM      7  N   LIG    1       -1.199  -0.722   0.010  0.00  0.00    -0.278 N 
ATOM      8  H   LIG    1       -1.221  -1.627   0.357  0.00  0.00    +0.155 HD
ATOM      9  C   LIG    1       -2.325  -0.156  -0.469  0.00  0.00    +0.321 C 
ATOM     10  O   LIG    1       -2.280   0.938  -0.990  0.00  0.00    -0.266 OA
BRANCH   9  11
ATOM     11  C   LIG    1       -3.640  -0.884  -0.358  0.00  0.00    +0.470 C 
ATOM     12  F   LIG    1       -3.929  -1.122   0.990  0.00  0.00    -0.162 F 
ATOM     13  F   LIG    1       -3.557  -2.103  -1.039  0.00  0.00    -0.162 F 
ATOM     14  F   LIG    1       -4.654  -0.103  -0.921  0.00  0.00    -0.162 F 
ENDBRANCH   9  11
ENDBRANCH   6   7
BRANCH   3  15
ATOM     15  S   LIG    1        3.885   2.327  -0.002  0.00  0.00    +0.056 S 
ATOM     16  O   LIG    1        3.556   3.664  -0.354  0.00  0.00    -0.153 OA
ATOM     17  O   LIG    1        4.821   1.553  -0.740  0.00  0.00    -0.153 OA
BRANCH  15  18
ATOM     18  N   LIG    1        4.434   2.370   1.560  0.00  0.00    -0.204 NA
ATOM     19  H   LIG    1        3.804   2.353   2.296  0.00  0.00    +0.144 HD
ATOM     20  H   LIG    1        5.387   2.413   1.738  0.00  0.00    +0.144 HD
ENDBRANCH  15  18
ENDBRANCH   3  15
TORSDOF 4
