REMARK  Name = ZINC00966859
REMARK                            x       y       z     vdW  Elec       q    Type
REMARK                         _______ _______ _______ _____ _____    ______ ____
ROOT
ATOM      1  N   LIG    1        0.658   2.162  -0.762  0.00  0.00    -0.224 N 
ATOM      2  C   LIG    1       -0.391   1.630  -0.158  0.00  0.00    +0.263 C 
ATOM      3  C   LIG    1       -0.430   0.151  -0.083  0.00  0.00    +0.077 C 
ATOM      4  S   LIG    1        1.094  -0.266  -0.918  0.00  0.00    -0.061 S 
ATOM      5  C   LIG    1       -1.366  -0.662   0.468  0.00  0.00    +0.028 C 
ATOM      6  O   LIG    1       -1.280   2.318   0.307  0.00  0.00    -0.269 OA
ATOM      7  C   LIG    1        1.638   1.395  -1.281  0.00  0.00    +0.125 C 
ATOM      8  S   LIG    1        3.061   1.893  -2.092  0.00  0.00    -0.027 S 
ENDROOT
BRANCH   1  13
ATOM      9  C   LIG    1       -0.029   5.629  -1.782  0.00  0.00    +0.002 A 
ATOM     10  C   LIG    1        0.943   6.309  -1.071  0.00  0.00    +0.012 A 
ATOM     11  C   LIG    1        1.821   5.616  -0.258  0.00  0.00    +0.057 A 
ATOM     12  C   LIG    1        1.729   4.242  -0.153  0.00  0.00    +0.036 A 
ATOM     13  C   LIG    1        0.754   3.556  -0.866  0.00  0.00    +0.043 A 
ATOM     14  C   LIG    1       -0.123   4.255  -1.685  0.00  0.00    +0.024 A 
BRANCH  11  15
ATOM     15  C   LIG    1        2.879   6.360   0.515  0.00  0.00    +0.417 C 
ATOM     16  F   LIG    1        3.164   5.671   1.699  0.00  0.00    -0.166 F 
ATOM     17  F   LIG    1        2.415   7.644   0.824  0.00  0.00    -0.166 F 
ATOM     18  F   LIG    1        4.040   6.458  -0.259  0.00  0.00    -0.166 F 
ENDBRANCH  11  15
ENDBRANCH   1  13
BRANCH   5  19
ATOM     19  C   LIG    1       -1.270  -2.117   0.291  0.00  0.00    -0.024 A 
ATOM     20  C   LIG    1       -0.332  -2.655  -0.599  0.00  0.00    +0.009 A 
ATOM     21  C   LIG    1       -0.240  -4.008  -0.759  0.00  0.00    +0.015 A 
ATOM     22  C   LIG    1       -1.090  -4.856  -0.043  0.00  0.00    +0.059 A 
ATOM     23  C   LIG    1       -2.031  -4.321   0.843  0.00  0.00    +0.015 A 
ATOM     24  C   LIG    1       -2.121  -2.968   1.008  0.00  0.00    +0.009 A 
BRANCH  22  25
ATOM     25  C   LIG    1       -0.995  -6.318  -0.221  0.00  0.00    +0.337 C 
ATOM     26  O   LIG    1       -1.733  -7.056   0.401  0.00  0.00    -0.245 OA
BRANCH  25  27
ATOM     27  O   LIG    1       -0.089  -6.835  -1.074  0.00  0.00    -0.477 OA
ATOM     28  H   LIG    1        0.481  -6.266  -1.554  0.00  0.00    +0.295 HD
ENDBRANCH  25  27
ENDBRANCH  22  25
ENDBRANCH   5  19
TORSDOF 5
