REMARK  Name = ZINC00943071
REMARK                            x       y       z     vdW  Elec       q    Type
REMARK                         _______ _______ _______ _____ _____    ______ ____
ROOT
ATOM      1  C   LIG    1        0.074  -4.232   0.191  0.00  0.00    +0.117 C 
ATOM      2  C   LIG    1       -1.117  -4.937   0.303  0.00  0.00    +0.070 C 
ENDROOT
BRANCH   2   3
ATOM      3  C   LIG    1       -1.097  -6.337   0.401  0.00  0.00    +0.130 A 
ATOM      4  C   LIG    1       -2.208  -7.161   0.512  0.00  0.00    +0.050 A 
ATOM      5  C   LIG    1       -1.734  -8.470   0.582  0.00  0.00    +0.050 A 
ATOM      6  C   LIG    1       -0.358  -8.405   0.512  0.00  0.00    +0.137 A 
ATOM      7  O   LIG    1        0.006  -7.116   0.398  0.00  0.00    -0.455 OA
BRANCH   6   8
ATOM      8  C   LIG    1        0.561  -9.559   0.549  0.00  0.00    +0.037 A 
ATOM      9  C   LIG    1        0.432 -10.527   1.548  0.00  0.00    +0.033 A 
ATOM     10  C   LIG    1        1.295 -11.604   1.577  0.00  0.00    +0.042 A 
ATOM     11 CL   LIG    1        1.137 -12.807   2.818  0.00  0.00    -0.084 Cl
ATOM     12  C   LIG    1        2.287 -11.726   0.618  0.00  0.00    +0.021 A 
ATOM     13  C   LIG    1        2.421 -10.772  -0.374  0.00  0.00    +0.022 A 
ATOM     14  C   LIG    1        1.561  -9.692  -0.419  0.00  0.00    +0.052 A 
ATOM     15 CL   LIG    1        1.726  -8.499  -1.669  0.00  0.00    -0.083 Cl
ENDBRANCH   6   8
ENDBRANCH   2   3
BRANCH   1  18
ATOM     16  N   LIG    1        1.210  -2.085  -0.021  0.00  0.00    -0.280 N 
ATOM     17  H   LIG    1        2.049  -2.562  -0.112  0.00  0.00    +0.155 HD
ATOM     18  C   LIG    1        0.054  -2.769   0.088  0.00  0.00    +0.259 C 
ATOM     19  O   LIG    1       -1.007  -2.172   0.102  0.00  0.00    -0.269 OA
BRANCH  16  24
ATOM     20  C   LIG    1        0.154   1.381   0.636  0.00  0.00    +0.004 A 
ATOM     21  C   LIG    1        1.147   2.107   0.053  0.00  0.00    +0.028 A 
ATOM     22  C   LIG    1        2.215   1.454  -0.586  0.00  0.00    +0.073 A 
ATOM     23  C   LIG    1        2.241   0.037  -0.614  0.00  0.00    +0.022 A 
ATOM     24  C   LIG    1        1.200  -0.691  -0.003  0.00  0.00    +0.043 A 
ATOM     25  C   LIG    1        3.310  -0.613  -1.254  0.00  0.00    +0.013 A 
ATOM     26  C   LIG    1        4.285   0.157  -1.825  0.00  0.00    +0.020 A 
ATOM     27  C   LIG    1        4.199   1.546  -1.762  0.00  0.00    +0.111 A 
ATOM     28  N   LIG    1        3.200   2.148  -1.165  0.00  0.00    -0.255 NA
ATOM     29  C   LIG    1        0.170  -0.010   0.614  0.00  0.00    +0.024 A 
ENDBRANCH  16  24
ENDBRANCH   1  18
BRANCH   1  30
ATOM     30  C   LIG    1        1.323  -4.934   0.175  0.00  0.00    +0.104 C 
ATOM     31  N   LIG    1        2.313  -5.490   0.162  0.00  0.00    -0.191 NA
ENDBRANCH   1  30
TORSDOF 5
