REMARK  Name = ZINC01034831
REMARK                            x       y       z     vdW  Elec       q    Type
REMARK                         _______ _______ _______ _____ _____    ______ ____
ROOT
ATOM      1  C   LIG    1        5.419  -0.076   1.572  0.00  0.00    +0.244 C 
ATOM      2  N   LIG    1        4.123   0.212   1.341  0.00  0.00    -0.306 N 
ATOM      3  H   LIG    1        3.499   0.271   2.081  0.00  0.00    +0.149 HD
ATOM      4  O   LIG    1        6.202  -0.151   0.643  0.00  0.00    -0.270 OA
ENDROOT
BRANCH   1  11
ATOM      5  C   LIG    1        9.279  -1.026   6.267  0.00  0.00    +0.001 A 
ATOM      6  C   LIG    1        8.295  -1.276   7.210  0.00  0.00    +0.004 A 
ATOM      7  C   LIG    1        6.961  -1.305   6.845  0.00  0.00    +0.046 A 
ATOM      8  C   LIG    1        6.602  -1.081   5.529  0.00  0.00    +0.128 A 
ATOM      9  C   LIG    1        7.598  -0.826   4.570  0.00  0.00    +0.017 A 
ATOM     10  C   LIG    1        7.187  -0.595   3.177  0.00  0.00    +0.023 C 
ATOM     11  C   LIG    1        5.885  -0.299   2.941  0.00  0.00    +0.052 C 
ATOM     12  C   LIG    1        4.920  -0.208   4.093  0.00  0.00    +0.269 C 
ATOM     13  O   LIG    1        5.304  -1.101   5.139  0.00  0.00    -0.487 OA
ATOM     14  C   LIG    1        8.940  -0.800   4.949  0.00  0.00    +0.011 A 
ENDBRANCH   1  11
BRANCH   2  15
ATOM     15  C   LIG    1        3.656   0.435  -0.030  0.00  0.00    +0.160 C 
BRANCH  15  16
ATOM     16  C   LIG    1        2.180   0.738  -0.015  0.00  0.00    +0.066 A 
ATOM     17  C   LIG    1        1.750   2.026  -0.004  0.00  0.00    +0.072 A 
ATOM     18  S   LIG    1       -0.022   1.784   0.012  0.00  0.00    -0.075 S 
ATOM     19  C   LIG    1        0.002  -0.004   0.002  0.00  0.00    +0.115 A 
ATOM     20  N   LIG    1        1.308  -0.244  -0.012  0.00  0.00    -0.242 NA
BRANCH  19  21
ATOM     21  C   LIG    1       -1.122  -0.953   0.008  0.00  0.00    +0.044 A 
ATOM     22  C   LIG    1       -2.470  -0.697   0.028  0.00  0.00    +0.018 A 
ATOM     23  C   LIG    1       -3.345  -1.760   0.025  0.00  0.00    +0.008 A 
ATOM     24  C   LIG    1       -2.849  -3.025   0.014  0.00  0.00    +0.046 A 
ATOM     25  S   LIG    1       -1.087  -2.738  -0.001  0.00  0.00    -0.095 S 
ENDBRANCH  19  21
ENDBRANCH  15  16
ENDBRANCH   2  15
TORSDOF 4
