REMARK  Name = ZINC01213187
REMARK                            x       y       z     vdW  Elec       q    Type
REMARK                         _______ _______ _______ _____ _____    ______ ____
ROOT
ATOM      1  C   LIG    1        4.947   0.139  -0.046  0.00  0.00    +0.029 A 
ATOM      2  C   LIG    1        5.563   0.486   1.156  0.00  0.00    +0.036 A 
ATOM      3  C   LIG    1        6.754   1.195   1.140  0.00  0.00    +0.049 A 
ATOM      4  C   LIG    1        7.332   1.560  -0.070  0.00  0.00    +0.028 A 
ATOM      5  C   LIG    1        6.725   1.218  -1.263  0.00  0.00    +0.048 A 
ATOM      6  C   LIG    1        5.538   0.504  -1.260  0.00  0.00    +0.125 A 
ENDROOT
BRANCH   1  15
ATOM      7  C   LIG    1       -0.016   1.357   0.009  0.00  0.00    +0.001 A 
ATOM      8  C   LIG    1        1.168   2.090   0.002  0.00  0.00    +0.001 A 
ATOM      9  C   LIG    1        2.378   1.465  -0.013  0.00  0.00    +0.009 A 
ATOM     10  C   LIG    1        2.436   0.064  -0.021  0.00  0.00    -0.007 A 
ATOM     11  C   LIG    1        1.233  -0.683  -0.013  0.00  0.00    -0.017 A 
ATOM     12  C   LIG    1        1.287  -2.088  -0.021  0.00  0.00    +0.012 A 
ATOM     13  C   LIG    1        2.489  -2.726  -0.035  0.00  0.00    +0.046 A 
ATOM     14  C   LIG    1        3.685  -2.008  -0.042  0.00  0.00    +0.125 A 
ATOM     15  C   LIG    1        3.675  -0.619  -0.037  0.00  0.00    +0.035 A 
ATOM     16  C   LIG    1        0.002  -0.004   0.002  0.00  0.00    +0.008 A 
BRANCH  14  17
ATOM     17  O   LIG    1        4.870  -2.673  -0.056  0.00  0.00    -0.506 OA
ATOM     18  H   LIG    1        5.205  -2.861  -0.943  0.00  0.00    +0.292 HD
ENDBRANCH  14  17
ENDBRANCH   1  15
BRANCH   3  19
ATOM     19  N   LIG    1        7.374   1.545   2.345  0.00  0.00    -0.216 N 
ATOM     20  H   LIG    1        6.965   1.288   3.202  0.00  0.00    +0.174 HD
BRANCH  19  21
ATOM     21  S   LIG    1        8.797   2.392   2.328  0.00  0.00    +0.074 S 
ATOM     22  O   LIG    1        8.500   3.674   1.790  0.00  0.00    -0.150 OA
ATOM     23  O   LIG    1        9.774   1.534   1.756  0.00  0.00    -0.150 OA
BRANCH  21  24
ATOM     24  C   LIG    1        9.271   2.648   4.006  0.00  0.00    +0.128 A 
ATOM     25  C   LIG    1       10.428   2.068   4.493  0.00  0.00    +0.050 A 
ATOM     26  C   LIG    1       10.800   2.269   5.810  0.00  0.00    +0.043 A 
ATOM     27 CL   LIG    1       12.252   1.541   6.422  0.00  0.00    -0.083 Cl
ATOM     28  C   LIG    1       10.014   3.049   6.640  0.00  0.00    +0.021 A 
ATOM     29  C   LIG    1        8.858   3.628   6.153  0.00  0.00    +0.023 A 
ATOM     30  C   LIG    1        8.489   3.432   4.834  0.00  0.00    +0.068 A 
ATOM     31 CL   LIG    1        7.040   4.166   4.220  0.00  0.00    -0.082 Cl
ENDBRANCH  21  24
ENDBRANCH  19  21
ENDBRANCH   3  19
BRANCH   6  32
ATOM     32  O   LIG    1        4.946   0.163  -2.436  0.00  0.00    -0.506 OA
ATOM     33  H   LIG    1        4.322   0.824  -2.767  0.00  0.00    +0.292 HD
ENDBRANCH   6  32
TORSDOF 6
