REMARK  Name = ZINC01059557
REMARK                            x       y       z     vdW  Elec       q    Type
REMARK                         _______ _______ _______ _____ _____    ______ ____
ROOT
ATOM      1  C   LIG    1       -1.221   1.780   0.017  0.00  0.00    +0.094 A 
ATOM      2  C   LIG    1       -0.013   1.076   0.008  0.00  0.00    +0.035 A 
ATOM      3  C   LIG    1        1.164   1.805   0.001  0.00  0.00    +0.071 A 
ATOM      4  C   LIG    1        1.072   3.196   0.009  0.00  0.00    +0.243 A 
ATOM      5  N   LIG    1       -0.116   3.779   0.024  0.00  0.00    -0.110 NA
ATOM      6  N   LIG    1       -1.209   3.107   0.030  0.00  0.00    -0.146 NA
ENDROOT
BRANCH   1  10
ATOM      7  C   LIG    1       -4.916  -0.322   0.022  0.00  0.00    +0.000 A 
ATOM      8  C   LIG    1       -4.910   1.061   0.030  0.00  0.00    +0.001 A 
ATOM      9  C   LIG    1       -3.714   1.749   0.029  0.00  0.00    +0.010 A 
ATOM     10  C   LIG    1       -2.510   1.047   0.019  0.00  0.00    +0.002 A 
ATOM     11  C   LIG    1       -2.522  -0.347   0.006  0.00  0.00    +0.010 A 
ATOM     12  C   LIG    1       -3.724  -1.024   0.013  0.00  0.00    +0.001 A 
ENDBRANCH   1  10
BRANCH   4  13
ATOM     13  O   LIG    1        2.199   3.951   0.002  0.00  0.00    -0.402 OA
BRANCH  13  14
ATOM     14  C   LIG    1        2.063   5.294   0.011  0.00  0.00    +0.352 C 
ATOM     15  O   LIG    1        0.953   5.792   0.024  0.00  0.00    -0.244 OA
BRANCH  14  16
ATOM     16  C   LIG    1        3.250   6.150   0.003  0.00  0.00    +0.097 A 
ATOM     17  C   LIG    1        3.329   7.535   0.010  0.00  0.00    +0.023 A 
ATOM     18  C   LIG    1        4.584   8.089   0.001  0.00  0.00    +0.008 A 
ATOM     19  C   LIG    1        5.670   7.272  -0.013  0.00  0.00    +0.046 A 
ATOM     20  S   LIG    1        4.972   5.685  -0.009  0.00  0.00    -0.090 S 
ENDBRANCH  14  16
ENDBRANCH  13  14
ENDBRANCH   4  13
TORSDOF 4
