REMARK  Name = ZINC01055334
REMARK                            x       y       z     vdW  Elec       q    Type
REMARK                         _______ _______ _______ _____ _____    ______ ____
ROOT
ATOM      1  C   LIG    1        1.395   2.024  -0.000  0.00  0.00    +0.222 C 
ATOM      2  N   LIG    1        1.624   3.353   0.005  0.00  0.00    -0.279 N 
ATOM      3  H   LIG    1        0.878   3.973   0.015  0.00  0.00    +0.155 HD
ATOM      4  O   LIG    1        2.328   1.249  -0.013  0.00  0.00    -0.275 OA
ENDROOT
BRANCH   2   5
ATOM      5  C   LIG    1        2.925   3.833  -0.005  0.00  0.00    +0.084 A 
ATOM      6  C   LIG    1        3.358   5.153  -0.008  0.00  0.00    +0.065 A 
ATOM      7  C   LIG    1        4.785   5.369  -0.015  0.00  0.00    +0.022 A 
ATOM      8  C   LIG    1        5.571   4.277  -0.029  0.00  0.00    +0.048 A 
ATOM      9  S   LIG    1        4.403   2.932  -0.025  0.00  0.00    -0.081 S 
BRANCH   6  10
ATOM     10  C   LIG    1        2.411   6.273  -0.000  0.00  0.00    +0.244 C 
ATOM     11  N   LIG    1        2.867   7.541  -0.003  0.00  0.00    -0.325 N 
ATOM     12  H   LIG    1        2.241   8.282   0.002  0.00  0.00    +0.145 HD
ATOM     13  H   LIG    1        3.822   7.713  -0.010  0.00  0.00    +0.145 HD
ATOM     14  O   LIG    1        1.213   6.057   0.009  0.00  0.00    -0.270 OA
ENDBRANCH   6  10
ENDBRANCH   2   5
BRANCH   1  15
ATOM     15  C   LIG    1       -0.018   1.503   0.010  0.00  0.00    +0.132 C 
BRANCH  15  21
ATOM     16  C   LIG    1       -0.087  -2.072  -1.201  0.00  0.00    +0.000 A 
ATOM     17  C   LIG    1        0.039  -2.769  -0.013  0.00  0.00    +0.001 A 
ATOM     18  C   LIG    1        0.145  -2.084   1.182  0.00  0.00    +0.020 A 
ATOM     19  C   LIG    1        0.127  -0.701   1.190  0.00  0.00    +0.045 A 
ATOM     20 CL   LIG    1        0.261   0.160   2.692  0.00  0.00    -0.083 Cl
ATOM     21  C   LIG    1        0.002  -0.004   0.002  0.00  0.00    -0.020 A 
ATOM     22  C   LIG    1       -0.110  -0.690  -1.193  0.00  0.00    +0.005 A 
ENDBRANCH  15  21
ENDBRANCH   1  15
TORSDOF 4
