REMARK  Name = ZINC00947921
REMARK                            x       y       z     vdW  Elec       q    Type
REMARK                         _______ _______ _______ _____ _____    ______ ____
ROOT
ATOM      1  C   LIG    1        3.395  -1.980   2.246  0.00  0.00    +0.048 A 
ATOM      2  C   LIG    1        2.010  -1.895   2.179  0.00  0.00    +0.025 A 
ATOM      3  C   LIG    1        1.230  -2.765   2.915  0.00  0.00    +0.009 A 
ATOM      4  C   LIG    1        1.826  -3.720   3.718  0.00  0.00    +0.002 A 
ATOM      5  C   LIG    1        3.204  -3.808   3.787  0.00  0.00    +0.009 A 
ATOM      6  C   LIG    1        3.990  -2.945   3.049  0.00  0.00    +0.025 A 
ENDROOT
BRANCH   1   7
ATOM      7  N   LIG    1        4.187  -1.102   1.503  0.00  0.00    -0.216 N 
ATOM      8  H   LIG    1        4.646  -0.371   1.944  0.00  0.00    +0.174 HD
BRANCH   7   9
ATOM      9  S   LIG    1        4.343  -1.310  -0.133  0.00  0.00    +0.072 S 
ATOM     10  O   LIG    1        3.028  -1.450  -0.652  0.00  0.00    -0.150 OA
ATOM     11  O   LIG    1        5.238  -0.304  -0.587  0.00  0.00    -0.150 OA
BRANCH   9  15
ATOM     12  C   LIG    1        6.420  -5.279  -0.787  0.00  0.00    +0.000 A 
ATOM     13  C   LIG    1        5.046  -5.234  -0.641  0.00  0.00    +0.002 A 
ATOM     14  C   LIG    1        4.412  -4.022  -0.441  0.00  0.00    +0.029 A 
ATOM     15  C   LIG    1        5.152  -2.855  -0.387  0.00  0.00    +0.108 A 
ATOM     16  C   LIG    1        6.526  -2.901  -0.532  0.00  0.00    +0.029 A 
ATOM     17  C   LIG    1        7.160  -4.113  -0.733  0.00  0.00    +0.002 A 
ENDBRANCH   9  15
ENDBRANCH   7   9
ENDBRANCH   1   7
BRANCH   4  18
ATOM     18  C   LIG    1        0.971  -4.667   4.520  0.00  0.00    +0.282 C 
BRANCH  18  19
ATOM     19  C   LIG    1        1.235  -4.453   6.012  0.00  0.00    +0.431 C 
ATOM     20  F   LIG    1        2.585  -4.696   6.287  0.00  0.00    -0.167 F 
ATOM     21  F   LIG    1        0.442  -5.332   6.757  0.00  0.00    -0.167 F 
ATOM     22  F   LIG    1        0.919  -3.134   6.357  0.00  0.00    -0.167 F 
ENDBRANCH  18  19
BRANCH  18  23
ATOM     23  C   LIG    1        1.317  -6.109   4.144  0.00  0.00    +0.431 C 
ATOM     24  F   LIG    1        1.205  -6.269   2.759  0.00  0.00    -0.167 F 
ATOM     25  F   LIG    1        0.434  -6.984   4.787  0.00  0.00    -0.167 F 
ATOM     26  F   LIG    1        2.627  -6.394   4.542  0.00  0.00    -0.167 F 
ENDBRANCH  18  23
BRANCH  18  27
ATOM     27  O   LIG    1       -0.408  -4.419   4.240  0.00  0.00    -0.369 OA
ATOM     28  H   LIG    1       -0.647  -4.536   3.310  0.00  0.00    +0.211 HD
ENDBRANCH  18  27
ENDBRANCH   4  18
TORSDOF 7
