REMARK  Name = ZINC00978708
REMARK                            x       y       z     vdW  Elec       q    Type
REMARK                         _______ _______ _______ _____ _____    ______ ____
ROOT
ATOM      1  N   LIG    1       -0.275  -0.777   6.117  0.00  0.00    -0.235 N 
ATOM      2  C   LIG    1       -1.352  -1.525   6.452  0.00  0.00    +0.160 A 
ATOM      3  N   LIG    1       -0.964  -2.429   7.326  0.00  0.00    -0.207 NA
ATOM      4  C   LIG    1        0.344  -2.289   7.569  0.00  0.00    +0.182 A 
ATOM      5  N   LIG    1        0.809  -1.293   6.847  0.00  0.00    -0.149 NA
ENDROOT
BRANCH   2   6
ATOM      6  C   LIG    1       -2.725  -1.355   5.927  0.00  0.00    +0.019 A 
ATOM      7  C   LIG    1       -3.812  -1.883   6.625  0.00  0.00    +0.011 A 
ATOM      8  C   LIG    1       -5.090  -1.721   6.131  0.00  0.00    +0.001 A 
ATOM      9  C   LIG    1       -5.295  -1.037   4.946  0.00  0.00    +0.000 A 
ATOM     10  C   LIG    1       -4.222  -0.511   4.250  0.00  0.00    +0.001 A 
ATOM     11  C   LIG    1       -2.939  -0.661   4.737  0.00  0.00    +0.011 A 
ENDBRANCH   2   6
BRANCH   4  12
ATOM     12  C   LIG    1        1.142  -3.125   8.500  0.00  0.00    +0.021 A 
ATOM     13  C   LIG    1        2.501  -2.875   8.674  0.00  0.00    +0.011 A 
ATOM     14  C   LIG    1        3.239  -3.656   9.541  0.00  0.00    +0.001 A 
ATOM     15  C   LIG    1        2.631  -4.685  10.236  0.00  0.00    +0.000 A 
ATOM     16  C   LIG    1        1.281  -4.938  10.067  0.00  0.00    +0.001 A 
ATOM     17  C   LIG    1        0.533  -4.159   9.208  0.00  0.00    +0.011 A 
ENDBRANCH   4  12
BRANCH   1  18
ATOM     18  C   LIG    1       -0.243   0.344   5.174  0.00  0.00    +0.241 C 
BRANCH  18  21
ATOM     19  N   LIG    1        0.209   0.697   2.768  0.00  0.00    -0.284 N 
ATOM     20  H   LIG    1        0.099   1.649   2.918  0.00  0.00    +0.155 HD
ATOM     21  C   LIG    1        0.120  -0.163   3.803  0.00  0.00    +0.239 C 
ATOM     22  O   LIG    1        0.332  -1.344   3.629  0.00  0.00    -0.273 OA
BRANCH  19  29
ATOM     23  C   LIG    1       -0.928   2.095   0.567  0.00  0.00    +0.045 C 
ATOM     24  C   LIG    1       -0.074   0.868   0.376  0.00  0.00    -0.029 A 
ATOM     25  C   LIG    1        0.181   0.394  -0.896  0.00  0.00    +0.005 A 
ATOM     26  C   LIG    1        0.964  -0.732  -1.072  0.00  0.00    +0.000 A 
ATOM     27  C   LIG    1        1.495  -1.387   0.025  0.00  0.00    +0.002 A 
ATOM     28  C   LIG    1        1.244  -0.918   1.299  0.00  0.00    +0.023 A 
ATOM     29  C   LIG    1        0.461   0.216   1.479  0.00  0.00    +0.036 A 
ENDBRANCH  19  29
ENDBRANCH  18  21
ENDBRANCH   1  18
TORSDOF 5
