REMARK  Name = ZINC00830943
REMARK                            x       y       z     vdW  Elec       q    Type
REMARK                         _______ _______ _______ _____ _____    ______ ____
ROOT
ATOM      1  C   LIG    1       -1.293   2.116   0.020  0.00  0.00    +0.026 C 
ATOM      2  C   LIG    1       -2.477   1.417  -0.083  0.00  0.00    +0.102 C 
ATOM      3  C   LIG    1       -2.657  -0.048  -0.106  0.00  0.00    +0.266 C 
ATOM      4  N   LIG    1       -3.979  -0.278  -0.217  0.00  0.00    -0.223 N 
ATOM      5  H   LIG    1       -4.385  -1.158  -0.255  0.00  0.00    +0.174 HD
ATOM      6  N   LIG    1       -4.683   0.925  -0.268  0.00  0.00    -0.184 N 
ATOM      7  O   LIG    1       -1.778  -0.887  -0.039  0.00  0.00    -0.268 OA
ATOM      8  C   LIG    1       -3.841   1.972  -0.186  0.00  0.00    +0.272 C 
ATOM      9  O   LIG    1       -4.145   3.150  -0.197  0.00  0.00    -0.268 OA
ENDROOT
BRANCH   6  10
ATOM     10  C   LIG    1       -6.074   1.028  -0.382  0.00  0.00    +0.058 A 
ATOM     11  C   LIG    1       -6.854  -0.119  -0.454  0.00  0.00    +0.027 A 
ATOM     12  C   LIG    1       -8.226  -0.014  -0.567  0.00  0.00    +0.023 A 
ATOM     13  C   LIG    1       -8.825   1.232  -0.609  0.00  0.00    +0.059 A 
ATOM     14 CL   LIG    1      -10.550   1.360  -0.752  0.00  0.00    -0.082 Cl
ATOM     15  C   LIG    1       -8.050   2.378  -0.538  0.00  0.00    +0.061 A 
ATOM     16 CL   LIG    1       -8.806   3.941  -0.591  0.00  0.00    -0.082 Cl
ATOM     17  C   LIG    1       -6.677   2.279  -0.419  0.00  0.00    +0.046 A 
ENDBRANCH   6  10
BRANCH   1  20
ATOM     18  C   LIG    1        2.263   1.127   0.661  0.00  0.00    +0.162 A 
ATOM     19  C   LIG    1        1.060   1.796   0.749  0.00  0.00    +0.057 A 
ATOM     20  C   LIG    1       -0.015   1.406  -0.063  0.00  0.00    -0.020 A 
ATOM     21  C   LIG    1        0.140   0.338  -0.958  0.00  0.00    +0.012 A 
ATOM     22  C   LIG    1        1.344  -0.323  -1.037  0.00  0.00    +0.050 A 
ATOM     23  C   LIG    1        2.409   0.065  -0.232  0.00  0.00    +0.158 A 
BRANCH  18  25
ATOM     24  C   LIG    1        3.089   2.597   2.338  0.00  0.00    +0.277 C 
ATOM     25  O   LIG    1        3.308   1.502   1.447  0.00  0.00    -0.491 OA
ENDBRANCH  18  25
BRANCH  23  26
ATOM     26  O   LIG    1        3.594  -0.591  -0.316  0.00  0.00    -0.503 OA
ATOM     27  H   LIG    1        4.205  -0.218  -0.966  0.00  0.00    +0.292 HD
ENDBRANCH  23  26
ENDBRANCH   1  20
TORSDOF 4
