REMARK  Name = ZINC01081631
REMARK                            x       y       z     vdW  Elec       q    Type
REMARK                         _______ _______ _______ _____ _____    ______ ____
ROOT
ATOM      1  C   LIG    1        2.236   0.844   3.643  0.00  0.00    +0.069 A 
ATOM      2  C   LIG    1        1.387   1.034   2.479  0.00  0.00    -0.023 A 
ATOM      3  C   LIG    1        2.035   1.365   1.342  0.00  0.00    -0.004 A 
ATOM      4  C   LIG    1        1.427   1.620  -0.003  0.00  0.00    +0.046 C 
ATOM      5  C   LIG    1       -0.013   1.086   0.008  0.00  0.00    -0.009 C 
ATOM      6  C   LIG    1       -0.758   1.595  -1.227  0.00  0.00    +0.008 C 
ATOM      7  C   LIG    1       -0.714   1.583   1.276  0.00  0.00    +0.008 C 
ATOM      8  S   LIG    1        3.745   1.426   1.796  0.00  0.00    -0.077 S 
ATOM      9  C   LIG    1       -0.129   0.881   2.503  0.00  0.00    +0.037 C 
ATOM     10  C   LIG    1        3.603   1.018   3.474  0.00  0.00    +0.085 A 
ENDROOT
BRANCH  10  11
ATOM     11  N   LIG    1        4.609   0.895   4.418  0.00  0.00    -0.275 N 
ATOM     12  H   LIG    1        4.390   0.658   5.333  0.00  0.00    +0.156 HD
ATOM     13  C   LIG    1        5.893   1.104   4.066  0.00  0.00    +0.255 C 
ATOM     14  O   LIG    1        6.168   1.401   2.918  0.00  0.00    -0.269 OA
BRANCH  13  15
ATOM     15  C   LIG    1        6.957   0.974   5.064  0.00  0.00    +0.074 A 
ATOM     16  C   LIG    1        8.325   1.144   4.911  0.00  0.00    +0.021 A 
ATOM     17  C   LIG    1        9.106   0.959   6.025  0.00  0.00    +0.008 A 
ATOM     18  C   LIG    1        8.515   0.625   7.202  0.00  0.00    +0.046 A 
ATOM     19  S   LIG    1        6.831   0.562   6.796  0.00  0.00    -0.092 S 
ENDBRANCH  13  15
ENDBRANCH  10  11
BRANCH   1  21
ATOM     20  N   LIG    1        1.521  -0.816   5.279  0.00  0.00    -0.298 N 
ATOM     21  C   LIG    1        1.671   0.482   4.946  0.00  0.00    +0.249 C 
ATOM     22  O   LIG    1        1.336   1.353   5.728  0.00  0.00    -0.270 OA
BRANCH  20  24
ATOM     23  C   LIG    1       -0.564  -1.298   6.462  0.00  0.00    +0.024 C 
ATOM     24  C   LIG    1        0.956  -1.177   6.581  0.00  0.00    +0.104 C 
ENDBRANCH  20  24
BRANCH  20  25
ATOM     25  C   LIG    1        1.924  -1.864   4.338  0.00  0.00    +0.104 C 
ATOM     26  C   LIG    1        3.388  -2.234   4.583  0.00  0.00    +0.024 C 
ENDBRANCH  20  25
ENDBRANCH   1  21
TORSDOF 5
