REMARK  Name = ZINC01223733
REMARK                            x       y       z     vdW  Elec       q    Type
REMARK                         _______ _______ _______ _____ _____    ______ ____
ROOT
ATOM      1  C   LIG    1        1.017  -3.583  -2.977  0.00  0.00    +0.193 A 
ATOM      2  N   LIG    1        0.615  -3.955  -1.782  0.00  0.00    -0.122 NA
ATOM      3  N   LIG    1        0.962  -5.172  -1.559  0.00  0.00    -0.128 NA
ATOM      4  C   LIG    1        1.606  -5.652  -2.597  0.00  0.00    +0.169 A 
ATOM      5  N   LIG    1        1.657  -4.651  -3.539  0.00  0.00    -0.298 N 
ENDROOT
BRANCH   4   6
ATOM      6  C   LIG    1        2.167  -7.013  -2.730  0.00  0.00    +0.061 A 
ATOM      7  C   LIG    1        2.969  -7.337  -3.825  0.00  0.00    +0.015 A 
ATOM      8  C   LIG    1        3.489  -8.609  -3.944  0.00  0.00    +0.001 A 
ATOM      9  C   LIG    1        3.220  -9.566  -2.981  0.00  0.00    +0.004 A 
ATOM     10  C   LIG    1        2.427  -9.256  -1.892  0.00  0.00    +0.046 A 
ATOM     11  C   LIG    1        1.902  -7.982  -1.755  0.00  0.00    +0.128 A 
BRANCH  11  12
ATOM     12  O   LIG    1        1.128  -7.675  -0.681  0.00  0.00    -0.506 OA
ATOM     13  H   LIG    1        0.185  -7.839  -0.817  0.00  0.00    +0.292 HD
ENDBRANCH  11  12
ENDBRANCH   4   6
BRANCH   1  14
ATOM     14  S   LIG    1        0.770  -2.004  -3.718  0.00  0.00    -0.075 S 
BRANCH  14  15
ATOM     15  C   LIG    1       -0.134  -1.063  -2.457  0.00  0.00    +0.197 C 
BRANCH  15  16
ATOM     16  C   LIG    1       -0.413   0.326  -2.970  0.00  0.00    +0.317 C 
ATOM     17  O   LIG    1       -0.040   0.649  -4.073  0.00  0.00    -0.250 OA
BRANCH  16  19
ATOM     18  C   LIG    1       -1.305   2.503  -2.751  0.00  0.00    +0.280 C 
ATOM     19  O   LIG    1       -1.075   1.204  -2.201  0.00  0.00    -0.467 OA
ENDBRANCH  16  19
ENDBRANCH  15  16
ENDBRANCH  14  15
ENDBRANCH   1  14
BRANCH   5  20
ATOM     20  C   LIG    1        2.271  -4.716  -4.868  0.00  0.00    +0.161 C 
BRANCH  20  21
ATOM     21  C   LIG    1        3.722  -4.322  -4.769  0.00  0.00    -0.028 A 
ATOM     22  C   LIG    1        4.066  -3.048  -4.358  0.00  0.00    +0.005 A 
ATOM     23  C   LIG    1        5.397  -2.686  -4.268  0.00  0.00    +0.000 A 
ATOM     24  C   LIG    1        6.385  -3.599  -4.589  0.00  0.00    +0.000 A 
ATOM     25  C   LIG    1        6.041  -4.873  -5.000  0.00  0.00    +0.000 A 
ATOM     26  C   LIG    1        4.710  -5.236  -5.086  0.00  0.00    +0.005 A 
ENDBRANCH  20  21
ENDBRANCH   5  20
TORSDOF 8
