REMARK  Name = ZINC00896091
REMARK                            x       y       z     vdW  Elec       q    Type
REMARK                         _______ _______ _______ _____ _____    ______ ____
ROOT
ATOM      1  CA  LIG    1       -2.050  -0.348  -1.381  0.00  0.00    +0.036 C 
ENDROOT
BRANCH   1   2
ATOM      2  N   LIG    1       -2.174   1.105  -1.559  0.00  0.00    +0.387 N 
ATOM      3  H1  LIG    1       -2.804   1.477  -0.865  0.00  0.00    -0.089 HD
ATOM      4  H2  LIG    1       -2.534   1.301  -2.481  0.00  0.00    -0.089 HD
ATOM      5  H3  LIG    1       -1.267   1.534  -1.455  0.00  0.00    -0.089 HD
ENDBRANCH   1   2
BRANCH   1   6
ATOM      6  C   LIG    1       -3.374  -1.005  -1.678  0.00  0.00    +0.290 C 
ATOM      7  O   LIG    1       -4.372  -0.323  -1.830  0.00  0.00    -0.253 OA
BRANCH   6   8
ATOM      8  OXT LIG    1       -3.445  -2.219  -1.768  0.00  0.00    -0.482 OA
ATOM      9  HXT LIG    1       -2.678  -2.743  -1.651  0.00  0.00    +0.295 HD
ENDBRANCH   6   8
ENDBRANCH   1   6
BRANCH   1  10
ATOM     10  C   LIG    1       -1.644  -0.652   0.063  0.00  0.00    +0.009 C 
BRANCH  10  12
ATOM     11  C   LIG    1        0.071  -0.210   1.825  0.00  0.00    +0.019 C 
ATOM     12  C   LIG    1       -0.264  -0.052   0.341  0.00  0.00    +0.093 C 
BRANCH  12  13
ATOM     13  C   LIG    1        0.771  -0.769  -0.487  0.00  0.00    +0.308 C 
ATOM     14  O   LIG    1        1.692  -1.352   0.060  0.00  0.00    -0.251 OA
BRANCH  13  15
ATOM     15  O   LIG    1        0.689  -0.766  -1.703  0.00  0.00    -0.480 OA
ATOM     16  H   LIG    1       -0.019  -0.318  -2.124  0.00  0.00    +0.295 HD
ENDBRANCH  13  15
ENDBRANCH  12  13
ENDBRANCH  10  12
ENDBRANCH   1  10
TORSDOF 7
