REMARK  Name = ZINC01237385
REMARK                            x       y       z     vdW  Elec       q    Type
REMARK                         _______ _______ _______ _____ _____    ______ ____
ROOT
ATOM      1  C   LIG    1        1.212   1.747  -0.000  0.00  0.00    +0.169 A 
ATOM      2  N   LIG    1       -0.015   1.281   0.009  0.00  0.00    -0.128 NA
ATOM      3  N   LIG    1        0.002  -0.004   0.002  0.00  0.00    -0.122 NA
ATOM      4  C   LIG    1        1.242  -0.440  -0.012  0.00  0.00    +0.197 A 
ATOM      5  N   LIG    1        2.057   0.659  -0.014  0.00  0.00    -0.270 N 
ENDROOT
BRANCH   1  10
ATOM      6  C   LIG    1        2.767   7.287   0.012  0.00  0.00    +0.044 C 
ATOM      7  C   LIG    1        2.360   5.836   0.009  0.00  0.00    -0.050 A 
ATOM      8  C   LIG    1        1.061   5.485   0.331  0.00  0.00    +0.004 A 
ATOM      9  C   LIG    1        0.681   4.158   0.330  0.00  0.00    +0.012 A 
ATOM     10  C   LIG    1        1.611   3.170   0.003  0.00  0.00    +0.020 A 
ATOM     11  C   LIG    1        2.922   3.531  -0.315  0.00  0.00    +0.012 A 
ATOM     12  C   LIG    1        3.287   4.862  -0.315  0.00  0.00    +0.004 A 
ENDBRANCH   1  10
BRANCH   5  13
ATOM     13  C   LIG    1        3.459   0.675  -0.028  0.00  0.00    +0.051 A 
ATOM     14  C   LIG    1        4.159   1.190   1.055  0.00  0.00    +0.028 A 
ATOM     15  C   LIG    1        5.540   1.200   1.041  0.00  0.00    +0.022 A 
ATOM     16  C   LIG    1        6.226   0.707  -0.055  0.00  0.00    +0.041 A 
ATOM     17 CL   LIG    1        7.962   0.727  -0.073  0.00  0.00    -0.084 Cl
ATOM     18  C   LIG    1        5.530   0.197  -1.138  0.00  0.00    +0.022 A 
ATOM     19  C   LIG    1        4.149   0.180  -1.126  0.00  0.00    +0.028 A 
ENDBRANCH   5  13
BRANCH   4  20
ATOM     20  S   LIG    1        1.758  -2.124  -0.027  0.00  0.00    -0.078 S 
BRANCH  20  21
ATOM     21  C   LIG    1        0.146  -2.947  -0.015  0.00  0.00    +0.157 C 
BRANCH  21  22
ATOM     22  C   LIG    1        0.345  -4.441  -0.026  0.00  0.00    +0.173 C 
ATOM     23  O   LIG    1        1.466  -4.904  -0.039  0.00  0.00    -0.291 OA
BRANCH  22  24
ATOM     24  C   LIG    1       -0.819  -5.337  -0.019  0.00  0.00    +0.022 A 
ATOM     25  C   LIG    1       -2.114  -4.804   0.002  0.00  0.00    +0.015 A 
ATOM     26  C   LIG    1       -3.204  -5.646   0.002  0.00  0.00    +0.050 A 
ATOM     27  C   LIG    1       -3.022  -7.023  -0.008  0.00  0.00    +0.158 A 
ATOM     28  C   LIG    1       -1.735  -7.561  -0.023  0.00  0.00    +0.159 A 
ATOM     29  C   LIG    1       -0.637  -6.725  -0.029  0.00  0.00    +0.060 A 
BRANCH  27  30
ATOM     30  O   LIG    1       -4.101  -7.848  -0.002  0.00  0.00    -0.503 OA
ATOM     31  H   LIG    1       -4.405  -8.092   0.883  0.00  0.00    +0.292 HD
ENDBRANCH  27  30
BRANCH  28  32
ATOM     32  O   LIG    1       -1.563  -8.910  -0.032  0.00  0.00    -0.503 OA
ATOM     33  H   LIG    1       -1.504  -9.305   0.849  0.00  0.00    +0.292 HD
ENDBRANCH  28  32
ENDBRANCH  22  24
ENDBRANCH  21  22
ENDBRANCH  20  21
ENDBRANCH   4  20
TORSDOF 8
