REMARK  Name = ZINC00711821
REMARK                            x       y       z     vdW  Elec       q    Type
REMARK                         _______ _______ _______ _____ _____    ______ ____
ROOT
ATOM      1  N   LIG    1        0.002  -0.004   0.002  0.00  0.00    -0.282 N 
ATOM      2  H   LIG    1        0.695  -0.477  -0.484  0.00  0.00    +0.155 HD
ATOM      3  C   LIG    1       -0.938  -0.695   0.677  0.00  0.00    +0.248 C 
ATOM      4  O   LIG    1       -1.855  -0.106   1.216  0.00  0.00    -0.270 OA
ENDROOT
BRANCH   3   5
ATOM      5  C   LIG    1       -0.855  -2.169   0.761  0.00  0.00    +0.038 A 
ATOM      6  C   LIG    1        0.193  -2.844   0.137  0.00  0.00    +0.014 A 
ATOM      7  C   LIG    1        0.277  -4.222   0.219  0.00  0.00    +0.013 A 
ATOM      8  C   LIG    1       -0.691  -4.939   0.913  0.00  0.00    +0.030 A 
ATOM      9  C   LIG    1       -1.753  -4.266   1.540  0.00  0.00    -0.006 A 
ATOM     10  C   LIG    1       -2.628  -5.270   2.201  0.00  0.00    -0.006 A 
ATOM     11  C   LIG    1       -3.793  -5.137   2.944  0.00  0.00    +0.009 A 
ATOM     12  C   LIG    1       -4.421  -6.261   3.456  0.00  0.00    +0.001 A 
ATOM     13  C   LIG    1       -3.896  -7.519   3.233  0.00  0.00    +0.001 A 
ATOM     14  C   LIG    1       -2.735  -7.669   2.494  0.00  0.00    +0.012 A 
ATOM     15  C   LIG    1       -2.094  -6.550   1.975  0.00  0.00    +0.030 A 
ATOM     16  C   LIG    1       -0.866  -6.392   1.163  0.00  0.00    +0.194 C 
ATOM     17  O   LIG    1       -0.138  -7.283   0.774  0.00  0.00    -0.287 OA
ATOM     18  C   LIG    1       -1.831  -2.884   1.461  0.00  0.00    +0.022 A 
ENDBRANCH   3   5
BRANCH   1  22
ATOM     19  C   LIG    1       -0.069   4.160   0.004  0.00  0.00    +0.059 A 
ATOM     20  C   LIG    1        1.153   3.480  -0.001  0.00  0.00    +0.017 A 
ATOM     21  C   LIG    1        1.173   2.103  -0.001  0.00  0.00    +0.024 A 
ATOM     22  C   LIG    1       -0.022   1.389   0.003  0.00  0.00    +0.034 A 
ATOM     23  C   LIG    1       -1.239   2.062   0.002  0.00  0.00    +0.024 A 
ATOM     24  C   LIG    1       -1.266   3.439   0.008  0.00  0.00    +0.017 A 
BRANCH  19  25
ATOM     25  C   LIG    1       -0.094   5.634   0.005  0.00  0.00    +0.339 C 
ATOM     26  O   LIG    1        0.948   6.259   0.002  0.00  0.00    -0.245 OA
BRANCH  25  27
ATOM     27  O   LIG    1       -1.272   6.288   0.010  0.00  0.00    -0.461 OA
BRANCH  27  28
ATOM     28  C   LIG    1       -1.220   7.739   0.010  0.00  0.00    +0.235 C 
BRANCH  28  30
ATOM     29  C   LIG    1       -3.337   7.919   1.325  0.00  0.00    +0.010 C 
ATOM     30  C   LIG    1       -2.644   8.300   0.016  0.00  0.00    +0.020 C 
ATOM     31  C   LIG    1       -2.592   9.824  -0.109  0.00  0.00    +0.010 C 
ENDBRANCH  28  30
ENDBRANCH  27  28
ENDBRANCH  25  27
ENDBRANCH  19  25
ENDBRANCH   1  22
TORSDOF 6
