REMARK  Name = ZINC01020901
REMARK                            x       y       z     vdW  Elec       q    Type
REMARK                         _______ _______ _______ _____ _____    ______ ____
ROOT
ATOM      1  C   LIG    1        3.416   3.413   0.701  0.00  0.00    +0.255 C 
ATOM      2  N   LIG    1        2.754   3.084  -0.426  0.00  0.00    -0.234 N 
ATOM      3  C   LIG    1        1.536   2.403  -0.325  0.00  0.00    +0.055 A 
ATOM      4  C   LIG    1        1.354   1.435   0.650  0.00  0.00    +0.025 A 
ATOM      5  C   LIG    1        0.148   0.764   0.743  0.00  0.00    +0.002 A 
ATOM      6  C   LIG    1       -0.880   1.048  -0.136  0.00  0.00    +0.001 A 
ATOM      7  C   LIG    1       -0.713   2.018  -1.109  0.00  0.00    +0.017 A 
ATOM      8  C   LIG    1        0.491   2.691  -1.206  0.00  0.00    +0.035 A 
ATOM      9  S   LIG    1        0.736   3.928  -2.442  0.00  0.00    -0.086 S 
ATOM     10  C   LIG    1        2.479   3.851  -2.712  0.00  0.00    +0.035 A 
ATOM     11  C   LIG    1        3.021   4.195  -3.937  0.00  0.00    +0.017 A 
ATOM     12  C   LIG    1        4.391   4.126  -4.125  0.00  0.00    +0.001 A 
ATOM     13  C   LIG    1        5.212   3.714  -3.092  0.00  0.00    +0.002 A 
ATOM     14  C   LIG    1        4.675   3.368  -1.865  0.00  0.00    +0.025 A 
ATOM     15  C   LIG    1        3.305   3.433  -1.665  0.00  0.00    +0.055 A 
ATOM     16  O   LIG    1        2.936   3.150   1.787  0.00  0.00    -0.269 OA
ENDROOT
BRANCH   1  20
ATOM     17  C   LIG    1        7.178   5.367   0.460  0.00  0.00    +0.120 A 
ATOM     18  C   LIG    1        7.057   4.185   1.179  0.00  0.00    +0.046 A 
ATOM     19  C   LIG    1        5.838   3.548   1.260  0.00  0.00    +0.016 A 
ATOM     20  C   LIG    1        4.723   4.092   0.617  0.00  0.00    +0.038 A 
ATOM     21  C   LIG    1        4.851   5.279  -0.110  0.00  0.00    +0.016 A 
ATOM     22  C   LIG    1        6.072   5.912  -0.182  0.00  0.00    +0.046 A 
BRANCH  17  24
ATOM     23  C   LIG    1        8.435   7.204  -0.373  0.00  0.00    +0.277 C 
ATOM     24  O   LIG    1        8.381   5.992   0.383  0.00  0.00    -0.495 OA
ENDBRANCH  17  24
ENDBRANCH   1  20
TORSDOF 2
