REMARK  Name = ZINC00970406
REMARK                            x       y       z     vdW  Elec       q    Type
REMARK                         _______ _______ _______ _____ _____    ______ ____
ROOT
ATOM      1  C   LIG    1       -0.183  -4.195   0.881  0.00  0.00    +0.096 C 
ATOM      2  C   LIG    1       -0.302  -4.800  -0.491  0.00  0.00    +0.007 A 
ATOM      3  C   LIG    1        0.792  -4.813  -1.336  0.00  0.00    +0.008 A 
ATOM      4  C   LIG    1        0.686  -5.368  -2.598  0.00  0.00    +0.001 A 
ATOM      5  C   LIG    1       -0.515  -5.910  -3.017  0.00  0.00    +0.004 A 
ATOM      6  C   LIG    1       -1.610  -5.901  -2.176  0.00  0.00    +0.046 A 
ATOM      7  C   LIG    1       -1.506  -5.344  -0.908  0.00  0.00    +0.132 A 
ATOM      8  O   LIG    1       -2.579  -5.336  -0.084  0.00  0.00    -0.460 OA
ATOM      9  C   LIG    1       -2.412  -5.228   1.247  0.00  0.00    +0.114 C 
ATOM     10  C   LIG    1       -3.516  -5.741   2.141  0.00  0.00    +0.081 C 
ATOM     11  C   LIG    1       -3.573  -4.915   3.415  0.00  0.00    -0.021 C 
ATOM     12  C   LIG    1       -4.665  -5.463   4.336  0.00  0.00    +0.012 C 
ATOM     13  C   LIG    1       -3.868  -3.453   3.073  0.00  0.00    +0.012 C 
ATOM     14  C   LIG    1       -2.212  -5.016   4.113  0.00  0.00    +0.086 C 
ATOM     15  C   LIG    1       -1.141  -4.562   3.161  0.00  0.00    +0.164 C 
ATOM     16  O   LIG    1       -0.118  -4.077   3.602  0.00  0.00    -0.292 OA
ATOM     17  C   LIG    1       -1.300  -4.688   1.768  0.00  0.00    +0.045 C 
ENDROOT
BRANCH   1  23
ATOM     18  C   LIG    1       -0.160   1.512  -0.092  0.00  0.00    +0.012 C 
ATOM     19  C   LIG    1       -0.068  -0.015  -0.048  0.00  0.00    -0.021 C 
ATOM     20  C   LIG    1       -1.478  -0.612   0.018  0.00  0.00    +0.086 C 
ATOM     21  C   LIG    1       -1.372  -2.110   0.149  0.00  0.00    +0.164 C 
ATOM     22  O   LIG    1       -2.257  -2.817  -0.290  0.00  0.00    -0.292 OA
ATOM     23  C   LIG    1       -0.259  -2.694   0.772  0.00  0.00    +0.044 C 
ATOM     24  C   LIG    1        0.741  -1.949   1.276  0.00  0.00    +0.102 C 
ATOM     25  C   LIG    1        0.648  -0.522  -1.301  0.00  0.00    +0.012 C 
ATOM     26  C   LIG    1        0.710  -0.446   1.198  0.00  0.00    +0.080 C 
BRANCH  24  27
ATOM     27  O   LIG    1        1.790  -2.559   1.860  0.00  0.00    -0.511 OA
ATOM     28  H   LIG    1        1.770  -3.524   1.794  0.00  0.00    +0.292 HD
ENDBRANCH  24  27
ENDBRANCH   1  23
TORSDOF 2
