REMARK  Name = ZINC01033551
REMARK                            x       y       z     vdW  Elec       q    Type
REMARK                         _______ _______ _______ _____ _____    ______ ____
ROOT
ATOM      1  N   LIG    1        3.577   2.107   0.136  0.00  0.00    -0.269 N 
ATOM      2  H   LIG    1        3.557   3.059  -0.052  0.00  0.00    +0.156 HD
ATOM      3  C   LIG    1        4.758   1.464   0.226  0.00  0.00    +0.308 C 
ATOM      4  N   LIG    1        5.911   2.159   0.160  0.00  0.00    -0.269 N 
ATOM      5  H   LIG    1        5.892   3.128   0.122  0.00  0.00    +0.156 HD
ATOM      6  O   LIG    1        4.783   0.257   0.368  0.00  0.00    -0.252 OA
ENDROOT
BRANCH   1   9
ATOM      7  C   LIG    1        1.146  -0.359   1.371  0.00  0.00    +0.014 A 
ATOM      8  C   LIG    1        2.329   0.334   1.198  0.00  0.00    +0.024 A 
ATOM      9  C   LIG    1        2.381   1.403   0.314  0.00  0.00    +0.035 A 
ATOM     10  C   LIG    1        1.245   1.772  -0.394  0.00  0.00    +0.024 A 
ATOM     11  C   LIG    1        0.066   1.075  -0.216  0.00  0.00    +0.014 A 
ATOM     12  C   LIG    1        0.016   0.011   0.665  0.00  0.00    +0.055 A 
BRANCH  12  13
ATOM     13  C   LIG    1       -1.272  -0.747   0.857  0.00  0.00    +0.417 C 
ATOM     14  F   LIG    1       -0.986  -2.077   1.185  0.00  0.00    -0.166 F 
ATOM     15  F   LIG    1       -2.016  -0.709  -0.327  0.00  0.00    -0.166 F 
ATOM     16  F   LIG    1       -2.009  -0.160   1.891  0.00  0.00    -0.166 F 
ENDBRANCH  12  13
ENDBRANCH   1   9
BRANCH   4  17
ATOM     17  C   LIG    1        7.136   1.482   0.144  0.00  0.00    +0.035 A 
ATOM     18  C   LIG    1        7.237   0.240  -0.468  0.00  0.00    +0.025 A 
ATOM     19  C   LIG    1        8.448  -0.425  -0.482  0.00  0.00    +0.030 A 
ATOM     20  C   LIG    1        9.558   0.144   0.115  0.00  0.00    +0.105 A 
ATOM     21  C   LIG    1        9.460   1.381   0.726  0.00  0.00    +0.030 A 
ATOM     22  C   LIG    1        8.254   2.054   0.737  0.00  0.00    +0.025 A 
BRANCH  20  23
ATOM     23  S   LIG    1       11.100  -0.708   0.097  0.00  0.00    +0.056 S 
ATOM     24  O   LIG    1       10.799  -2.088  -0.059  0.00  0.00    -0.153 OA
ATOM     25  O   LIG    1       11.851  -0.211   1.196  0.00  0.00    -0.153 OA
BRANCH  23  26
ATOM     26  N   LIG    1       11.901  -0.241  -1.275  0.00  0.00    -0.204 NA
ATOM     27  H   LIG    1       12.780  -0.603  -1.470  0.00  0.00    +0.144 HD
ATOM     28  H   LIG    1       11.492   0.395  -1.883  0.00  0.00    +0.144 HD
ENDBRANCH  23  26
ENDBRANCH  20  23
ENDBRANCH   4  17
TORSDOF 5
