REMARK  Name = ZINC01386791
REMARK                            x       y       z     vdW  Elec       q    Type
REMARK                         _______ _______ _______ _____ _____    ______ ____
ROOT
ATOM      1  C   LIG    1        1.031   5.867   0.746  0.00  0.00    +0.162 A 
ATOM      2  C   LIG    1       -0.127   5.181   0.514  0.00  0.00    +0.062 A 
ATOM      3  C   LIG    1       -0.131   3.783   0.581  0.00  0.00    +0.044 A 
ATOM      4  C   LIG    1        1.065   3.087   0.888  0.00  0.00    +0.080 A 
ATOM      5  N   LIG    1        1.034   1.746   0.945  0.00  0.00    -0.235 NA
ATOM      6  C   LIG    1       -0.083   1.097   0.721  0.00  0.00    +0.223 A 
ATOM      7  N   LIG    1       -1.222   1.704   0.425  0.00  0.00    -0.220 NA
ATOM      8  C   LIG    1        2.241   3.810   1.122  0.00  0.00    +0.078 A 
ATOM      9  C   LIG    1       -1.304   3.025   0.349  0.00  0.00    +0.134 A 
ATOM     10  C   LIG    1        2.218   5.185   1.050  0.00  0.00    +0.164 A 
ENDROOT
BRANCH   1  12
ATOM     11  C   LIG    1       -0.206   7.862   0.367  0.00  0.00    +0.277 C 
ATOM     12  O   LIG    1        1.034   7.225   0.681  0.00  0.00    -0.491 OA
ENDBRANCH   1  12
BRANCH   9  13
ATOM     13  N   LIG    1       -2.499   3.645   0.045  0.00  0.00    -0.298 N 
ATOM     14  H   LIG    1       -2.525   4.604  -0.100  0.00  0.00    +0.154 HD
BRANCH  13  15
ATOM     15  C   LIG    1       -3.673   2.891  -0.053  0.00  0.00    +0.051 A 
ATOM     16  C   LIG    1       -3.743   1.633   0.532  0.00  0.00    +0.026 A 
ATOM     17  C   LIG    1       -4.903   0.890   0.434  0.00  0.00    +0.022 A 
ATOM     18  C   LIG    1       -5.996   1.398  -0.247  0.00  0.00    +0.042 A 
ATOM     19 CL   LIG    1       -7.452   0.461  -0.368  0.00  0.00    -0.083 Cl
ATOM     20  C   LIG    1       -5.930   2.650  -0.832  0.00  0.00    +0.041 A 
ATOM     21  C   LIG    1       -4.773   3.400  -0.732  0.00  0.00    +0.063 A 
ATOM     22 CL   LIG    1       -4.693   4.974  -1.459  0.00  0.00    -0.082 Cl
ENDBRANCH  13  15
ENDBRANCH   9  13
BRANCH  10  23
ATOM     23  O   LIG    1        3.358   5.889   1.276  0.00  0.00    -0.491 OA
ATOM     24  C   LIG    1        4.534   5.137   1.582  0.00  0.00    +0.277 C 
ENDBRANCH  10  23
TORSDOF 4
