REMARK  Name = ZINC00897637
REMARK                            x       y       z     vdW  Elec       q    Type
REMARK                         _______ _______ _______ _____ _____    ______ ____
ROOT
ATOM      1  C   LIG    1        2.478   1.069  -0.015  0.00  0.00    +0.136 C 
ATOM      2  C   LIG    1        2.464  -0.334  -0.016  0.00  0.00    +0.048 C 
ATOM      3  C   LIG    1        3.671  -0.991  -0.036  0.00  0.00    +0.019 C 
ATOM      4  C   LIG    1        4.814  -0.163  -0.042  0.00  0.00    +0.059 A 
ATOM      5  C   LIG    1        6.113  -0.702  -0.056  0.00  0.00    +0.131 A 
ATOM      6  C   LIG    1        7.192   0.138  -0.062  0.00  0.00    +0.091 A 
ATOM      7  C   LIG    1        7.014   1.522  -0.053  0.00  0.00    +0.124 A 
ATOM      8  C   LIG    1        5.751   2.075  -0.040  0.00  0.00    +0.092 A 
ATOM      9  C   LIG    1        4.624   1.242  -0.034  0.00  0.00    +0.143 A 
ATOM     10  O   LIG    1        3.501   1.714  -0.021  0.00  0.00    -0.455 OA
ENDROOT
BRANCH   1  16
ATOM     11  C   LIG    1       -0.013   1.076   0.008  0.00  0.00    +0.015 A 
ATOM     12  C   LIG    1       -1.216   1.749   0.017  0.00  0.00    +0.050 A 
ATOM     13  C   LIG    1       -1.239   3.136   0.030  0.00  0.00    +0.158 A 
ATOM     14  C   LIG    1       -0.044   3.855   0.022  0.00  0.00    +0.159 A 
ATOM     15  C   LIG    1        1.164   3.186   0.008  0.00  0.00    +0.060 A 
ATOM     16  C   LIG    1        1.186   1.790   0.000  0.00  0.00    +0.021 A 
BRANCH  13  17
ATOM     17  O   LIG    1       -2.427   3.795   0.044  0.00  0.00    -0.503 OA
ATOM     18  H   LIG    1       -2.779   3.990  -0.836  0.00  0.00    +0.292 HD
ENDBRANCH  13  17
BRANCH  14  19
ATOM     19  O   LIG    1       -0.069   5.215   0.030  0.00  0.00    -0.503 OA
ATOM     20  H   LIG    1       -0.084   5.612  -0.851  0.00  0.00    +0.292 HD
ENDBRANCH  14  19
ENDBRANCH   1  16
BRANCH   5  21
ATOM     21  O   LIG    1        6.294  -2.047  -0.064  0.00  0.00    -0.506 OA
ATOM     22  H   LIG    1        6.355  -2.441   0.817  0.00  0.00    +0.292 HD
ENDBRANCH   5  21
BRANCH   7  23
ATOM     23  O   LIG    1        8.101   2.337  -0.059  0.00  0.00    -0.507 OA
ATOM     24  H   LIG    1        8.423   2.568   0.822  0.00  0.00    +0.292 HD
ENDBRANCH   7  23
TORSDOF 5
