REMARK  Name = ZINC00896681
REMARK                            x       y       z     vdW  Elec       q    Type
REMARK                         _______ _______ _______ _____ _____    ______ ____
ROOT
ATOM      1  N   LIG    1        1.922   0.154  -1.497  0.00  0.00    -0.298 N 
ATOM      2  C   LIG    1        2.121   1.360  -2.177  0.00  0.00    +0.048 A 
ATOM      3  C   LIG    1        1.372   1.659  -3.304  0.00  0.00    +0.024 A 
ATOM      4  C   LIG    1        1.575   2.854  -3.973  0.00  0.00    +0.002 A 
ATOM      5  C   LIG    1        2.522   3.755  -3.525  0.00  0.00    +0.001 A 
ATOM      6  C   LIG    1        3.277   3.466  -2.399  0.00  0.00    +0.017 A 
ATOM      7  C   LIG    1        3.077   2.275  -1.728  0.00  0.00    +0.034 A 
ATOM      8  S   LIG    1        4.023   1.878  -0.291  0.00  0.00    -0.086 S 
ATOM      9  C   LIG    1        4.050   0.113  -0.332  0.00  0.00    +0.034 A 
ATOM     10  C   LIG    1        5.102  -0.591   0.221  0.00  0.00    +0.017 A 
ATOM     11  C   LIG    1        5.099  -1.967   0.190  0.00  0.00    +0.001 A 
ATOM     12  C   LIG    1        4.050  -2.642  -0.404  0.00  0.00    +0.002 A 
ATOM     13  C   LIG    1        2.994  -1.944  -0.964  0.00  0.00    +0.024 A 
ATOM     14  C   LIG    1        2.985  -0.559  -0.931  0.00  0.00    +0.048 A 
ENDROOT
BRANCH   1  15
ATOM     15  C   LIG    1        0.562  -0.375  -1.369  0.00  0.00    +0.112 C 
BRANCH  15  17
ATOM     16  C   LIG    1       -0.244   1.686  -0.210  0.00  0.00    +0.007 C 
ATOM     17  C   LIG    1       -0.079   0.170  -0.091  0.00  0.00    -0.013 C 
BRANCH  17  18
ATOM     18  C   LIG    1       -1.450  -0.478   0.108  0.00  0.00    -0.075 C 
BRANCH  18  19
ATOM     19  N   LIG    1       -2.006  -0.059   1.402  0.00  0.00    +0.376 N 
ATOM     20  H   LIG    1       -2.015   0.948   1.454  0.00  0.00    -0.083 HD
ATOM     21  C   LIG    1       -1.178  -0.598   2.489  0.00  0.00    -0.097 C 
ATOM     22  C   LIG    1       -3.378  -0.568   1.533  0.00  0.00    -0.097 C 
ENDBRANCH  18  19
ENDBRANCH  17  18
ENDBRANCH  15  17
ENDBRANCH   1  15
TORSDOF 4
