REMARK  Name = ZINC00973810
REMARK                            x       y       z     vdW  Elec       q    Type
REMARK                         _______ _______ _______ _____ _____    ______ ____
ROOT
ATOM      1  C   LIG    1        2.481   1.007  -0.696  0.00  0.00    +0.136 A 
ATOM      2  C   LIG    1        3.711   1.617  -0.604  0.00  0.00    +0.050 A 
ATOM      3  C   LIG    1        4.647   0.613  -0.344  0.00  0.00    +0.050 A 
ATOM      4  C   LIG    1        3.949  -0.580  -0.288  0.00  0.00    +0.130 A 
ATOM      5  O   LIG    1        2.643  -0.315  -0.499  0.00  0.00    -0.455 OA
ENDROOT
BRANCH   4   6
ATOM      6  C   LIG    1        4.506  -1.854  -0.046  0.00  0.00    +0.066 C 
ATOM      7  C   LIG    1        3.693  -2.945   0.059  0.00  0.00    +0.082 C 
ATOM      8  C   LIG    1        2.267  -3.015   0.098  0.00  0.00    +0.258 C 
ATOM      9  N   LIG    1        1.707  -4.208   0.200  0.00  0.00    -0.243 N 
ATOM     10  H   LIG    1        0.740  -4.282   0.224  0.00  0.00    +0.159 HD
ATOM     11  C   LIG    1        2.462  -5.327   0.279  0.00  0.00    +0.283 C 
ATOM     12  O   LIG    1        2.101  -6.484   0.381  0.00  0.00    -0.262 OA
ATOM     13  O   LIG    1        1.588  -2.007   0.033  0.00  0.00    -0.269 OA
ATOM     14  S   LIG    1        4.123  -4.675   0.195  0.00  0.00    -0.026 S 
ENDBRANCH   4   6
BRANCH   1  21
ATOM     15  C   LIG    1        0.015   0.950  -1.031  0.00  0.00    +0.014 A 
ATOM     16  C   LIG    1       -1.179   1.591  -1.284  0.00  0.00    +0.039 A 
ATOM     17  C   LIG    1       -1.208   2.966  -1.458  0.00  0.00    +0.123 A 
ATOM     18  F   LIG    1       -2.381   3.590  -1.700  0.00  0.00    -0.205 F 
ATOM     19  C   LIG    1       -0.036   3.703  -1.389  0.00  0.00    +0.039 A 
ATOM     20  C   LIG    1        1.165   3.073  -1.142  0.00  0.00    +0.014 A 
ATOM     21  C   LIG    1        1.199   1.688  -0.961  0.00  0.00    +0.017 A 
ENDBRANCH   1  21
TORSDOF 2
