REMARK  Name = ZINC01209919
REMARK                            x       y       z     vdW  Elec       q    Type
REMARK                         _______ _______ _______ _____ _____    ______ ____
ROOT
ATOM      1  C   LIG    1        7.264   0.282   0.107  0.00  0.00    +0.035 A 
ATOM      2  C   LIG    1        7.184   1.667   0.215  0.00  0.00    +0.027 A 
ATOM      3  C   LIG    1        8.334   2.427   0.294  0.00  0.00    +0.048 A 
ATOM      4  C   LIG    1        9.577   1.814   0.268  0.00  0.00    +0.129 A 
ATOM      5  C   LIG    1        9.666   0.420   0.159  0.00  0.00    +0.080 A 
ATOM      6  C   LIG    1        8.499  -0.343   0.085  0.00  0.00    +0.040 A 
ENDROOT
BRANCH   5   7
ATOM      7  C   LIG    1       10.986  -0.239   0.130  0.00  0.00    +0.232 A 
ATOM      8  N   LIG    1       11.179  -1.530   0.026  0.00  0.00    -0.209 NA
ATOM      9  C   LIG    1       12.515  -1.774   0.032  0.00  0.00    +0.110 A 
ATOM     10  C   LIG    1       13.283  -2.938  -0.050  0.00  0.00    +0.031 A 
ATOM     11  C   LIG    1       14.657  -2.853  -0.017  0.00  0.00    +0.002 A 
ATOM     12  C   LIG    1       15.282  -1.620   0.098  0.00  0.00    +0.004 A 
ATOM     13  C   LIG    1       14.536  -0.462   0.180  0.00  0.00    +0.048 A 
ATOM     14  C   LIG    1       13.152  -0.528   0.148  0.00  0.00    +0.156 A 
ATOM     15  O   LIG    1       12.170   0.400   0.201  0.00  0.00    -0.435 OA
ENDBRANCH   5   7
BRANCH   1  17
ATOM     16  C   LIG    1        5.016   0.003  -0.625  0.00  0.00    +0.249 C 
ATOM     17  N   LIG    1        6.093  -0.481   0.027  0.00  0.00    -0.281 N 
ATOM     18  H   LIG    1        6.056  -1.358   0.440  0.00  0.00    +0.155 HD
ATOM     19  O   LIG    1        5.093   1.057  -1.227  0.00  0.00    -0.270 OA
BRANCH  16  28
ATOM     20  C   LIG    1        0.268   0.855  -2.309  0.00  0.00    +0.001 A 
ATOM     21  C   LIG    1        1.456   1.580  -2.337  0.00  0.00    +0.001 A 
ATOM     22  C   LIG    1        2.598   1.076  -1.789  0.00  0.00    +0.009 A 
ATOM     23  C   LIG    1        2.579  -0.189  -1.188  0.00  0.00    -0.006 A 
ATOM     24  C   LIG    1        1.371  -0.928  -1.157  0.00  0.00    -0.017 A 
ATOM     25  C   LIG    1        1.351  -2.198  -0.553  0.00  0.00    +0.008 A 
ATOM     26  C   LIG    1        2.486  -2.711  -0.002  0.00  0.00    +0.001 A 
ATOM     27  C   LIG    1        3.680  -2.001  -0.021  0.00  0.00    +0.014 A 
ATOM     28  C   LIG    1        3.746  -0.745  -0.607  0.00  0.00    +0.045 A 
ATOM     29  C   LIG    1        0.213  -0.378  -1.733  0.00  0.00    +0.008 A 
ENDBRANCH  16  28
ENDBRANCH   1  17
BRANCH   4  30
ATOM     30  O   LIG    1       10.707   2.563   0.345  0.00  0.00    -0.506 OA
ATOM     31  H   LIG    1       11.020   2.711   1.248  0.00  0.00    +0.292 HD
ENDBRANCH   4  30
TORSDOF 4
