REMARK  Name = ZINC00812571
REMARK                            x       y       z     vdW  Elec       q    Type
REMARK                         _______ _______ _______ _____ _____    ______ ____
ROOT
ATOM      1  N   LIG    1        1.651  -4.999  -0.034  0.00  0.00    -0.112 N 
ATOM      2  C   LIG    1        2.413  -5.215  -1.138  0.00  0.00    +0.143 A 
ATOM      3  C   LIG    1        3.652  -5.585  -0.715  0.00  0.00    +0.114 A 
ATOM      4  C   LIG    1        3.643  -5.594   0.686  0.00  0.00    +0.246 A 
ATOM      5  N   LIG    1        2.448  -5.239   1.093  0.00  0.00    -0.110 NA
ENDROOT
BRANCH   1   6
ATOM      6  S   LIG    1        0.063  -4.530  -0.023  0.00  0.00    +0.101 S 
ATOM      7  O   LIG    1       -0.490  -4.937  -1.267  0.00  0.00    -0.146 OA
ATOM      8  O   LIG    1       -0.476  -4.950   1.223  0.00  0.00    -0.146 OA
BRANCH   6  13
ATOM      9  C   LIG    1       -0.018   1.503   0.010  0.00  0.00    +0.044 C 
ATOM     10  C   LIG    1        0.002  -0.004   0.002  0.00  0.00    -0.050 A 
ATOM     11  C   LIG    1        0.006  -0.689  -1.199  0.00  0.00    +0.005 A 
ATOM     12  C   LIG    1        0.025  -2.071  -1.206  0.00  0.00    +0.029 A 
ATOM     13  C   LIG    1        0.040  -2.768  -0.013  0.00  0.00    +0.113 A 
ATOM     14  C   LIG    1        0.037  -2.084   1.188  0.00  0.00    +0.029 A 
ATOM     15  C   LIG    1        0.023  -0.702   1.195  0.00  0.00    +0.005 A 
ENDBRANCH   6  13
ENDBRANCH   1   6
BRANCH   2  16
ATOM     16  N   LIG    1        2.000  -5.081  -2.461  0.00  0.00    -0.342 N 
ATOM     17  H   LIG    1        2.623  -5.259  -3.183  0.00  0.00    +0.144 HD
ATOM     18  H   LIG    1        1.090  -4.811  -2.660  0.00  0.00    +0.144 HD
ENDBRANCH   2  16
BRANCH   4  19
ATOM     19  O   LIG    1        4.694  -5.913   1.488  0.00  0.00    -0.400 OA
BRANCH  19  20
ATOM     20  C   LIG    1        4.508  -5.870   2.823  0.00  0.00    +0.381 C 
ATOM     21  O   LIG    1        3.425  -5.553   3.277  0.00  0.00    -0.241 OA
BRANCH  20  22
ATOM     22  C   LIG    1        5.611  -6.204   3.727  0.00  0.00    +0.212 A 
ATOM     23  C   LIG    1        5.557  -6.207   5.093  0.00  0.00    +0.056 A 
ATOM     24  C   LIG    1        6.830  -6.586   5.545  0.00  0.00    +0.042 A 
ATOM     25  C   LIG    1        7.595  -6.796   4.451  0.00  0.00    +0.196 A 
ATOM     26  O   LIG    1        6.856  -6.570   3.358  0.00  0.00    -0.456 OA
ENDBRANCH  20  22
ENDBRANCH  19  20
ENDBRANCH   4  19
TORSDOF 6
