REMARK  Name = ZINC01004419
REMARK                            x       y       z     vdW  Elec       q    Type
REMARK                         _______ _______ _______ _____ _____    ______ ____
ROOT
ATOM      1  C   LIG    1       -1.935   3.330   5.507  0.00  0.00    +0.155 C 
ATOM      2  N   LIG    1       -0.877   2.850   4.616  0.00  0.00    -0.281 N 
ATOM      3  C   LIG    1       -1.161   2.579   3.287  0.00  0.00    +0.145 A 
ATOM      4  N   LIG    1       -2.269   2.654   2.544  0.00  0.00    -0.332 N 
ATOM      5  H   LIG    1       -3.189   2.961   2.882  0.00  0.00    +0.168 HD
ATOM      6  C   LIG    1       -2.004   2.278   1.317  0.00  0.00    +0.176 A 
ATOM      7  N   LIG    1       -0.704   1.940   1.215  0.00  0.00    -0.315 N 
ATOM      8  C   LIG    1       -0.141   2.118   2.464  0.00  0.00    +0.150 A 
ATOM      9  C   LIG    1        1.153   1.951   3.000  0.00  0.00    +0.282 A 
ATOM     10  N   LIG    1        1.368   2.232   4.302  0.00  0.00    -0.262 N 
ATOM     11  C   LIG    1        2.708   2.055   4.867  0.00  0.00    +0.157 C 
ATOM     12  O   LIG    1        2.065   1.554   2.297  0.00  0.00    -0.265 OA
ATOM     13  C   LIG    1        0.371   2.672   5.089  0.00  0.00    +0.333 A 
ATOM     14  O   LIG    1        0.602   2.915   6.258  0.00  0.00    -0.246 OA
ENDROOT
BRANCH   7  15
ATOM     15  C   LIG    1       -0.018   1.468   0.010  0.00  0.00    +0.212 C 
BRANCH  15  16
ATOM     16  C   LIG    1        0.002  -0.004   0.002  0.00  0.00    -0.084 C 
ATOM     17  C   LIG    1        0.018  -1.178  -0.004  0.00  0.00    +0.005 C 
ENDBRANCH  15  16
ENDBRANCH   7  15
TORSDOF 2
