REMARK  Name = ZINC01166512
REMARK                            x       y       z     vdW  Elec       q    Type
REMARK                         _______ _______ _______ _____ _____    ______ ____
ROOT
ATOM      1  C   LIG    1        3.021   7.805  -0.076  0.00  0.00    +0.034 A 
ATOM      2  C   LIG    1        1.712   8.274  -0.058  0.00  0.00    +0.024 A 
ATOM      3  C   LIG    1        1.462   9.627  -0.133  0.00  0.00    +0.015 A 
ATOM      4  C   LIG    1        2.525  10.527  -0.238  0.00  0.00    +0.037 A 
ATOM      5  C   LIG    1        3.839  10.052  -0.262  0.00  0.00    +0.015 A 
ATOM      6  C   LIG    1        4.081   8.698  -0.181  0.00  0.00    +0.024 A 
ENDROOT
BRANCH   4   7
ATOM      7  C   LIG    1        2.261  11.977  -0.324  0.00  0.00    +0.228 A 
ATOM      8  N   LIG    1        3.182  12.903  -0.419  0.00  0.00    -0.209 NA
ATOM      9  C   LIG    1        2.576  14.117  -0.479  0.00  0.00    +0.110 A 
ATOM     10  C   LIG    1        3.049  15.427  -0.586  0.00  0.00    +0.035 A 
ATOM     11  C   LIG    1        2.156  16.475  -0.618  0.00  0.00    -0.048 A 
ATOM     12  C   LIG    1        2.665  17.889  -0.733  0.00  0.00    +0.044 C 
ATOM     13  C   LIG    1        0.791  16.237  -0.546  0.00  0.00    +0.010 A 
ATOM     14  C   LIG    1        0.310  14.949  -0.440  0.00  0.00    -0.006 A 
ATOM     15  C   LIG    1       -1.175  14.702  -0.362  0.00  0.00    +0.047 C 
ATOM     16  C   LIG    1        1.193  13.881  -0.406  0.00  0.00    +0.159 A 
ATOM     17  O   LIG    1        1.039  12.542  -0.311  0.00  0.00    -0.435 OA
ENDBRANCH   4   7
BRANCH   1  19
ATOM     18  C   LIG    1        2.459   5.644   0.738  0.00  0.00    +0.255 C 
ATOM     19  N   LIG    1        3.270   6.433   0.006  0.00  0.00    -0.283 N 
ATOM     20  H   LIG    1        4.027   6.049  -0.463  0.00  0.00    +0.155 HD
ATOM     21  O   LIG    1        1.571   6.135   1.402  0.00  0.00    -0.272 OA
BRANCH  18  22
ATOM     22  C   LIG    1        2.656   4.150   0.732  0.00  0.00    +0.324 C 
BRANCH  22  23
ATOM     23  O   LIG    1        1.681   3.537   1.578  0.00  0.00    -0.483 OA
BRANCH  23  28
ATOM     24  C   LIG    1        1.845  -2.076   2.020  0.00  0.00    +0.044 C 
ATOM     25  C   LIG    1        1.801  -0.574   1.901  0.00  0.00    -0.050 A 
ATOM     26  C   LIG    1        0.845   0.145   2.595  0.00  0.00    +0.007 A 
ATOM     27  C   LIG    1        0.803   1.522   2.488  0.00  0.00    +0.046 A 
ATOM     28  C   LIG    1        1.720   2.183   1.684  0.00  0.00    +0.121 A 
ATOM     29  C   LIG    1        2.678   1.458   0.989  0.00  0.00    +0.046 A 
ATOM     30  C   LIG    1        2.716   0.082   1.099  0.00  0.00    +0.007 A 
ENDBRANCH  23  28
ENDBRANCH  22  23
ENDBRANCH  18  22
ENDBRANCH   1  19
TORSDOF 5
