REMARK  Name = ZINC01038770
REMARK                            x       y       z     vdW  Elec       q    Type
REMARK                         _______ _______ _______ _____ _____    ______ ____
ROOT
ATOM      1  C   LIG    1       -2.529   3.856   0.049  0.00  0.00    +0.046 C 
ATOM      2  C   LIG    1       -3.686   3.168  -0.042  0.00  0.00    +0.170 C 
ENDROOT
BRANCH   1  11
ATOM      3  C   LIG    1       -1.124   1.962  -0.748  0.00  0.00    +0.011 A 
ATOM      4  C   LIG    1        0.077   1.294  -0.795  0.00  0.00    +0.046 A 
ATOM      5  C   LIG    1        1.190   1.793  -0.117  0.00  0.00    +0.124 A 
ATOM      6  C   LIG    1        1.070   2.976   0.607  0.00  0.00    -0.002 A 
ATOM      7  C   LIG    1        2.430   3.266   1.211  0.00  0.00    +0.080 C 
ATOM      8  C   LIG    1        3.349   2.326   0.395  0.00  0.00    +0.234 C 
ATOM      9  C   LIG    1       -0.126   3.648   0.668  0.00  0.00    +0.015 A 
ATOM     10  O   LIG    1        2.450   1.287  -0.025  0.00  0.00    -0.491 OA
ATOM     11  C   LIG    1       -1.243   3.145  -0.010  0.00  0.00    -0.022 A 
ENDBRANCH   1  11
BRANCH   2  12
ATOM     12  S   LIG    1       -5.218   4.031  -0.152  0.00  0.00    +0.036 S 
ATOM     13  O   LIG    1       -4.905   5.417  -0.147  0.00  0.00    -0.164 OA
ATOM     14  O   LIG    1       -6.085   3.442   0.807  0.00  0.00    -0.164 OA
BRANCH  12  15
ATOM     15  C   LIG    1       -5.904   3.676  -1.736  0.00  0.00    +0.113 A 
ATOM     16  C   LIG    1       -7.087   2.967  -1.834  0.00  0.00    +0.030 A 
ATOM     17  C   LIG    1       -7.625   2.688  -3.076  0.00  0.00    +0.022 A 
ATOM     18  C   LIG    1       -6.981   3.119  -4.222  0.00  0.00    +0.042 A 
ATOM     19 CL   LIG    1       -7.657   2.768  -5.782  0.00  0.00    -0.083 Cl
ATOM     20  C   LIG    1       -5.797   3.828  -4.125  0.00  0.00    +0.042 A 
ATOM     21  C   LIG    1       -5.261   4.111  -2.881  0.00  0.00    +0.068 A 
ATOM     22 CL   LIG    1       -3.779   5.007  -2.758  0.00  0.00    -0.082 Cl
ENDBRANCH  12  15
ENDBRANCH   2  12
BRANCH   2  23
ATOM     23  C   LIG    1       -3.668   1.736  -0.050  0.00  0.00    +0.119 C 
ATOM     24  N   LIG    1       -3.654   0.600  -0.057  0.00  0.00    -0.189 NA
ENDBRANCH   2  23
TORSDOF 4
