REMARK  Name = ZINC00968303
REMARK                            x       y       z     vdW  Elec       q    Type
REMARK                         _______ _______ _______ _____ _____    ______ ____
ROOT
ATOM      1  C   LIG    1       -1.412  -0.526   0.013  0.00  0.00    -0.003 A 
ATOM      2  C   LIG    1       -2.259  -0.205   1.056  0.00  0.00    +0.007 A 
ATOM      3  C   LIG    1       -3.556  -0.683   1.066  0.00  0.00    +0.001 A 
ATOM      4  C   LIG    1       -4.009  -1.484   0.033  0.00  0.00    +0.007 A 
ATOM      5  C   LIG    1       -3.166  -1.807  -1.012  0.00  0.00    -0.003 A 
ATOM      6  C   LIG    1       -1.865  -1.324  -1.028  0.00  0.00    +0.124 A 
ENDROOT
BRANCH   1   8
ATOM      7  C   LIG    1       -0.019   1.526   0.010  0.00  0.00    +0.012 C 
ATOM      8  C   LIG    1        0.002  -0.004   0.002  0.00  0.00    +0.016 C 
ATOM      9  C   LIG    1        0.742  -0.511   1.242  0.00  0.00    +0.012 C 
ENDBRANCH   1   8
BRANCH   5  10
ATOM     10  C   LIG    1       -3.659  -2.680  -2.137  0.00  0.00    +0.016 C 
ATOM     11  C   LIG    1       -4.851  -2.005  -2.820  0.00  0.00    +0.012 C 
ATOM     12  C   LIG    1       -4.092  -4.036  -1.578  0.00  0.00    +0.012 C 
ENDBRANCH   5  10
BRANCH   6  13
ATOM     13  O   LIG    1       -1.035  -1.636  -2.058  0.00  0.00    -0.506 OA
ATOM     14  H   LIG    1       -0.526  -2.446  -1.921  0.00  0.00    +0.292 HD
ENDBRANCH   6  13
TORSDOF 3
