REMARK  Name = ZINC00975836
REMARK                            x       y       z     vdW  Elec       q    Type
REMARK                         _______ _______ _______ _____ _____    ______ ____
ROOT
ATOM      1  C   LIG    1       -2.499   1.014   0.019  0.00  0.00    +0.028 C 
ATOM      2  C   LIG    1       -3.626   1.589  -0.469  0.00  0.00    +0.080 C 
ATOM      3  C   LIG    1       -3.804   2.897  -1.135  0.00  0.00    +0.258 C 
ATOM      4  N   LIG    1       -5.033   3.205  -1.514  0.00  0.00    -0.243 N 
ATOM      5  H   LIG    1       -5.194   4.054  -1.955  0.00  0.00    +0.159 HD
ATOM      6  C   LIG    1       -6.068   2.367  -1.300  0.00  0.00    +0.283 C 
ATOM      7  O   LIG    1       -7.238   2.522  -1.592  0.00  0.00    -0.262 OA
ATOM      8  O   LIG    1       -2.868   3.650  -1.326  0.00  0.00    -0.269 OA
ATOM      9  S   LIG    1       -5.303   0.972  -0.489  0.00  0.00    -0.026 S 
ENDROOT
BRANCH   1  17
ATOM     10  C   LIG    1       -1.276   3.137   0.449  0.00  0.00    +0.009 A 
ATOM     11  C   LIG    1       -0.101   3.856   0.503  0.00  0.00    +0.022 A 
ATOM     12  C   LIG    1        1.105   3.243   0.204  0.00  0.00    +0.059 A 
ATOM     13 CL   LIG    1        2.579   4.157   0.276  0.00  0.00    -0.082 Cl
ATOM     14  C   LIG    1        1.140   1.903  -0.152  0.00  0.00    +0.060 A 
ATOM     15 CL   LIG    1        2.657   1.145  -0.524  0.00  0.00    -0.082 Cl
ATOM     16  C   LIG    1       -0.027   1.171  -0.210  0.00  0.00    +0.029 A 
ATOM     17  C   LIG    1       -1.250   1.786   0.085  0.00  0.00    -0.022 A 
ENDBRANCH   1  17
TORSDOF 1
