REMARK  Name = ZINC00987998
REMARK                            x       y       z     vdW  Elec       q    Type
REMARK                         _______ _______ _______ _____ _____    ______ ____
ROOT
ATOM      1  C   LIG    1       -1.710   2.401   0.078  0.00  0.00    +0.101 A 
ATOM      2  C   LIG    1       -1.750   3.263   1.154  0.00  0.00    +0.137 A 
ATOM      3  C   LIG    1       -2.953   3.899   1.473  0.00  0.00    +0.142 A 
ATOM      4  N   LIG    1       -4.032   3.679   0.758  0.00  0.00    -0.234 NA
ATOM      5  C   LIG    1       -4.014   2.844  -0.291  0.00  0.00    +0.157 A 
ATOM      6  C   LIG    1       -4.996   2.450  -1.187  0.00  0.00    +0.078 A 
ATOM      7  C   LIG    1       -4.412   1.554  -2.086  0.00  0.00    +0.095 A 
ATOM      8  N   LIG    1       -3.139   1.401  -1.765  0.00  0.00    -0.164 NA
ATOM      9  N   LIG    1       -2.858   2.199  -0.651  0.00  0.00    -0.212 N 
ENDROOT
BRANCH   7  10
ATOM     10  C   LIG    1       -5.107   0.884  -3.214  0.00  0.00    +0.002 A 
ATOM     11  C   LIG    1       -6.460   1.125  -3.444  0.00  0.00    +0.011 A 
ATOM     12  C   LIG    1       -7.100   0.504  -4.497  0.00  0.00    +0.020 A 
ATOM     13  C   LIG    1       -6.403  -0.366  -5.317  0.00  0.00    +0.041 A 
ATOM     14 CL   LIG    1       -7.215  -1.150  -6.636  0.00  0.00    -0.084 Cl
ATOM     15  C   LIG    1       -5.060  -0.613  -5.090  0.00  0.00    +0.020 A 
ATOM     16  C   LIG    1       -4.410   0.007  -4.042  0.00  0.00    +0.011 A 
ENDBRANCH   7  10
BRANCH   1  20
ATOM     17  C   LIG    1        1.892   0.419  -0.985  0.00  0.00    +0.000 A 
ATOM     18  C   LIG    1        0.851  -0.299  -0.424  0.00  0.00    +0.001 A 
ATOM     19  C   LIG    1       -0.322   0.339  -0.075  0.00  0.00    +0.010 A 
ATOM     20  C   LIG    1       -0.456   1.712  -0.288  0.00  0.00    +0.002 A 
ATOM     21  C   LIG    1        0.599   2.430  -0.855  0.00  0.00    +0.010 A 
ATOM     22  C   LIG    1        1.766   1.780  -1.199  0.00  0.00    +0.001 A 
ENDBRANCH   1  20
BRANCH   2  23
ATOM     23  S   LIG    1       -0.303   3.559   2.114  0.00  0.00    +0.029 S 
ATOM     24  O   LIG    1        0.670   2.618   1.681  0.00  0.00    -0.164 OA
ATOM     25  O   LIG    1       -0.725   3.650   3.468  0.00  0.00    -0.164 OA
BRANCH  23  26
ATOM     26  C   LIG    1        0.302   5.152   1.667  0.00  0.00    +0.094 A 
ATOM     27  C   LIG    1        1.312   5.270   0.730  0.00  0.00    +0.027 A 
ATOM     28  C   LIG    1        1.784   6.520   0.375  0.00  0.00    +0.002 A 
ATOM     29  C   LIG    1        1.253   7.652   0.965  0.00  0.00    +0.000 A 
ATOM     30  C   LIG    1        0.247   7.534   1.907  0.00  0.00    +0.002 A 
ATOM     31  C   LIG    1       -0.228   6.284   2.257  0.00  0.00    +0.027 A 
ENDBRANCH  23  26
ENDBRANCH   2  23
TORSDOF 4
