REMARK  Name = ZINC00781684
REMARK                            x       y       z     vdW  Elec       q    Type
REMARK                         _______ _______ _______ _____ _____    ______ ____
ROOT
ATOM      1  C   LIG    1        5.138  -0.850  -3.090  0.00  0.00    +0.061 C 
ATOM      2  C   LIG    1        4.305  -0.099  -2.083  0.00  0.00    +0.016 C 
ATOM      3  C   LIG    1        4.753   1.065  -1.581  0.00  0.00    +0.066 C 
ATOM      4  C   LIG    1        3.955   1.836  -0.572  0.00  0.00    +0.099 C 
ATOM      5  C   LIG    1        2.516   1.386  -0.560  0.00  0.00    +0.024 C 
ATOM      6  C   LIG    1        2.159   0.204  -1.108  0.00  0.00    +0.016 C 
ATOM      7  C   LIG    1        0.721  -0.253  -1.101  0.00  0.00    +0.060 C 
ATOM      8  C   LIG    1        0.012   0.301   0.137  0.00  0.00    +0.039 C 
ATOM      9  C   LIG    1        0.111   1.830   0.110  0.00  0.00    +0.088 C 
ATOM     10  C   LIG    1        1.560   2.226   0.038  0.00  0.00    +0.162 C 
ATOM     11  O   LIG    1        1.912   3.291   0.506  0.00  0.00    -0.292 OA
ATOM     12  N   LIG    1        3.099  -0.605  -1.687  0.00  0.00    -0.321 N 
ATOM     13  H   LIG    1        2.876  -1.673  -1.832  0.00  0.00    +0.152 HD
ENDROOT
BRANCH   4  14
ATOM     14  C   LIG    1        4.550   1.624   0.796  0.00  0.00    +0.002 A 
ATOM     15  C   LIG    1        5.091   2.535   1.642  0.00  0.00    +0.012 A 
ATOM     16  C   LIG    1        5.579   2.109   2.863  0.00  0.00    +0.008 A 
ATOM     17  C   LIG    1        5.512   0.791   3.174  0.00  0.00    +0.045 A 
ATOM     18  S   LIG    1        4.733   0.108   1.720  0.00  0.00    -0.101 S 
ENDBRANCH   4  14
BRANCH   8  19
ATOM     19  C   LIG    1       -1.437  -0.113   0.119  0.00  0.00    -0.006 A 
ATOM     20  C   LIG    1       -2.129  -0.837   1.033  0.00  0.00    +0.011 A 
ATOM     21  C   LIG    1       -3.467  -1.099   0.806  0.00  0.00    +0.008 A 
ATOM     22  C   LIG    1       -4.047  -0.625  -0.324  0.00  0.00    +0.045 A 
ATOM     23  S   LIG    1       -2.688   0.228  -1.107  0.00  0.00    -0.101 S 
ENDBRANCH   8  19
BRANCH   3  24
ATOM     24  C   LIG    1        6.001   1.572  -2.013  0.00  0.00    +0.338 C 
ATOM     25  O   LIG    1        6.706   0.908  -2.749  0.00  0.00    -0.245 OA
BRANCH  24  26
ATOM     26  O   LIG    1        6.409   2.793  -1.609  0.00  0.00    -0.457 OA
BRANCH  26  27
ATOM     27  C   LIG    1        7.680   3.243  -2.084  0.00  0.00    +0.268 C 
BRANCH  27  28
ATOM     28  C   LIG    1        7.965   4.616  -1.533  0.00  0.00    -0.010 A 
ATOM     29  C   LIG    1        7.570   5.738  -2.237  0.00  0.00    +0.010 A 
ATOM     30  C   LIG    1        7.825   6.998  -1.732  0.00  0.00    +0.046 A 
ATOM     31  C   LIG    1        8.489   7.137  -0.521  0.00  0.00    +0.120 A 
ATOM     32  C   LIG    1        8.889   6.009   0.181  0.00  0.00    +0.046 A 
ATOM     33  C   LIG    1        8.627   4.752  -0.327  0.00  0.00    +0.010 A 
BRANCH  31  34
ATOM     34  O   LIG    1        8.746   8.375  -0.024  0.00  0.00    -0.495 OA
ATOM     35  C   LIG    1        8.305   9.491  -0.801  0.00  0.00    +0.277 C 
ENDBRANCH  31  34
ENDBRANCH  27  28
ENDBRANCH  26  27
ENDBRANCH  24  26
ENDBRANCH   3  24
TORSDOF 7
