REMARK  Name = ZINC00967952
REMARK                            x       y       z     vdW  Elec       q    Type
REMARK                         _______ _______ _______ _____ _____    ______ ____
ROOT
ATOM      1  C   LIG    1       -2.214   1.578   1.215  0.00  0.00    +0.007 C 
ATOM      2  C   LIG    1       -0.758   2.047   1.247  0.00  0.00    -0.017 C 
ATOM      3  C   LIG    1       -0.699   3.586   1.211  0.00  0.00    -0.060 C 
ATOM      4  N   LIG    1       -1.307   4.121  -0.026  0.00  0.00    +0.382 N 
ATOM      5  H   LIG    1       -2.291   3.830  -0.060  0.00  0.00    -0.081 HD
ATOM      6  C   LIG    1       -0.614   3.593  -1.227  0.00  0.00    -0.078 C 
ATOM      7  C   LIG    1       -0.731   2.064  -1.243  0.00  0.00    -0.007 C 
ATOM      8  C   LIG    1        0.729   4.049   1.442  0.00  0.00    +0.020 C 
ATOM      9  C   LIG    1        1.719   3.248   0.641  0.00  0.00    -0.045 A 
ATOM     10  C   LIG    1        3.026   3.719   0.576  0.00  0.00    +0.007 A 
ATOM     11  C   LIG    1        3.993   3.015  -0.109  0.00  0.00    +0.045 A 
ATOM     12  C   LIG    1        3.662   1.826  -0.742  0.00  0.00    +0.117 A 
ATOM     13  C   LIG    1        2.359   1.361  -0.686  0.00  0.00    +0.049 A 
ATOM     14  C   LIG    1        1.389   2.076  -0.000  0.00  0.00    -0.035 A 
ATOM     15  C   LIG    1       -0.019   1.526   0.010  0.00  0.00    -0.007 C 
ATOM     16  C   LIG    1        0.002  -0.004   0.002  0.00  0.00    +0.016 C 
ENDROOT
BRANCH  12  17
ATOM     17  O   LIG    1        4.611   1.121  -1.413  0.00  0.00    -0.507 OA
ATOM     18  H   LIG    1        4.694   1.363  -2.346  0.00  0.00    +0.292 HD
ENDBRANCH  12  17
BRANCH   4  19
ATOM     19  C   LIG    1       -1.246   5.589  -0.016  0.00  0.00    -0.074 C 
BRANCH  19  20
ATOM     20  C   LIG    1       -2.062   6.114  -1.199  0.00  0.00    +0.016 C 
BRANCH  20  21
ATOM     21  C   LIG    1       -2.044   7.621  -1.192  0.00  0.00    -0.049 A 
ATOM     22  C   LIG    1       -3.023   8.320  -0.511  0.00  0.00    +0.003 A 
ATOM     23  C   LIG    1       -3.004   9.703  -0.501  0.00  0.00    +0.000 A 
ATOM     24  C   LIG    1       -2.012  10.385  -1.180  0.00  0.00    +0.000 A 
ATOM     25  C   LIG    1       -1.037   9.686  -1.866  0.00  0.00    +0.000 A 
ATOM     26  C   LIG    1       -1.053   8.304  -1.872  0.00  0.00    +0.003 A 
ENDBRANCH  20  21
ENDBRANCH  19  20
ENDBRANCH   4  19
TORSDOF 4
