REMARK  Name = ZINC01295794
REMARK                            x       y       z     vdW  Elec       q    Type
REMARK                         _______ _______ _______ _____ _____    ______ ____
ROOT
ATOM      1  C   LIG    1        1.250  -2.160  -0.021  0.00  0.00    +0.247 C 
ATOM      2  N   LIG    1        2.424  -2.812  -0.137  0.00  0.00    -0.298 N 
ATOM      3  C   LIG    1        3.692  -2.071  -0.154  0.00  0.00    +0.108 C 
ATOM      4  C   LIG    1        4.614  -2.656   0.927  0.00  0.00    +0.023 C 
ATOM      5  C   LIG    1        4.763  -4.163   0.702  0.00  0.00    -0.004 C 
ATOM      6  C   LIG    1        3.393  -4.836   0.820  0.00  0.00    +0.023 C 
ATOM      7  C   LIG    1        2.459  -4.276  -0.257  0.00  0.00    +0.108 C 
ATOM      8  O   LIG    1        0.215  -2.788   0.093  0.00  0.00    -0.270 OA
ENDROOT
BRANCH   1  13
ATOM      9  C   LIG    1        1.135   3.593  -0.064  0.00  0.00    +0.044 C 
ATOM     10  C   LIG    1        1.165   2.086  -0.053  0.00  0.00    -0.050 A 
ATOM     11  C   LIG    1        0.371   1.388   0.840  0.00  0.00    +0.004 A 
ATOM     12  C   LIG    1        0.394   0.009   0.855  0.00  0.00    +0.013 A 
ATOM     13  C   LIG    1        1.220  -0.682  -0.032  0.00  0.00    +0.037 A 
ATOM     14  C   LIG    1        2.019   0.028  -0.930  0.00  0.00    +0.013 A 
ATOM     15  C   LIG    1        1.987   1.407  -0.935  0.00  0.00    +0.004 A 
ENDBRANCH   1  13
BRANCH   5  16
ATOM     16  C   LIG    1        5.710  -4.744   1.754  0.00  0.00    +0.038 C 
BRANCH  16  17
ATOM     17  C   LIG    1        7.090  -4.172   1.558  0.00  0.00    -0.047 A 
ATOM     18  C   LIG    1        7.994  -4.813   0.733  0.00  0.00    +0.003 A 
ATOM     19  C   LIG    1        9.258  -4.286   0.550  0.00  0.00    +0.000 A 
ATOM     20  C   LIG    1        9.622  -3.122   1.201  0.00  0.00    +0.000 A 
ATOM     21  C   LIG    1        8.720  -2.482   2.030  0.00  0.00    +0.000 A 
ATOM     22  C   LIG    1        7.454  -3.008   2.209  0.00  0.00    +0.003 A 
ENDBRANCH  16  17
ENDBRANCH   5  16
TORSDOF 3
