REMARK  Name = ZINC01043118
REMARK                            x       y       z     vdW  Elec       q    Type
REMARK                         _______ _______ _______ _____ _____    ______ ____
ROOT
ATOM      1  C   LIG    1        4.017   1.961  -0.026  0.00  0.00    +0.192 A 
ATOM      2  N   LIG    1        5.255   1.489  -0.040  0.00  0.00    -0.220 NA
ATOM      3  C   LIG    1        6.301   2.315  -0.046  0.00  0.00    +0.103 A 
ATOM      4  C   LIG    1        6.068   3.710  -0.036  0.00  0.00    +0.139 A 
ATOM      5  C   LIG    1        4.733   4.157  -0.021  0.00  0.00    +0.235 A 
ATOM      6  N   LIG    1        3.756   3.262  -0.022  0.00  0.00    -0.186 NA
ENDROOT
BRANCH   3   7
ATOM      7  C   LIG    1        7.674   1.784  -0.062  0.00  0.00    +0.039 A 
ATOM      8  C   LIG    1        8.177   0.649   0.547  0.00  0.00    +0.018 A 
ATOM      9  C   LIG    1        9.514   0.380   0.364  0.00  0.00    +0.008 A 
ATOM     10  C   LIG    1       10.264   1.230  -0.382  0.00  0.00    +0.046 A 
ATOM     11  S   LIG    1        9.124   2.442  -0.867  0.00  0.00    -0.095 S 
ENDBRANCH   3   7
BRANCH   4  12
ATOM     12  C   LIG    1        7.157   4.639  -0.042  0.00  0.00    +0.107 C 
ATOM     13  N   LIG    1        8.021   5.377  -0.046  0.00  0.00    -0.191 NA
ENDBRANCH   4  12
BRANCH   5  14
ATOM     14  O   LIG    1        4.453   5.481  -0.011  0.00  0.00    -0.491 OA
ATOM     15  H   LIG    1        5.149   6.108  -0.011  0.00  0.00    +0.294 HD
ENDBRANCH   5  14
BRANCH   1  16
ATOM     16  S   LIG    1        2.672   0.822  -0.019  0.00  0.00    -0.078 S 
BRANCH  16  17
ATOM     17  C   LIG    1        1.280   1.980   0.001  0.00  0.00    +0.157 C 
BRANCH  17  18
ATOM     18  C   LIG    1       -0.014   1.208   0.009  0.00  0.00    +0.173 C 
ATOM     19  O   LIG    1        0.002  -0.004   0.002  0.00  0.00    -0.291 OA
BRANCH  18  23
ATOM     20  C   LIG    1       -4.999   1.128   0.032  0.00  0.00    +0.045 C 
ATOM     21  C   LIG    1       -3.701   1.894   0.030  0.00  0.00    -0.031 A 
ATOM     22  C   LIG    1       -2.502   1.214   0.021  0.00  0.00    +0.016 A 
ATOM     23  C   LIG    1       -1.298   1.927   0.019  0.00  0.00    +0.019 A 
ATOM     24  C   LIG    1       -1.321   3.325   0.032  0.00  0.00    +0.013 A 
ATOM     25  C   LIG    1       -2.527   3.991   0.036  0.00  0.00    +0.021 A 
ATOM     26  C   LIG    1       -3.716   3.279   0.038  0.00  0.00    +0.044 A 
ATOM     27 CL   LIG    1       -5.231   4.126   0.050  0.00  0.00    -0.083 Cl
ENDBRANCH  18  23
ENDBRANCH  17  18
ENDBRANCH  16  17
ENDBRANCH   1  16
TORSDOF 7
