REMARK  Name = ZINC00722091
REMARK                            x       y       z     vdW  Elec       q    Type
REMARK                         _______ _______ _______ _____ _____    ______ ____
ROOT
ATOM      1  C   LIG    1        0.707  -0.490  -1.238  0.00  0.00    +0.000 A 
ATOM      2  C   LIG    1        1.212   0.414  -2.137  0.00  0.00    +0.019 A 
ATOM      3  C   LIG    1        1.868  -0.039  -3.288  0.00  0.00    +0.020 A 
ATOM      4  C   LIG    1        2.004  -1.414  -3.515  0.00  0.00    +0.019 A 
ATOM      5  C   LIG    1        1.496  -2.310  -2.610  0.00  0.00    +0.000 A 
ATOM      6  C   LIG    1        0.850  -1.855  -1.466  0.00  0.00    +0.124 A 
ENDROOT
BRANCH   1   8
ATOM      7  C   LIG    1       -0.019   1.526   0.010  0.00  0.00    +0.015 C 
ATOM      8  C   LIG    1        0.002  -0.004   0.002  0.00  0.00    -0.009 C 
ATOM      9  C   LIG    1       -1.433  -0.534   0.013  0.00  0.00    +0.015 C 
ATOM     10  C   LIG    1        0.742  -0.511   1.242  0.00  0.00    +0.015 C 
ENDBRANCH   1   8
BRANCH   5  11
ATOM     11  C   LIG    1        1.642  -3.790  -2.853  0.00  0.00    -0.009 C 
ATOM     12  C   LIG    1        0.256  -4.433  -2.935  0.00  0.00    +0.015 C 
ATOM     13  C   LIG    1        2.429  -4.420  -1.703  0.00  0.00    +0.015 C 
ATOM     14  C   LIG    1        2.389  -4.019  -4.168  0.00  0.00    +0.015 C 
ENDBRANCH   5  11
BRANCH   3  15
ATOM     15  C   LIG    1        2.410   0.925  -4.255  0.00  0.00    +0.183 C 
ATOM     16  O   LIG    1        2.291   2.115  -4.056  0.00  0.00    -0.290 OA
BRANCH  15  17
ATOM     17  C   LIG    1        3.115   0.434  -5.493  0.00  0.00    +0.204 C 
BRANCH  17  18
ATOM     18  N   LIG    1        3.559   1.581  -6.289  0.00  0.00    -0.306 N 
ATOM     19  C   LIG    1        2.829   2.192  -7.258  0.00  0.00    +0.069 A 
ATOM     20  C   LIG    1        1.552   1.972  -7.779  0.00  0.00    +0.028 A 
ATOM     21  C   LIG    1        1.075   2.781  -8.787  0.00  0.00    +0.002 A 
ATOM     22  C   LIG    1        1.854   3.814  -9.288  0.00  0.00    +0.002 A 
ATOM     23  C   LIG    1        3.118   4.044  -8.784  0.00  0.00    +0.028 A 
ATOM     24  C   LIG    1        3.613   3.239  -7.769  0.00  0.00    +0.068 A 
ATOM     25  N   LIG    1        4.806   3.206  -7.065  0.00  0.00    -0.316 N 
ATOM     26  C   LIG    1        5.946   4.108  -7.244  0.00  0.00    +0.152 C 
ATOM     27  C   LIG    1        4.719   2.178  -6.170  0.00  0.00    +0.174 A 
BRANCH  27  28
ATOM     28  N   LIG    1        5.707   1.820  -5.277  0.00  0.00    -0.330 N 
ATOM     29  H   LIG    1        6.541   2.315  -5.252  0.00  0.00    +0.145 HD
ATOM     30  H   LIG    1        5.568   1.074  -4.674  0.00  0.00    +0.145 HD
ENDBRANCH  27  28
ENDBRANCH  17  18
ENDBRANCH  15  17
ENDBRANCH   3  15
BRANCH   6  31
ATOM     31  O   LIG    1        0.354  -2.745  -0.570  0.00  0.00    -0.506 OA
ATOM     32  H   LIG    1       -0.559  -3.011  -0.745  0.00  0.00    +0.292 HD
ENDBRANCH   6  31
TORSDOF 7
