REMARK  Name = ZINC01066515
REMARK                            x       y       z     vdW  Elec       q    Type
REMARK                         _______ _______ _______ _____ _____    ______ ____
ROOT
ATOM      1  C   LIG    1        1.081  -6.032  -1.846  0.00  0.00    +0.118 C 
ENDROOT
BRANCH   1   2
ATOM      2  C   LIG    1        2.456  -6.556  -1.519  0.00  0.00    +0.019 A 
ATOM      3  C   LIG    1        3.408  -6.658  -2.529  0.00  0.00    +0.029 A 
ATOM      4  C   LIG    1        4.661  -7.127  -2.266  0.00  0.00    +0.051 A 
ATOM      5 CL   LIG    1        5.833  -7.247  -3.541  0.00  0.00    -0.083 Cl
ATOM      6  C   LIG    1        4.999  -7.513  -0.958  0.00  0.00    +0.022 A 
ATOM      7  C   LIG    1        6.281  -8.002  -0.647  0.00  0.00    +0.013 A 
ATOM      8  C   LIG    1        6.539  -8.358   0.646  0.00  0.00    +0.020 A 
ATOM      9  C   LIG    1        5.544  -8.233   1.613  0.00  0.00    +0.111 A 
ATOM     10  N   LIG    1        4.350  -7.778   1.320  0.00  0.00    -0.251 NA
ATOM     11  C   LIG    1        4.034  -7.412   0.074  0.00  0.00    +0.114 A 
ATOM     12  C   LIG    1        2.750  -6.917  -0.235  0.00  0.00    +0.148 A 
BRANCH  12  13
ATOM     13  O   LIG    1        1.808  -6.805   0.738  0.00  0.00    -0.504 OA
ATOM     14  H   LIG    1        1.263  -7.596   0.851  0.00  0.00    +0.292 HD
ENDBRANCH  12  13
ENDBRANCH   1   2
BRANCH   1  18
ATOM     15  C   LIG    1        0.941  -1.828  -1.091  0.00  0.00    +0.121 A 
ATOM     16  C   LIG    1        0.302  -2.710  -0.232  0.00  0.00    +0.046 A 
ATOM     17  C   LIG    1        0.349  -4.069  -0.478  0.00  0.00    +0.009 A 
ATOM     18  C   LIG    1        1.032  -4.550  -1.580  0.00  0.00    -0.026 A 
ATOM     19  C   LIG    1        1.669  -3.673  -2.438  0.00  0.00    +0.009 A 
ATOM     20  C   LIG    1        1.621  -2.313  -2.199  0.00  0.00    +0.046 A 
BRANCH  15  21
ATOM     21  O   LIG    1        0.896  -0.491  -0.851  0.00  0.00    -0.492 OA
BRANCH  21  23
ATOM     22  C   LIG    1        0.239   1.462   0.411  0.00  0.00    +0.048 C 
ATOM     23  C   LIG    1        0.179  -0.064   0.308  0.00  0.00    +0.225 C 
ENDBRANCH  21  23
ENDBRANCH  15  21
ENDBRANCH   1  18
BRANCH   1  24
ATOM     24  N   LIG    1        0.785  -6.285  -3.258  0.00  0.00    -0.302 NA
ATOM     25  H   LIG    1        0.975  -5.604  -3.923  0.00  0.00    +0.123 HD
BRANCH  24  26
ATOM     26  C   LIG    1        0.231  -7.506  -3.648  0.00  0.00    +0.068 C 
ATOM     27  C   LIG    1        0.070  -8.537  -2.724  0.00  0.00    +0.021 C 
ATOM     28  C   LIG    1       -0.484  -9.729  -3.159  0.00  0.00    +0.017 C 
ATOM     29  C   LIG    1       -0.858  -9.857  -4.484  0.00  0.00    +0.081 C 
ATOM     30  N   LIG    1       -0.693  -8.863  -5.334  0.00  0.00    -0.315 NA
ATOM     31  H   LIG    1       -0.964  -8.982  -6.258  0.00  0.00    +0.122 HD
ATOM     32  C   LIG    1       -0.174  -7.710  -4.961  0.00  0.00    +0.099 C 
ENDBRANCH  24  26
ENDBRANCH   1  24
TORSDOF 7
