REMARK  Name = ZINC01065950
REMARK                            x       y       z     vdW  Elec       q    Type
REMARK                         _______ _______ _______ _____ _____    ______ ____
ROOT
ATOM      1  C   LIG    1        2.485   1.035  -0.014  0.00  0.00    +0.137 C 
ENDROOT
BRANCH   1   2
ATOM      2  C   LIG    1        2.919   1.061   1.429  0.00  0.00    +0.021 A 
ATOM      3  C   LIG    1        1.982   1.336   2.421  0.00  0.00    +0.010 A 
ATOM      4  C   LIG    1        2.341   1.361   3.735  0.00  0.00    +0.010 A 
ATOM      5  C   LIG    1        3.676   1.119   4.097  0.00  0.00    +0.004 A 
ATOM      6  C   LIG    1        4.086   1.143   5.443  0.00  0.00    +0.011 A 
ATOM      7  C   LIG    1        5.401   0.897   5.721  0.00  0.00    +0.020 A 
ATOM      8  C   LIG    1        6.293   0.633   4.684  0.00  0.00    +0.111 A 
ATOM      9  N   LIG    1        5.907   0.612   3.431  0.00  0.00    -0.251 NA
ATOM     10  C   LIG    1        4.636   0.844   3.092  0.00  0.00    +0.113 A 
ATOM     11  C   LIG    1        4.226   0.820   1.742  0.00  0.00    +0.148 A 
BRANCH  11  12
ATOM     12  O   LIG    1        5.127   0.558   0.760  0.00  0.00    -0.504 OA
ATOM     13  H   LIG    1        5.511   1.350   0.357  0.00  0.00    +0.292 HD
ENDBRANCH  11  12
ENDBRANCH   1   2
BRANCH   1  19
ATOM     14  C   LIG    1       -1.240   1.605  -0.246  0.00  0.00    +0.001 A 
ATOM     15  C   LIG    1       -1.302   2.978  -0.397  0.00  0.00    +0.003 A 
ATOM     16  C   LIG    1       -0.139   3.722  -0.431  0.00  0.00    +0.039 A 
ATOM     17  C   LIG    1        1.089   3.094  -0.307  0.00  0.00    +0.129 A 
ATOM     18  F   LIG    1        2.227   3.821  -0.340  0.00  0.00    -0.205 F 
ATOM     19  C   LIG    1        1.150   1.720  -0.150  0.00  0.00    +0.012 A 
ATOM     20  C   LIG    1       -0.015   0.977  -0.117  0.00  0.00    +0.008 A 
ENDBRANCH   1  19
BRANCH   1  21
ATOM     21  N   LIG    1        2.369  -0.355  -0.464  0.00  0.00    -0.332 N 
ATOM     22  H   LIG    1        2.219  -1.063   0.182  0.00  0.00    +0.147 HD
BRANCH  21  23
ATOM     23  C   LIG    1        2.473  -0.660  -1.824  0.00  0.00    +0.046 A 
ATOM     24  C   LIG    1        2.364  -1.977  -2.263  0.00  0.00    +0.026 A 
ATOM     25  C   LIG    1        2.474  -2.230  -3.620  0.00  0.00    +0.021 A 
ATOM     26  C   LIG    1        2.686  -1.175  -4.488  0.00  0.00    +0.111 A 
ATOM     27  N   LIG    1        2.785   0.062  -4.041  0.00  0.00    -0.261 NA
ATOM     28  C   LIG    1        2.681   0.347  -2.758  0.00  0.00    +0.133 A 
ENDBRANCH  21  23
ENDBRANCH   1  21
TORSDOF 5
