REMARK  Name = ZINC00793392
REMARK                            x       y       z     vdW  Elec       q    Type
REMARK                         _______ _______ _______ _____ _____    ______ ____
ROOT
ATOM      1  C   LIG    1        4.947   0.139  -0.046  0.00  0.00    +0.029 A 
ATOM      2  C   LIG    1        5.563   0.486   1.156  0.00  0.00    +0.036 A 
ATOM      3  C   LIG    1        6.754   1.195   1.140  0.00  0.00    +0.049 A 
ATOM      4  C   LIG    1        7.332   1.560  -0.070  0.00  0.00    +0.028 A 
ATOM      5  C   LIG    1        6.725   1.218  -1.263  0.00  0.00    +0.048 A 
ATOM      6  C   LIG    1        5.538   0.504  -1.260  0.00  0.00    +0.125 A 
ENDROOT
BRANCH   1  15
ATOM      7  C   LIG    1       -0.016   1.357   0.009  0.00  0.00    +0.001 A 
ATOM      8  C   LIG    1        1.168   2.090   0.002  0.00  0.00    +0.001 A 
ATOM      9  C   LIG    1        2.378   1.465  -0.013  0.00  0.00    +0.009 A 
ATOM     10  C   LIG    1        2.436   0.064  -0.021  0.00  0.00    -0.007 A 
ATOM     11  C   LIG    1        1.233  -0.683  -0.013  0.00  0.00    -0.017 A 
ATOM     12  C   LIG    1        1.287  -2.088  -0.021  0.00  0.00    +0.012 A 
ATOM     13  C   LIG    1        2.489  -2.726  -0.035  0.00  0.00    +0.046 A 
ATOM     14  C   LIG    1        3.685  -2.008  -0.042  0.00  0.00    +0.125 A 
ATOM     15  C   LIG    1        3.675  -0.619  -0.037  0.00  0.00    +0.035 A 
ATOM     16  C   LIG    1        0.002  -0.004   0.002  0.00  0.00    +0.008 A 
BRANCH  14  17
ATOM     17  O   LIG    1        4.870  -2.673  -0.056  0.00  0.00    -0.506 OA
ATOM     18  H   LIG    1        5.205  -2.861  -0.943  0.00  0.00    +0.292 HD
ENDBRANCH  14  17
ENDBRANCH   1  15
BRANCH   3  19
ATOM     19  N   LIG    1        7.374   1.545   2.345  0.00  0.00    -0.216 N 
ATOM     20  H   LIG    1        6.965   1.288   3.202  0.00  0.00    +0.174 HD
BRANCH  19  21
ATOM     21  S   LIG    1        8.797   2.392   2.328  0.00  0.00    +0.079 S 
ATOM     22  O   LIG    1        8.500   3.674   1.790  0.00  0.00    -0.149 OA
ATOM     23  O   LIG    1        9.774   1.534   1.756  0.00  0.00    -0.149 OA
BRANCH  21  24
ATOM     24  C   LIG    1        9.271   2.648   4.006  0.00  0.00    +0.146 A 
ATOM     25  C   LIG    1       10.044   1.869   4.802  0.00  0.00    +0.036 A 
ATOM     26  C   LIG    1       10.287   2.273   6.102  0.00  0.00    +0.010 A 
ATOM     27  C   LIG    1        9.745   3.435   6.541  0.00  0.00    +0.047 A 
ATOM     28  S   LIG    1        8.865   4.002   5.095  0.00  0.00    -0.077 S 
ENDBRANCH  21  24
ENDBRANCH  19  21
ENDBRANCH   3  19
BRANCH   6  29
ATOM     29  O   LIG    1        4.946   0.163  -2.436  0.00  0.00    -0.506 OA
ATOM     30  H   LIG    1        4.322   0.824  -2.767  0.00  0.00    +0.292 HD
ENDBRANCH   6  29
TORSDOF 6
