REMARK  Name = ZINC00896709
REMARK                            x       y       z     vdW  Elec       q    Type
REMARK                         _______ _______ _______ _____ _____    ______ ____
ROOT
ATOM      1  C   LIG    1       -1.244  -2.135   0.003  0.00  0.00    +0.114 C 
ENDROOT
BRANCH   1   2
ATOM      2  C   LIG    1       -0.489  -2.352  -1.310  0.00  0.00    -0.054 C 
ATOM      3  C   LIG    1        0.969  -1.921  -1.137  0.00  0.00    -0.015 C 
ATOM      4  C   LIG    1        1.720  -2.140  -2.454  0.00  0.00    -0.003 C 
ATOM      5  C   LIG    1        1.595  -3.610  -2.864  0.00  0.00    -0.019 C 
ATOM      6  C   LIG    1        0.113  -3.978  -2.973  0.00  0.00    -0.082 C 
ATOM      7  N   LIG    1       -0.542  -3.773  -1.676  0.00  0.00    +0.382 N 
ATOM      8  H   LIG    1       -1.505  -4.068  -1.737  0.00  0.00    -0.085 HD
ATOM      9  H   LIG    1       -0.070  -4.319  -0.971  0.00  0.00    -0.085 HD
ENDBRANCH   1   2
BRANCH   1  10
ATOM     10  C   LIG    1       -2.641  -2.687  -0.124  0.00  0.00    -0.035 A 
ATOM     11  C   LIG    1       -3.453  -2.278  -1.165  0.00  0.00    +0.004 A 
ATOM     12  C   LIG    1       -4.735  -2.784  -1.281  0.00  0.00    +0.000 A 
ATOM     13  C   LIG    1       -5.203  -3.699  -0.357  0.00  0.00    +0.000 A 
ATOM     14  C   LIG    1       -4.390  -4.108   0.683  0.00  0.00    +0.000 A 
ATOM     15  C   LIG    1       -3.107  -3.606   0.797  0.00  0.00    +0.004 A 
ENDBRANCH   1  10
BRANCH   1  16
ATOM     16  C   LIG    1       -1.312  -0.661   0.305  0.00  0.00    +0.313 C 
ATOM     17  O   LIG    1       -2.384  -0.114   0.408  0.00  0.00    -0.250 OA
BRANCH  16  19
ATOM     18  C   LIG    1       -0.319   1.438   0.747  0.00  0.00    +0.280 C 
ATOM     19  O   LIG    1       -0.180   0.045   0.462  0.00  0.00    -0.468 OA
ENDBRANCH  16  19
ENDBRANCH   1  16
TORSDOF 4
