REMARK  Name = ZINC00897253
REMARK                            x       y       z     vdW  Elec       q    Type
REMARK                         _______ _______ _______ _____ _____    ______ ____
ROOT
ATOM      1  C   LIG    1       -3.492  -0.632  -1.275  0.00  0.00    -0.020 C 
ATOM      2  C   LIG    1       -4.520   0.221  -1.362  0.00  0.00    -0.011 C 
ATOM      3  C   LIG    1       -4.258   1.662  -1.586  0.00  0.00    -0.011 A 
ATOM      4  C   LIG    1       -3.271   1.974  -2.533  0.00  0.00    +0.009 A 
ATOM      5  C   LIG    1       -2.951   3.283  -2.810  0.00  0.00    +0.001 A 
ATOM      6  C   LIG    1       -3.612   4.301  -2.145  0.00  0.00    +0.000 A 
ATOM      7  C   LIG    1       -4.582   3.999  -1.215  0.00  0.00    +0.007 A 
ATOM      8  C   LIG    1       -4.922   2.677  -0.923  0.00  0.00    -0.003 A 
ATOM      9  C   LIG    1       -6.007   2.511   0.108  0.00  0.00    +0.265 C 
ATOM     10  O   LIG    1       -6.170   1.200   0.586  0.00  0.00    -0.487 OA
ATOM     11  C   LIG    1       -6.677   0.236  -0.206  0.00  0.00    +0.129 A 
ATOM     12  C   LIG    1       -7.969  -0.236  -0.016  0.00  0.00    +0.046 A 
ATOM     13  C   LIG    1       -8.476  -1.208  -0.879  0.00  0.00    +0.008 A 
ATOM     14  C   LIG    1       -7.706  -1.709  -1.915  0.00  0.00    -0.036 A 
ATOM     15  C   LIG    1       -6.413  -1.253  -2.101  0.00  0.00    +0.016 A 
ATOM     16  C   LIG    1       -5.905  -0.291  -1.239  0.00  0.00    +0.024 A 
ENDROOT
BRANCH   1  17
ATOM     17  C   LIG    1       -2.080  -0.106  -1.218  0.00  0.00    +0.009 C 
BRANCH  17  18
ATOM     18  C   LIG    1       -1.364  -0.699  -0.004  0.00  0.00    -0.075 C 
BRANCH  18  20
ATOM     19  C   LIG    1       -0.015   1.263   0.286  0.00  0.00    -0.097 C 
ATOM     20  N   LIG    1        0.011  -0.187   0.052  0.00  0.00    +0.376 N 
ATOM     21  H   LIG    1        0.477  -0.378  -0.822  0.00  0.00    -0.083 HD
ATOM     22  C   LIG    1        0.736  -0.847   1.147  0.00  0.00    -0.097 C 
ENDBRANCH  18  20
ENDBRANCH  17  18
ENDBRANCH   1  17
BRANCH  14  23
ATOM     23  C   LIG    1       -8.277  -2.751  -2.841  0.00  0.00    +0.155 C 
BRANCH  23  24
ATOM     24  C   LIG    1       -7.983  -4.125  -2.294  0.00  0.00    +0.309 C 
ATOM     25  O   LIG    1       -7.367  -4.245  -1.249  0.00  0.00    -0.251 OA
BRANCH  24  26
ATOM     26  O   LIG    1       -8.361  -5.115  -2.897  0.00  0.00    -0.480 OA
ATOM     27  H   LIG    1       -8.835  -5.022  -3.700  0.00  0.00    +0.295 HD
ENDBRANCH  24  26
ENDBRANCH  23  24
ENDBRANCH  14  23
TORSDOF 6
