REMARK  Name = ZINC00985328
REMARK                            x       y       z     vdW  Elec       q    Type
REMARK                         _______ _______ _______ _____ _____    ______ ____
ROOT
ATOM      1  C   LIG    1       -1.378   5.799   0.048  0.00  0.00    +0.136 A 
ATOM      2  N   LIG    1       -0.191   5.235   0.033  0.00  0.00    -0.233 NA
ATOM      3  C   LIG    1       -0.027   3.894   0.023  0.00  0.00    +0.079 A 
ATOM      4  C   LIG    1        1.184   3.163   0.007  0.00  0.00    +0.029 A 
ATOM      5  C   LIG    1        1.175   1.793   0.001  0.00  0.00    +0.002 A 
ATOM      6  C   LIG    1       -0.013   1.076   0.008  0.00  0.00    +0.001 A 
ATOM      7  C   LIG    1       -1.216   1.758   0.017  0.00  0.00    +0.017 A 
ATOM      8  C   LIG    1       -1.216   3.130   0.031  0.00  0.00    +0.040 A 
ATOM      9  S   LIG    1       -2.473   4.386   0.051  0.00  0.00    -0.061 S 
ENDROOT
BRANCH   1  10
ATOM     10  S   LIG    1       -1.786   7.513   0.062  0.00  0.00    -0.101 S 
BRANCH  10  11
ATOM     11  C   LIG    1       -3.593   7.406   0.080  0.00  0.00    +0.058 C 
BRANCH  11  12
ATOM     12  C   LIG    1       -4.188   8.816   0.093  0.00  0.00    -0.068 C 
BRANCH  12  14
ATOM     13  C   LIG    1       -6.134   8.134   1.363  0.00  0.00    -0.097 C 
ATOM     14  N   LIG    1       -5.662   8.711   0.086  0.00  0.00    +0.376 N 
ATOM     15  H   LIG    1       -5.949   8.096  -0.684  0.00  0.00    -0.083 HD
ATOM     16  C   LIG    1       -6.262  10.047  -0.117  0.00  0.00    -0.097 C 
ENDBRANCH  12  14
ENDBRANCH  11  12
ENDBRANCH  10  11
ENDBRANCH   1  10
TORSDOF 4
