REMARK  Name = ZINC01430234
REMARK                            x       y       z     vdW  Elec       q    Type
REMARK                         _______ _______ _______ _____ _____    ______ ____
ROOT
ATOM      1  C   LIG    1       -2.156   0.600   0.131  0.00  0.00    +0.171 C 
ATOM      2  C   LIG    1       -1.041   1.585  -0.130  0.00  0.00    +0.192 C 
ATOM      3  C   LIG    1        0.224   0.921   0.234  0.00  0.00    +0.030 A 
ATOM      4  C   LIG    1        1.542   1.382   0.184  0.00  0.00    +0.012 A 
ATOM      5  C   LIG    1        2.578   0.564   0.590  0.00  0.00    +0.001 A 
ATOM      6  C   LIG    1        2.321  -0.716   1.050  0.00  0.00    +0.001 A 
ATOM      7  C   LIG    1        1.026  -1.192   1.107  0.00  0.00    +0.012 A 
ATOM      8  C   LIG    1       -0.037  -0.381   0.701  0.00  0.00    +0.030 A 
ATOM      9  O   LIG    1       -1.163   2.710  -0.564  0.00  0.00    -0.290 OA
ATOM     10  C   LIG    1       -1.487  -0.644   0.664  0.00  0.00    +0.192 C 
ATOM     11  O   LIG    1       -2.040  -1.670   1.000  0.00  0.00    -0.290 OA
ENDROOT
BRANCH   1  15
ATOM     12  C   LIG    1       -4.240  -0.281  -3.492  0.00  0.00    +0.000 A 
ATOM     13  C   LIG    1       -4.661   0.762  -2.689  0.00  0.00    +0.000 A 
ATOM     14  C   LIG    1       -3.987   1.047  -1.516  0.00  0.00    +0.006 A 
ATOM     15  C   LIG    1       -2.891   0.289  -1.147  0.00  0.00    -0.016 A 
ATOM     16  C   LIG    1       -2.467  -0.751  -1.953  0.00  0.00    +0.006 A 
ATOM     17  C   LIG    1       -3.144  -1.039  -3.123  0.00  0.00    +0.000 A 
ENDBRANCH   1  15
BRANCH   1  18
ATOM     18  S   LIG    1       -3.302   1.273   1.366  0.00  0.00    -0.098 S 
BRANCH  18  19
ATOM     19  C   LIG    1       -4.550   0.037   1.508  0.00  0.00    +0.010 A 
ATOM     20  C   LIG    1       -4.489  -1.107   0.721  0.00  0.00    +0.015 A 
ATOM     21  C   LIG    1       -5.466  -2.076   0.839  0.00  0.00    +0.001 A 
ATOM     22  C   LIG    1       -6.509  -1.904   1.730  0.00  0.00    +0.000 A 
ATOM     23  C   LIG    1       -6.575  -0.764   2.511  0.00  0.00    +0.001 A 
ATOM     24  C   LIG    1       -5.599   0.206   2.403  0.00  0.00    +0.015 A 
ENDBRANCH  18  19
ENDBRANCH   1  18
TORSDOF 3
