REMARK  Name = ZINC00959125
REMARK                            x       y       z     vdW  Elec       q    Type
REMARK                         _______ _______ _______ _____ _____    ______ ____
ROOT
ATOM      1  C   LIG    1       -2.355  -4.127   0.181  0.00  0.00    +0.221 A 
ATOM      2  N   LIG    1       -1.261  -4.864   0.312  0.00  0.00    -0.223 NA
ATOM      3  C   LIG    1       -0.078  -4.299   0.501  0.00  0.00    +0.118 A 
ATOM      4  C   LIG    1        0.012  -2.921   0.558  0.00  0.00    +0.063 A 
ATOM      5  C   LIG    1       -1.158  -2.171   0.423  0.00  0.00    +0.128 A 
ATOM      6  N   LIG    1       -2.312  -2.804   0.235  0.00  0.00    -0.199 NA
ENDROOT
BRANCH   1   7
ATOM      7  N   LIG    1       -3.573  -4.756  -0.015  0.00  0.00    -0.284 N 
ATOM      8  H   LIG    1       -4.390  -4.234  -0.037  0.00  0.00    +0.155 HD
BRANCH   7  12
ATOM      9  C   LIG    1       -3.728  -8.888  -0.511  0.00  0.00    +0.000 A 
ATOM     10  C   LIG    1       -4.766  -8.230   0.123  0.00  0.00    +0.002 A 
ATOM     11  C   LIG    1       -4.718  -6.860   0.289  0.00  0.00    +0.023 A 
ATOM     12  C   LIG    1       -3.625  -6.143  -0.182  0.00  0.00    +0.034 A 
ATOM     13  C   LIG    1       -2.587  -6.806  -0.823  0.00  0.00    +0.023 A 
ATOM     14  C   LIG    1       -2.639  -8.178  -0.980  0.00  0.00    +0.002 A 
ENDBRANCH   7  12
ENDBRANCH   1   7
BRANCH   5  15
ATOM     15  N   LIG    1       -1.116  -0.786   0.479  0.00  0.00    -0.299 N 
ATOM     16  H   LIG    1       -1.940  -0.275   0.458  0.00  0.00    +0.154 HD
BRANCH  15  17
ATOM     17  C   LIG    1        0.106  -0.131   0.564  0.00  0.00    +0.046 A 
ATOM     18  C   LIG    1        0.573   0.320   1.792  0.00  0.00    +0.024 A 
ATOM     19  C   LIG    1        1.787   0.970   1.874  0.00  0.00    +0.002 A 
ATOM     20  C   LIG    1        2.550   1.179   0.736  0.00  0.00    +0.001 A 
ATOM     21  C   LIG    1        2.104   0.740  -0.491  0.00  0.00    +0.017 A 
ATOM     22  C   LIG    1        0.876   0.079  -0.591  0.00  0.00    +0.080 A 
BRANCH  22  23
ATOM     23  C   LIG    1        0.396  -0.399  -1.899  0.00  0.00    +0.339 C 
ATOM     24  O   LIG    1       -0.650  -1.012  -1.975  0.00  0.00    -0.245 OA
BRANCH  23  25
ATOM     25  O   LIG    1        1.117  -0.155  -3.011  0.00  0.00    -0.477 OA
ATOM     26  H   LIG    1        1.924   0.318  -2.953  0.00  0.00    +0.295 HD
ENDBRANCH  23  25
ENDBRANCH  22  23
ENDBRANCH  15  17
ENDBRANCH   5  15
TORSDOF 6
