REMARK  Name = ZINC01055496
REMARK                            x       y       z     vdW  Elec       q    Type
REMARK                         _______ _______ _______ _____ _____    ______ ____
ROOT
ATOM      1  C   LIG    1       -1.738  -1.025  -1.408  0.00  0.00    +0.222 C 
ATOM      2  N   LIG    1       -2.878  -1.701  -1.647  0.00  0.00    -0.279 N 
ATOM      3  H   LIG    1       -3.413  -2.028  -0.906  0.00  0.00    +0.155 HD
ATOM      4  O   LIG    1       -1.069  -0.616  -2.334  0.00  0.00    -0.275 OA
ENDROOT
BRANCH   2   5
ATOM      5  C   LIG    1       -3.288  -1.931  -2.952  0.00  0.00    +0.084 A 
ATOM      6  C   LIG    1       -4.426  -2.597  -3.384  0.00  0.00    +0.065 A 
ATOM      7  C   LIG    1       -4.613  -2.695  -4.813  0.00  0.00    +0.022 A 
ATOM      8  C   LIG    1       -3.658  -2.125  -5.571  0.00  0.00    +0.048 A 
ATOM      9  S   LIG    1       -2.525  -1.460  -4.370  0.00  0.00    -0.081 S 
BRANCH   6  10
ATOM     10  C   LIG    1       -5.387  -3.173  -2.439  0.00  0.00    +0.244 C 
ATOM     11  N   LIG    1       -6.481  -3.813  -2.897  0.00  0.00    -0.325 N 
ATOM     12  H   LIG    1       -7.118  -4.194  -2.272  0.00  0.00    +0.145 HD
ATOM     13  H   LIG    1       -6.632  -3.893  -3.852  0.00  0.00    +0.145 HD
ATOM     14  O   LIG    1       -5.198  -3.072  -1.241  0.00  0.00    -0.270 OA
ENDBRANCH   6  10
ENDBRANCH   2   5
BRANCH   1  15
ATOM     15  C   LIG    1       -1.293  -0.775   0.010  0.00  0.00    +0.131 C 
BRANCH  15  21
ATOM     16  C   LIG    1       -0.017   1.378   0.010  0.00  0.00    +0.006 A 
ATOM     17  C   LIG    1        1.171   2.086   0.002  0.00  0.00    +0.033 A 
ATOM     18  C   LIG    1        2.377   1.411  -0.013  0.00  0.00    +0.122 A 
ATOM     19  C   LIG    1        2.396   0.029  -0.020  0.00  0.00    +0.033 A 
ATOM     20  C   LIG    1        1.208  -0.679  -0.012  0.00  0.00    +0.006 A 
ATOM     21  C   LIG    1        0.002  -0.004   0.002  0.00  0.00    -0.038 A 
BRANCH  18  22
ATOM     22  N   LIG    1        3.649   2.168  -0.022  0.00  0.00    +0.006 N 
ATOM     23  O   LIG    1        3.633   3.377  -0.016  0.00  0.00    -0.130 OA
BRANCH  22  24
ATOM     24  O   LIG    1        4.704   1.578  -0.035  0.00  0.00    -0.396 OA
ATOM     25  H   LIG    1        4.717   0.641  -0.040  0.00  0.00    +0.329 HD
ENDBRANCH  22  24
ENDBRANCH  18  22
ENDBRANCH  15  21
ENDBRANCH   1  15
TORSDOF 6
