REMARK  Name = ZINC01319785
REMARK                            x       y       z     vdW  Elec       q    Type
REMARK                         _______ _______ _______ _____ _____    ______ ____
ROOT
ATOM      1  C   LIG    1        0.353   3.799  -0.840  0.00  0.00    +0.125 C 
ATOM      2  C   LIG    1       -0.991   3.057  -0.772  0.00  0.00    -0.051 C 
ATOM      3  N   LIG    1       -0.714   1.661  -1.133  0.00  0.00    +0.382 N 
ATOM      4  H   LIG    1       -0.118   1.625  -1.968  0.00  0.00    -0.081 HD
ATOM      5  C   LIG    1       -1.990   0.918  -1.406  0.00  0.00    -0.095 C 
ATOM      6  C   LIG    1       -0.013   1.086   0.008  0.00  0.00    -0.065 C 
ATOM      7  C   LIG    1        1.403   1.684  -0.002  0.00  0.00    +0.030 C 
ATOM      8  C   LIG    1       -0.757   1.654   1.238  0.00  0.00    -0.017 C 
ATOM      9  C   LIG    1       -1.409   2.969   0.714  0.00  0.00    -0.016 C 
ATOM     10  C   LIG    1        1.303   3.199   0.202  0.00  0.00    +0.187 C 
ENDROOT
BRANCH   1  11
ATOM     11  C   LIG    1        0.949   3.641  -2.215  0.00  0.00    +0.312 C 
ATOM     12  O   LIG    1        0.357   3.013  -3.061  0.00  0.00    -0.250 OA
BRANCH  11  13
ATOM     13  O   LIG    1        2.135   4.200  -2.501  0.00  0.00    -0.465 OA
BRANCH  13  15
ATOM     14  C   LIG    1        3.999   4.710  -3.982  0.00  0.00    +0.048 C 
ATOM     15  C   LIG    1        2.647   4.007  -3.846  0.00  0.00    +0.229 C 
ENDBRANCH  13  15
ENDBRANCH  11  13
ENDBRANCH   1  11
BRANCH  10  16
ATOM     16  O   LIG    1        0.795   3.474   1.534  0.00  0.00    -0.457 OA
BRANCH  16  17
ATOM     17  C   LIG    1        1.704   3.607   2.519  0.00  0.00    +0.339 C 
ATOM     18  O   LIG    1        2.888   3.496   2.272  0.00  0.00    -0.245 OA
BRANCH  17  19
ATOM     19  C   LIG    1        1.261   3.888   3.900  0.00  0.00    +0.059 A 
ATOM     20  C   LIG    1       -0.099   4.022   4.186  0.00  0.00    +0.015 A 
ATOM     21  C   LIG    1       -0.507   4.279   5.479  0.00  0.00    +0.001 A 
ATOM     22  C   LIG    1        0.429   4.415   6.488  0.00  0.00    +0.000 A 
ATOM     23  C   LIG    1        1.779   4.290   6.211  0.00  0.00    +0.001 A 
ATOM     24  C   LIG    1        2.200   4.027   4.923  0.00  0.00    +0.015 A 
ENDBRANCH  17  19
ENDBRANCH  16  17
ENDBRANCH  10  16
TORSDOF 6
