REMARK  Name = ZINC01023799
REMARK                            x       y       z     vdW  Elec       q    Type
REMARK                         _______ _______ _______ _____ _____    ______ ____
ROOT
ATOM      1  C   LIG    1        0.200  -1.921   0.684  0.00  0.00    +0.058 A 
ATOM      2  C   LIG    1       -0.809  -2.713   1.187  0.00  0.00    +0.096 A 
ATOM      3  C   LIG    1       -0.296  -4.091   1.172  0.00  0.00    +0.102 A 
ATOM      4  C   LIG    1        1.000  -4.003   0.652  0.00  0.00    +0.107 A 
ATOM      5  C   LIG    1        2.000  -4.971   0.392  0.00  0.00    +0.101 A 
ATOM      6  N   LIG    1        3.154  -4.589  -0.128  0.00  0.00    -0.211 NA
ATOM      7  C   LIG    1        3.401  -3.307  -0.400  0.00  0.00    +0.237 A 
ATOM      8  N   LIG    1        2.516  -2.364  -0.177  0.00  0.00    -0.130 NA
ATOM      9  N   LIG    1        1.261  -2.688   0.366  0.00  0.00    -0.230 N 
ENDROOT
BRANCH   5  10
ATOM     10  C   LIG    1        1.750  -6.401   0.684  0.00  0.00    +0.003 A 
ATOM     11  C   LIG    1        0.648  -7.048   0.124  0.00  0.00    +0.010 A 
ATOM     12  C   LIG    1        0.420  -8.380   0.400  0.00  0.00    +0.001 A 
ATOM     13  C   LIG    1        1.282  -9.075   1.230  0.00  0.00    +0.000 A 
ATOM     14  C   LIG    1        2.376  -8.439   1.789  0.00  0.00    +0.001 A 
ATOM     15  C   LIG    1        2.618  -7.109   1.516  0.00  0.00    +0.010 A 
ENDBRANCH   5  10
BRANCH   7  16
ATOM     16  N   LIG    1        4.633  -2.960  -0.938  0.00  0.00    -0.294 N 
ATOM     17  C   LIG    1        4.955  -1.558  -1.250  0.00  0.00    +0.136 C 
ATOM     18  C   LIG    1        6.309  -1.221  -0.616  0.00  0.00    +0.179 C 
ATOM     19  O   LIG    1        7.273  -2.198  -1.017  0.00  0.00    -0.377 OA
ATOM     20  C   LIG    1        6.976  -3.526  -0.580  0.00  0.00    +0.179 C 
ATOM     21  C   LIG    1        5.657  -3.981  -1.206  0.00  0.00    +0.136 C 
ENDBRANCH   7  16
BRANCH   2  22
ATOM     22  C   LIG    1       -2.136  -2.269   1.647  0.00  0.00    +0.342 C 
ATOM     23  O   LIG    1       -3.064  -2.217   0.865  0.00  0.00    -0.245 OA
BRANCH  22  24
ATOM     24  O   LIG    1       -2.320  -1.920   2.936  0.00  0.00    -0.461 OA
BRANCH  24  25
ATOM     25  C   LIG    1       -3.632  -1.499   3.313  0.00  0.00    +0.229 C 
ATOM     26  C   LIG    1       -3.647  -1.147   4.802  0.00  0.00    +0.048 C 
ENDBRANCH  24  25
ENDBRANCH  22  24
ENDBRANCH   2  22
BRANCH   3  27
ATOM     27  C   LIG    1       -0.994  -5.301   1.610  0.00  0.00    +0.342 C 
ATOM     28  O   LIG    1       -1.753  -5.874   0.851  0.00  0.00    -0.245 OA
BRANCH  27  29
ATOM     29  O   LIG    1       -0.796  -5.782   2.855  0.00  0.00    -0.461 OA
BRANCH  29  30
ATOM     30  C   LIG    1       -1.442  -7.012   3.187  0.00  0.00    +0.229 C 
ATOM     31  C   LIG    1       -1.007  -7.457   4.585  0.00  0.00    +0.048 C 
ENDBRANCH  29  30
ENDBRANCH  27  29
ENDBRANCH   3  27
BRANCH   1  32
ATOM     32  C   LIG    1        0.126  -0.426   0.510  0.00  0.00    +0.056 C 
BRANCH  32  34
ATOM     33  C   LIG    1       -0.504   1.417  -1.054  0.00  0.00    +0.004 C 
ATOM     34  C   LIG    1       -0.428  -0.101  -0.878  0.00  0.00    +0.003 C 
ENDBRANCH  32  34
ENDBRANCH   1  32
TORSDOF 10
