REMARK  Name = ZINC00985585
REMARK                            x       y       z     vdW  Elec       q    Type
REMARK                         _______ _______ _______ _____ _____    ______ ____
ROOT
ATOM      1  C   LIG    1       -0.078  -4.639   0.056  0.00  0.00    +0.100 A 
ATOM      2  C   LIG    1        0.800  -5.281   0.934  0.00  0.00    +0.054 A 
ATOM      3  C   LIG    1        0.696  -6.626   0.727  0.00  0.00    +0.223 A 
ATOM      4  O   LIG    1        1.425  -7.533   1.425  0.00  0.00    -0.423 OA
ATOM      5  C   LIG    1        2.466  -7.074   2.148  0.00  0.00    +0.200 C 
ATOM      6  C   LIG    1        2.668  -5.768   2.430  0.00  0.00    +0.098 C 
ATOM      7  N   LIG    1       -0.216  -6.822  -0.247  0.00  0.00    -0.246 N 
ATOM      8  H   LIG    1       -0.496  -7.681  -0.602  0.00  0.00    +0.192 HD
ATOM      9  C   LIG    1        1.730  -4.685   1.959  0.00  0.00    +0.102 C 
ATOM     10  N   LIG    1       -0.694  -5.566  -0.652  0.00  0.00    -0.171 NA
ENDROOT
BRANCH   1  15
ATOM     11  C   LIG    1       -0.882   1.048  -0.377  0.00  0.00    +0.044 C 
ATOM     12  C   LIG    1       -0.671  -0.440  -0.264  0.00  0.00    -0.050 A 
ATOM     13  C   LIG    1        0.608  -0.947  -0.122  0.00  0.00    +0.004 A 
ATOM     14  C   LIG    1        0.806  -2.308  -0.018  0.00  0.00    +0.010 A 
ATOM     15  C   LIG    1       -0.285  -3.174  -0.055  0.00  0.00    +0.003 A 
ATOM     16  C   LIG    1       -1.572  -2.658  -0.198  0.00  0.00    +0.010 A 
ATOM     17  C   LIG    1       -1.759  -1.294  -0.297  0.00  0.00    +0.004 A 
ENDBRANCH   1  15
BRANCH   9  18
ATOM     18  C   LIG    1        0.932  -4.160   3.125  0.00  0.00    -0.034 A 
ATOM     19  C   LIG    1        0.074  -5.001   3.809  0.00  0.00    +0.006 A 
ATOM     20  C   LIG    1       -0.658  -4.523   4.878  0.00  0.00    +0.023 A 
ATOM     21  C   LIG    1       -0.533  -3.195   5.265  0.00  0.00    +0.029 A 
ATOM     22  C   LIG    1        0.330  -2.352   4.576  0.00  0.00    +0.023 A 
ATOM     23  C   LIG    1        1.063  -2.838   3.512  0.00  0.00    +0.006 A 
BRANCH  21  24
ATOM     24  N   LIG    1       -1.273  -2.708   6.346  0.00  0.00    -0.336 N 
ATOM     25  C   LIG    1       -1.139  -1.308   6.753  0.00  0.00    +0.129 C 
ATOM     26  C   LIG    1       -2.182  -3.599   7.071  0.00  0.00    +0.129 C 
ENDBRANCH  21  24
ENDBRANCH   9  18
BRANCH   5  27
ATOM     27  N   LIG    1        3.374  -7.986   2.626  0.00  0.00    -0.328 N 
ATOM     28  H   LIG    1        4.133  -7.686   3.150  0.00  0.00    +0.145 HD
ATOM     29  H   LIG    1        3.256  -8.931   2.440  0.00  0.00    +0.145 HD
ENDBRANCH   5  27
BRANCH   6  30
ATOM     30  C   LIG    1        3.814  -5.398   3.206  0.00  0.00    +0.101 C 
ATOM     31  N   LIG    1        4.723  -5.105   3.821  0.00  0.00    -0.191 NA
ENDBRANCH   6  30
TORSDOF 5
