REMARK  Name = ZINC01125087
REMARK                            x       y       z     vdW  Elec       q    Type
REMARK                         _______ _______ _______ _____ _____    ______ ____
ROOT
ATOM      1  N   LIG    1       -1.050  -0.347   1.465  0.00  0.00    -0.323 N 
ATOM      2  C   LIG    1       -2.307  -0.137   1.942  0.00  0.00    +0.200 A 
ATOM      3  N   LIG    1       -2.473  -0.780   3.062  0.00  0.00    -0.236 NA
ATOM      4  C   LIG    1       -1.334  -1.446   3.380  0.00  0.00    +0.091 A 
ATOM      5  C   LIG    1       -0.969  -2.272   4.446  0.00  0.00    +0.054 A 
ATOM      6  C   LIG    1        0.301  -2.816   4.488  0.00  0.00    +0.050 A 
ATOM      7  C   LIG    1        1.217  -2.545   3.474  0.00  0.00    +0.026 A 
ATOM      8  C   LIG    1        0.868  -1.732   2.418  0.00  0.00    +0.030 A 
ATOM      9  C   LIG    1       -0.406  -1.183   2.358  0.00  0.00    +0.069 A 
ENDROOT
BRANCH   1  11
ATOM     10  C   LIG    1       -1.320  -0.260  -0.964  0.00  0.00    +0.036 C 
ATOM     11  C   LIG    1       -0.486   0.206   0.232  0.00  0.00    +0.116 C 
BRANCH  11  12
ATOM     12  C   LIG    1       -0.506   1.712   0.301  0.00  0.00    -0.025 A 
ATOM     13  C   LIG    1       -1.707   2.381   0.443  0.00  0.00    +0.005 A 
ATOM     14  C   LIG    1       -1.724   3.762   0.511  0.00  0.00    +0.000 A 
ATOM     15  C   LIG    1       -0.542   4.473   0.427  0.00  0.00    +0.000 A 
ATOM     16  C   LIG    1        0.659   3.804   0.280  0.00  0.00    +0.000 A 
ATOM     17  C   LIG    1        0.677   2.423   0.216  0.00  0.00    +0.005 A 
ENDBRANCH  11  12
ENDBRANCH   1  11
BRANCH   6  18
ATOM     18  N   LIG    1        0.669  -3.643   5.555  0.00  0.00    -0.220 N 
ATOM     19  H   LIG    1        0.338  -4.554   5.599  0.00  0.00    +0.173 HD
BRANCH  18  20
ATOM     20  S   LIG    1        1.671  -3.068   6.742  0.00  0.00    +0.047 S 
ATOM     21  O   LIG    1        2.787  -2.531   6.045  0.00  0.00    -0.155 OA
ATOM     22  O   LIG    1        1.832  -4.157   7.639  0.00  0.00    -0.155 OA
BRANCH  20  23
ATOM     23  C   LIG    1        0.732  -1.736   7.538  0.00  0.00    +0.225 C 
BRANCH  23  24
ATOM     24  C   LIG    1        1.600  -1.054   8.565  0.00  0.00    -0.006 A 
ATOM     25  C   LIG    1        1.611  -1.507   9.871  0.00  0.00    +0.007 A 
ATOM     26  C   LIG    1        2.410  -0.885  10.812  0.00  0.00    +0.000 A 
ATOM     27  C   LIG    1        3.192   0.197  10.449  0.00  0.00    +0.001 A 
ATOM     28  C   LIG    1        3.178   0.653   9.145  0.00  0.00    +0.020 A 
ATOM     29  C   LIG    1        2.382   0.028   8.201  0.00  0.00    +0.046 A 
ATOM     30 CL   LIG    1        2.363   0.601   6.563  0.00  0.00    -0.083 Cl
ENDBRANCH  23  24
ENDBRANCH  20  23
ENDBRANCH  18  20
ENDBRANCH   6  18
TORSDOF 6
