REMARK  Name = ZINC00947921
REMARK                            x       y       z     vdW  Elec       q    Type
REMARK                         _______ _______ _______ _____ _____    ______ ____
ROOT
ATOM      1  C   LIG    1        5.584  -1.734   1.796  0.00  0.00    +0.048 A 
ATOM      2  C   LIG    1        6.318  -2.345   0.786  0.00  0.00    +0.025 A 
ATOM      3  C   LIG    1        7.491  -3.006   1.091  0.00  0.00    +0.009 A 
ATOM      4  C   LIG    1        7.936  -3.061   2.399  0.00  0.00    +0.002 A 
ATOM      5  C   LIG    1        7.208  -2.455   3.406  0.00  0.00    +0.009 A 
ATOM      6  C   LIG    1        6.036  -1.787   3.108  0.00  0.00    +0.025 A 
ENDROOT
BRANCH   1   7
ATOM      7  N   LIG    1        4.397  -1.065   1.491  0.00  0.00    -0.216 N 
ATOM      8  H   LIG    1        3.880  -0.629   2.207  0.00  0.00    +0.174 HD
BRANCH   7   9
ATOM      9  S   LIG    1        3.859  -1.003  -0.074  0.00  0.00    +0.072 S 
ATOM     10  O   LIG    1        4.804  -0.228  -0.798  0.00  0.00    -0.150 OA
ATOM     11  O   LIG    1        3.524  -2.334  -0.441  0.00  0.00    -0.150 OA
BRANCH   9  15
ATOM     12  C   LIG    1       -0.009   1.349  -0.071  0.00  0.00    +0.000 A 
ATOM     13  C   LIG    1        1.197   2.002  -0.242  0.00  0.00    +0.002 A 
ATOM     14  C   LIG    1        2.378   1.284  -0.243  0.00  0.00    +0.029 A 
ATOM     15  C   LIG    1        2.353  -0.087  -0.072  0.00  0.00    +0.108 A 
ATOM     16  C   LIG    1        1.147  -0.741   0.100  0.00  0.00    +0.029 A 
ATOM     17  C   LIG    1       -0.034  -0.023   0.099  0.00  0.00    +0.002 A 
ENDBRANCH   9  15
ENDBRANCH   7   9
ENDBRANCH   1   7
BRANCH   4  18
ATOM     18  C   LIG    1        9.216  -3.784   2.728  0.00  0.00    +0.282 C 
BRANCH  18  19
ATOM     19  C   LIG    1        8.911  -4.970   3.645  0.00  0.00    +0.431 C 
ATOM     20  F   LIG    1        8.321  -4.507   4.826  0.00  0.00    -0.167 F 
ATOM     21  F   LIG    1       10.100  -5.642   3.950  0.00  0.00    -0.167 F 
ATOM     22  F   LIG    1        8.034  -5.847   2.997  0.00  0.00    -0.167 F 
ENDBRANCH  18  19
BRANCH  18  23
ATOM     23  C   LIG    1       10.176  -2.826   3.436  0.00  0.00    +0.431 C 
ATOM     24  F   LIG    1       10.356  -1.681   2.652  0.00  0.00    -0.167 F 
ATOM     25  F   LIG    1       11.409  -3.458   3.628  0.00  0.00    -0.167 F 
ATOM     26  F   LIG    1        9.640  -2.461   4.676  0.00  0.00    -0.167 F 
ENDBRANCH  18  23
BRANCH  18  27
ATOM     27  O   LIG    1        9.820  -4.257   1.522  0.00  0.00    -0.369 OA
ATOM     28  H   LIG    1       10.041  -3.558   0.892  0.00  0.00    +0.211 HD
ENDBRANCH  18  27
ENDBRANCH   4  18
TORSDOF 7
