REMARK  Name = ZINC01337060
REMARK                            x       y       z     vdW  Elec       q    Type
REMARK                         _______ _______ _______ _____ _____    ______ ____
ROOT
ATOM      1  C   LIG    1       -4.009   0.091   1.817  0.00  0.00    +0.063 C 
ATOM      2  C   LIG    1       -4.501   1.233   2.708  0.00  0.00    +0.030 C 
ATOM      3  C   LIG    1       -5.342   2.202   1.871  0.00  0.00    +0.109 C 
ATOM      4  N   LIG    1       -6.416   1.447   1.210  0.00  0.00    -0.297 N 
ATOM      5  C   LIG    1       -7.703   1.823   1.343  0.00  0.00    +0.247 C 
ATOM      6  O   LIG    1       -7.995   2.733   2.095  0.00  0.00    -0.270 OA
ATOM      7  C   LIG    1       -6.059   0.273   0.402  0.00  0.00    +0.109 C 
ATOM      8  C   LIG    1       -5.209  -0.674   1.256  0.00  0.00    +0.030 C 
ENDROOT
BRANCH   5   9
ATOM      9  C   LIG    1       -8.758   1.132   0.575  0.00  0.00    +0.040 A 
ATOM     10  C   LIG    1       -8.500   0.682  -0.722  0.00  0.00    +0.016 A 
ATOM     11  C   LIG    1       -9.486   0.032  -1.433  0.00  0.00    +0.042 A 
ATOM     12  C   LIG    1      -10.736  -0.166  -0.869  0.00  0.00    +0.158 A 
ATOM     13  F   LIG    1      -11.700  -0.799  -1.572  0.00  0.00    -0.202 F 
ATOM     14  C   LIG    1      -11.001   0.283   0.418  0.00  0.00    +0.159 A 
ATOM     15  F   LIG    1      -12.221   0.087   0.963  0.00  0.00    -0.202 F 
ATOM     16  C   LIG    1      -10.018   0.930   1.141  0.00  0.00    +0.054 A 
ENDBRANCH   5   9
BRANCH   1  17
ATOM     17  C   LIG    1       -3.152  -0.846   2.630  0.00  0.00    +0.166 C 
ATOM     18  O   LIG    1       -3.643  -1.835   3.131  0.00  0.00    -0.292 OA
BRANCH  17  25
ATOM     19  C   LIG    1       -0.924  -1.428   3.569  0.00  0.00    +0.014 A 
ATOM     20  C   LIG    1        0.417  -1.158   3.733  0.00  0.00    +0.039 A 
ATOM     21  C   LIG    1        0.975  -0.026   3.158  0.00  0.00    +0.123 A 
ATOM     22  F   LIG    1        2.291   0.233   3.323  0.00  0.00    -0.205 F 
ATOM     23  C   LIG    1        0.188   0.842   2.414  0.00  0.00    +0.039 A 
ATOM     24  C   LIG    1       -1.154   0.583   2.242  0.00  0.00    +0.014 A 
ATOM     25  C   LIG    1       -1.722  -0.561   2.815  0.00  0.00    +0.018 A 
ENDBRANCH  17  25
ENDBRANCH   1  17
TORSDOF 3
