REMARK  Name = ZINC00904601
REMARK                            x       y       z     vdW  Elec       q    Type
REMARK                         _______ _______ _______ _____ _____    ______ ____
ROOT
ATOM      1  C   LIG    1       -0.226   6.220   0.006  0.00  0.00    +0.193 A 
ATOM      2  N   LIG    1        1.019   6.638   0.051  0.00  0.00    -0.122 NA
ATOM      3  N   LIG    1        1.823   5.638  -0.019  0.00  0.00    -0.128 NA
ATOM      4  C   LIG    1        1.141   4.520  -0.113  0.00  0.00    +0.169 A 
ATOM      5  N   LIG    1       -0.192   4.859  -0.106  0.00  0.00    -0.298 N 
ENDROOT
BRANCH   4   6
ATOM      6  C   LIG    1        1.701   3.156  -0.214  0.00  0.00    +0.061 A 
ATOM      7  C   LIG    1        0.860   2.069  -0.457  0.00  0.00    +0.015 A 
ATOM      8  C   LIG    1        1.387   0.798  -0.550  0.00  0.00    +0.001 A 
ATOM      9  C   LIG    1        2.749   0.596  -0.404  0.00  0.00    +0.004 A 
ATOM     10  C   LIG    1        3.592   1.664  -0.163  0.00  0.00    +0.046 A 
ATOM     11  C   LIG    1        3.077   2.947  -0.066  0.00  0.00    +0.131 A 
BRANCH  11  12
ATOM     12  O   LIG    1        3.905   3.998   0.171  0.00  0.00    -0.494 OA
ATOM     13  C   LIG    1        5.297   3.708   0.311  0.00  0.00    +0.277 C 
ENDBRANCH  11  12
ENDBRANCH   4   6
BRANCH   1  14
ATOM     14  S   LIG    1       -1.669   7.228   0.070  0.00  0.00    -0.075 S 
BRANCH  14  15
ATOM     15  C   LIG    1       -0.905   8.863   0.205  0.00  0.00    +0.197 C 
BRANCH  15  16
ATOM     16  C   LIG    1       -1.981   9.916   0.276  0.00  0.00    +0.318 C 
ATOM     17  O   LIG    1       -3.145   9.594   0.239  0.00  0.00    -0.250 OA
BRANCH  16  18
ATOM     18  O   LIG    1       -1.646  11.212   0.380  0.00  0.00    -0.461 OA
BRANCH  18  20
ATOM     19  C   LIG    1       -2.297  13.385   1.266  0.00  0.00    +0.052 C 
ATOM     20  C   LIG    1       -2.735  12.171   0.444  0.00  0.00    +0.170 C 
ATOM     21  C   LIG    1       -3.102  12.620  -0.972  0.00  0.00    +0.052 C 
ENDBRANCH  18  20
ENDBRANCH  16  18
ENDBRANCH  15  16
ENDBRANCH  14  15
ENDBRANCH   1  14
BRANCH   5  22
ATOM     22  C   LIG    1       -1.337   3.949  -0.195  0.00  0.00    +0.161 C 
BRANCH  22  23
ATOM     23  C   LIG    1       -1.663   3.694  -1.644  0.00  0.00    -0.028 A 
ATOM     24  C   LIG    1       -2.056   4.739  -2.459  0.00  0.00    +0.005 A 
ATOM     25  C   LIG    1       -2.350   4.506  -3.789  0.00  0.00    +0.000 A 
ATOM     26  C   LIG    1       -2.263   3.225  -4.302  0.00  0.00    +0.000 A 
ATOM     27  C   LIG    1       -1.875   2.179  -3.486  0.00  0.00    +0.000 A 
ATOM     28  C   LIG    1       -1.576   2.413  -2.157  0.00  0.00    +0.005 A 
ENDBRANCH  22  23
ENDBRANCH   5  22
TORSDOF 9
