REMARK  Name = ZINC01188187
REMARK                            x       y       z     vdW  Elec       q    Type
REMARK                         _______ _______ _______ _____ _____    ______ ____
ROOT
ATOM      1  C   LIG    1       -1.376   3.252   0.065  0.00  0.00    +0.129 A 
ATOM      2  C   LIG    1       -0.248   3.825  -0.511  0.00  0.00    +0.046 A 
ATOM      3  C   LIG    1       -0.205   5.185  -0.759  0.00  0.00    +0.004 A 
ATOM      4  C   LIG    1       -1.281   5.984  -0.436  0.00  0.00    +0.008 A 
ATOM      5  C   LIG    1       -2.422   5.418   0.144  0.00  0.00    -0.020 A 
ATOM      6  C   LIG    1       -2.465   4.042   0.388  0.00  0.00    +0.054 A 
ENDROOT
BRANCH   5   7
ATOM      7  C   LIG    1       -3.572   6.266   0.490  0.00  0.00    +0.028 C 
ATOM      8  C   LIG    1       -4.619   5.743   1.175  0.00  0.00    +0.080 C 
ATOM      9  C   LIG    1       -5.922   6.352   1.516  0.00  0.00    +0.258 C 
ATOM     10  N   LIG    1       -6.765   5.600   2.202  0.00  0.00    -0.243 N 
ATOM     11  H   LIG    1       -7.632   5.961   2.446  0.00  0.00    +0.159 HD
ATOM     12  C   LIG    1       -6.449   4.342   2.570  0.00  0.00    +0.283 C 
ATOM     13  O   LIG    1       -7.123   3.546   3.196  0.00  0.00    -0.262 OA
ATOM     14  O   LIG    1       -6.204   7.488   1.182  0.00  0.00    -0.269 OA
ATOM     15  S   LIG    1       -4.806   4.122   1.907  0.00  0.00    -0.026 S 
ENDBRANCH   5   7
BRANCH   1  16
ATOM     16  O   LIG    1       -1.411   1.915   0.305  0.00  0.00    -0.456 OA
BRANCH  16  20
ATOM     17  C   LIG    1        1.880  -0.339  -0.747  0.00  0.00    +0.000 A 
ATOM     18  C   LIG    1        1.880   0.369   0.440  0.00  0.00    +0.004 A 
ATOM     19  C   LIG    1        0.780   1.127   0.794  0.00  0.00    +0.046 A 
ATOM     20  C   LIG    1       -0.326   1.176  -0.043  0.00  0.00    +0.128 A 
ATOM     21  C   LIG    1       -0.323   0.464  -1.234  0.00  0.00    +0.046 A 
ATOM     22  C   LIG    1        0.780  -0.292  -1.583  0.00  0.00    +0.004 A 
ENDBRANCH  16  20
ENDBRANCH   1  16
TORSDOF 3
