REMARK  Name = ZINC01047087
REMARK                            x       y       z     vdW  Elec       q    Type
REMARK                         _______ _______ _______ _____ _____    ______ ____
ROOT
ATOM      1  C   LIG    1        1.271  -4.300   1.856  0.00  0.00    +0.142 A 
ATOM      2  C   LIG    1        1.281  -5.319   0.958  0.00  0.00    +0.075 A 
ATOM      3  C   LIG    1        1.301  -6.529   1.680  0.00  0.00    +0.102 A 
ATOM      4  N   LIG    1        1.303  -6.240   2.966  0.00  0.00    -0.164 NA
ATOM      5  N   LIG    1        1.290  -4.846   3.103  0.00  0.00    -0.217 N 
ENDROOT
BRANCH   5   6
ATOM      6  C   LIG    1        1.294  -4.138   4.313  0.00  0.00    +0.068 A 
ATOM      7  C   LIG    1        1.964  -2.926   4.407  0.00  0.00    +0.030 A 
ATOM      8  C   LIG    1        1.967  -2.230   5.599  0.00  0.00    +0.040 A 
ATOM      9  C   LIG    1        1.300  -2.740   6.701  0.00  0.00    +0.124 A 
ATOM     10  F   LIG    1        1.304  -2.057   7.867  0.00  0.00    -0.205 F 
ATOM     11  C   LIG    1        0.630  -3.948   6.609  0.00  0.00    +0.040 A 
ATOM     12  C   LIG    1        0.621  -4.645   5.417  0.00  0.00    +0.030 A 
ENDBRANCH   5   6
BRANCH   3  13
ATOM     13  C   LIG    1        1.317  -7.888   1.096  0.00  0.00    +0.039 A 
ATOM     14  C   LIG    1        1.330  -9.100   1.732  0.00  0.00    +0.018 A 
ATOM     15  C   LIG    1        1.343 -10.248   0.970  0.00  0.00    +0.008 A 
ATOM     16  C   LIG    1        1.343 -10.143  -0.384  0.00  0.00    +0.046 A 
ATOM     17  S   LIG    1        1.315  -8.374  -0.622  0.00  0.00    -0.095 S 
ENDBRANCH   3  13
BRANCH   1  18
ATOM     18  N   LIG    1        1.252  -2.941   1.556  0.00  0.00    -0.199 N 
ATOM     19  H   LIG    1        1.250  -2.276   2.282  0.00  0.00    +0.175 HD
BRANCH  18  20
ATOM     20  S   LIG    1        1.230  -2.442  -0.024  0.00  0.00    +0.074 S 
ATOM     21  O   LIG    1        2.475  -2.829  -0.589  0.00  0.00    -0.150 OA
ATOM     22  O   LIG    1       -0.015  -2.860  -0.565  0.00  0.00    -0.150 OA
BRANCH  20  28
ATOM     23  C   LIG    1       -0.017   1.378   0.010  0.00  0.00    +0.005 A 
ATOM     24  C   LIG    1        1.171   2.086   0.002  0.00  0.00    +0.038 A 
ATOM     25  C   LIG    1        2.379   1.410  -0.013  0.00  0.00    +0.125 A 
ATOM     26  F   LIG    1        3.540   2.101  -0.021  0.00  0.00    -0.205 F 
ATOM     27  C   LIG    1        2.396   0.025  -0.021  0.00  0.00    +0.067 A 
ATOM     28  C   LIG    1        1.208  -0.680  -0.013  0.00  0.00    +0.111 A 
ATOM     29  C   LIG    1        0.002  -0.004   0.002  0.00  0.00    +0.029 A 
ENDBRANCH  20  28
ENDBRANCH  18  20
ENDBRANCH   1  18
TORSDOF 5
