REMARK  Name = ZINC01396961
REMARK                            x       y       z     vdW  Elec       q    Type
REMARK                         _______ _______ _______ _____ _____    ______ ____
ROOT
ATOM      1  C   LIG    1        4.983   0.093  -0.046  0.00  0.00    +0.251 C 
ENDROOT
BRANCH   1   2
ATOM      2  S   LIG    1        6.380  -1.064  -0.066  0.00  0.00    +0.004 S 
ATOM      3  O   LIG    1        6.423  -1.758  -1.305  0.00  0.00    -0.169 OA
ATOM      4  O   LIG    1        6.447  -1.772   1.164  0.00  0.00    -0.169 OA
BRANCH   2   8
ATOM      5  C   LIG    1       10.067   1.563  -0.087  0.00  0.00    +0.000 A 
ATOM      6  C   LIG    1        9.516   1.155   1.113  0.00  0.00    +0.002 A 
ATOM      7  C   LIG    1        8.390   0.353   1.120  0.00  0.00    +0.027 A 
ATOM      8  C   LIG    1        7.815  -0.042  -0.074  0.00  0.00    +0.089 A 
ATOM      9  C   LIG    1        8.370   0.362  -1.274  0.00  0.00    +0.027 A 
ATOM     10  C   LIG    1        9.493   1.168  -1.281  0.00  0.00    +0.002 A 
ENDBRANCH   2   8
ENDBRANCH   1   2
BRANCH   1  11
ATOM     11  C   LIG    1        3.690  -0.681  -0.037  0.00  0.00    +0.184 C 
ATOM     12  O   LIG    1        3.709  -1.893  -0.045  0.00  0.00    -0.290 OA
BRANCH  11  13
ATOM     13  C   LIG    1        2.405   0.035  -0.021  0.00  0.00    +0.021 A 
ATOM     14  C   LIG    1        1.203  -0.680  -0.013  0.00  0.00    +0.013 A 
ATOM     15  C   LIG    1        0.002  -0.004   0.002  0.00  0.00    +0.022 A 
ATOM     16  C   LIG    1       -0.017   1.381   0.010  0.00  0.00    +0.059 A 
ATOM     17 CL   LIG    1       -1.534   2.225   0.021  0.00  0.00    -0.082 Cl
ATOM     18  C   LIG    1        1.171   2.097   0.002  0.00  0.00    +0.060 A 
ATOM     19 CL   LIG    1        1.136   3.833   0.012  0.00  0.00    -0.082 Cl
ATOM     20  C   LIG    1        2.380   1.433  -0.013  0.00  0.00    +0.033 A 
ENDBRANCH  11  13
ENDBRANCH   1  11
TORSDOF 4
