REMARK  Name = ZINC00897143
REMARK                            x       y       z     vdW  Elec       q    Type
REMARK                         _______ _______ _______ _____ _____    ______ ____
ROOT
ATOM      1  C   LIG    1        1.134   1.759   0.001  0.00  0.00    +0.011 C 
ATOM      2  C   LIG    1       -0.013   1.076   0.008  0.00  0.00    +0.035 C 
ENDROOT
BRANCH   2   3
ATOM      3  C   LIG    1       -1.289   1.790   0.018  0.00  0.00    +0.250 C 
ATOM      4  O   LIG    1       -2.331   1.169   0.019  0.00  0.00    -0.296 OA
ENDBRANCH   2   3
TORSDOF 1
