REMARK  Name = ZINC01031283
REMARK                            x       y       z     vdW  Elec       q    Type
REMARK                         _______ _______ _______ _____ _____    ______ ____
ROOT
ATOM      1  C   LIG    1       -0.017   1.378   0.010  0.00  0.00    +0.034 A 
ATOM      2  C   LIG    1        1.171   2.086   0.002  0.00  0.00    +0.031 A 
ATOM      3  C   LIG    1        2.377   1.411  -0.013  0.00  0.00    +0.105 A 
ATOM      4  C   LIG    1        2.396   0.029  -0.020  0.00  0.00    +0.031 A 
ATOM      5  C   LIG    1        1.208  -0.679  -0.012  0.00  0.00    +0.034 A 
ATOM      6  C   LIG    1        0.002  -0.004   0.002  0.00  0.00    +0.122 A 
ENDROOT
BRANCH   3   7
ATOM      7  S   LIG    1        3.891   2.312  -0.024  0.00  0.00    +0.056 S 
ATOM      8  O   LIG    1        3.597   3.593  -0.566  0.00  0.00    -0.153 OA
ATOM      9  O   LIG    1        4.872   1.453  -0.588  0.00  0.00    -0.153 OA
BRANCH   7  10
ATOM     10  N   LIG    1        4.327   2.556   1.555  0.00  0.00    -0.204 NA
ATOM     11  H   LIG    1        5.142   3.039   1.764  0.00  0.00    +0.144 HD
ATOM     12  H   LIG    1        3.768   2.215   2.271  0.00  0.00    +0.144 HD
ENDBRANCH   7  10
ENDBRANCH   3   7
BRANCH   6  13
ATOM     13  N   LIG    1       -1.270  -0.761   0.011  0.00  0.00    +0.006 N 
ATOM     14  O   LIG    1       -2.325  -0.171   0.024  0.00  0.00    -0.130 OA
BRANCH  13  15
ATOM     15  O   LIG    1       -1.253  -1.970   0.004  0.00  0.00    -0.396 OA
ATOM     16  H   LIG    1       -0.435  -2.428  -0.007  0.00  0.00    +0.329 HD
ENDBRANCH  13  15
ENDBRANCH   6  13
TORSDOF 4
