REMARK  Name = ZINC01104085
REMARK                            x       y       z     vdW  Elec       q    Type
REMARK                         _______ _______ _______ _____ _____    ______ ____
ROOT
ATOM      1  N   LIG    1        9.195   9.820  -0.304  0.00  0.00    -0.224 N 
ATOM      2  C   LIG    1        9.097   8.953  -1.298  0.00  0.00    +0.261 C 
ATOM      3  C   LIG    1        7.958   8.014  -1.247  0.00  0.00    +0.080 C 
ATOM      4  S   LIG    1        7.163   8.535   0.267  0.00  0.00    -0.026 S 
ATOM      5  C   LIG    1        7.609   7.030  -2.114  0.00  0.00    +0.028 C 
ATOM      6  O   LIG    1        9.904   8.930  -2.208  0.00  0.00    -0.269 OA
ATOM      7  C   LIG    1        8.299   9.842   0.703  0.00  0.00    +0.286 C 
ATOM      8  O   LIG    1        8.268  10.578   1.671  0.00  0.00    -0.262 OA
ENDROOT
BRANCH   5   9
ATOM      9  C   LIG    1        6.536   6.091  -1.765  0.00  0.00    -0.024 A 
ATOM     10  C   LIG    1        6.048   5.194  -2.723  0.00  0.00    +0.011 A 
ATOM     11  C   LIG    1        5.042   4.315  -2.390  0.00  0.00    +0.046 A 
ATOM     12  C   LIG    1        4.511   4.317  -1.105  0.00  0.00    +0.121 A 
ATOM     13  C   LIG    1        4.988   5.209  -0.151  0.00  0.00    +0.046 A 
ATOM     14  C   LIG    1        5.997   6.088  -0.472  0.00  0.00    +0.011 A 
BRANCH  12  15
ATOM     15  O   LIG    1        3.519   3.448  -0.782  0.00  0.00    -0.487 OA
BRANCH  15  16
ATOM     16  C   LIG    1        3.019   3.503   0.556  0.00  0.00    +0.264 C 
BRANCH  16  17
ATOM     17  C   LIG    1        1.932   2.473   0.728  0.00  0.00    -0.010 A 
ATOM     18  C   LIG    1        2.250   1.195   1.146  0.00  0.00    +0.007 A 
ATOM     19  C   LIG    1        1.253   0.251   1.304  0.00  0.00    +0.000 A 
ATOM     20  C   LIG    1       -0.062   0.584   1.039  0.00  0.00    +0.000 A 
ATOM     21  C   LIG    1       -0.382   1.864   0.626  0.00  0.00    +0.000 A 
ATOM     22  C   LIG    1        0.616   2.808   0.469  0.00  0.00    +0.007 A 
ENDBRANCH  16  17
ENDBRANCH  15  16
ENDBRANCH  12  15
ENDBRANCH   5   9
BRANCH   1  23
ATOM     23  C   LIG    1       10.303  10.778  -0.297  0.00  0.00    +0.152 C 
BRANCH  23  27
ATOM     24  C   LIG    1        9.128  14.332  -2.355  0.00  0.00    +0.000 A 
ATOM     25  C   LIG    1        8.912  14.217  -0.995  0.00  0.00    +0.000 A 
ATOM     26  C   LIG    1        9.293  13.068  -0.329  0.00  0.00    +0.005 A 
ATOM     27  C   LIG    1        9.889  12.031  -1.023  0.00  0.00    -0.030 A 
ATOM     28  C   LIG    1       10.109  12.148  -2.383  0.00  0.00    +0.005 A 
ATOM     29  C   LIG    1        9.724  13.296  -3.050  0.00  0.00    +0.000 A 
ENDBRANCH  23  27
ENDBRANCH   1  23
TORSDOF 6
