REMARK  Name = ZINC00898438
REMARK                            x       y       z     vdW  Elec       q    Type
REMARK                         _______ _______ _______ _____ _____    ______ ____
ROOT
ATOM      1  C   LIG    1        0.625   1.493  -0.056  0.00  0.00    +0.105 C 
ATOM      2  N   LIG    1        0.422   0.039  -0.027  0.00  0.00    -0.298 NA
ATOM      3  C   LIG    1        0.824  -0.572  -1.295  0.00  0.00    +0.089 C 
ATOM      4  C   LIG    1        0.385  -2.025  -1.358  0.00  0.00    +0.051 C 
ATOM      5  C   LIG    1        0.525  -2.723  -0.035  0.00  0.00    -0.037 A 
ATOM      6  C   LIG    1        0.302  -4.095   0.005  0.00  0.00    +0.053 A 
ATOM      7  C   LIG    1        0.437  -4.802   1.187  0.00  0.00    +0.162 A 
ATOM      8  C   LIG    1        0.795  -4.135   2.353  0.00  0.00    +0.167 A 
ATOM      9  C   LIG    1        1.000  -2.757   2.319  0.00  0.00    +0.033 A 
ATOM     10  C   LIG    1        1.377  -2.026   3.552  0.00  0.00    -0.007 A 
ATOM     11  C   LIG    1        1.869  -2.710   4.660  0.00  0.00    +0.058 A 
ATOM     12  C   LIG    1        2.232  -2.007   5.795  0.00  0.00    +0.159 A 
ATOM     13  C   LIG    1        2.105  -0.621   5.825  0.00  0.00    +0.162 A 
ATOM     14  C   LIG    1        1.608   0.058   4.722  0.00  0.00    +0.053 A 
ATOM     15  C   LIG    1        1.238  -0.640   3.591  0.00  0.00    -0.034 A 
ATOM     16  C   LIG    1        0.678   0.085   2.397  0.00  0.00    +0.059 C 
ATOM     17  C   LIG    1        0.874  -2.053   1.118  0.00  0.00    -0.015 A 
ATOM     18  C   LIG    1        1.145  -0.572   1.099  0.00  0.00    +0.092 C 
ENDROOT
BRANCH   7  19
ATOM     19  O   LIG    1        0.219  -6.144   1.208  0.00  0.00    -0.491 OA
ATOM     20  C   LIG    1       -0.147  -6.761  -0.028  0.00  0.00    +0.277 C 
ENDBRANCH   7  19
BRANCH   8  21
ATOM     21  O   LIG    1        0.945  -4.822   3.516  0.00  0.00    -0.503 OA
ATOM     22  H   LIG    1        0.119  -4.957   4.002  0.00  0.00    +0.292 HD
ENDBRANCH   8  21
BRANCH  12  23
ATOM     23  O   LIG    1        2.712  -2.669   6.882  0.00  0.00    -0.503 OA
ATOM     24  H   LIG    1        3.672  -2.779   6.883  0.00  0.00    +0.292 HD
ENDBRANCH  12  23
BRANCH  13  25
ATOM     25  O   LIG    1        2.469   0.070   6.938  0.00  0.00    -0.491 OA
ATOM     26  C   LIG    1        2.313   1.490   6.901  0.00  0.00    +0.277 C 
ENDBRANCH  13  25
TORSDOF 4
