REMARK  Name = ZINC00945067
REMARK                            x       y       z     vdW  Elec       q    Type
REMARK                         _______ _______ _______ _____ _____    ______ ____
ROOT
ATOM      1  C   LIG    1       -1.390  -0.638  -0.043  0.00  0.00    +0.172 C 
ENDROOT
BRANCH   1   2
ATOM      2  N   LIG    1       -2.215  -0.081   1.032  0.00  0.00    -0.222 N 
ATOM      3  C   LIG    1       -2.601   1.205   1.107  0.00  0.00    +0.255 C 
ATOM      4  C   LIG    1       -3.418   1.382   2.326  0.00  0.00    +0.049 A 
ATOM      5  C   LIG    1       -4.069   2.458   2.907  0.00  0.00    +0.014 A 
ATOM      6  C   LIG    1       -4.769   2.280   4.090  0.00  0.00    +0.001 A 
ATOM      7  C   LIG    1       -4.822   1.038   4.693  0.00  0.00    +0.001 A 
ATOM      8  C   LIG    1       -4.176  -0.048   4.123  0.00  0.00    +0.014 A 
ATOM      9  C   LIG    1       -3.472   0.115   2.941  0.00  0.00    +0.049 A 
ATOM     10  O   LIG    1       -2.326   2.076   0.306  0.00  0.00    -0.270 OA
ATOM     11  C   LIG    1       -2.690  -0.790   2.072  0.00  0.00    +0.255 C 
ATOM     12  O   LIG    1       -2.506  -1.975   2.265  0.00  0.00    -0.270 OA
ENDBRANCH   1   2
BRANCH   1  14
ATOM     13  C   LIG    1        0.619   0.207   1.180  0.00  0.00    +0.009 C 
ATOM     14  C   LIG    1       -0.101   0.176  -0.170  0.00  0.00    +0.013 C 
ATOM     15  C   LIG    1        0.809  -0.469  -1.218  0.00  0.00    +0.009 C 
ENDBRANCH   1  14
BRANCH   1  16
ATOM     16  C   LIG    1       -2.151  -0.579  -1.342  0.00  0.00    +0.212 C 
ATOM     17  N   LIG    1       -1.868  -1.411  -2.299  0.00  0.00    -0.177 NA
BRANCH  17  18
ATOM     18  C   LIG    1       -2.562  -1.358  -3.482  0.00  0.00    +0.272 A 
ATOM     19  N   LIG    1       -2.367  -2.158  -4.532  0.00  0.00    -0.184 NA
ATOM     20  C   LIG    1       -3.201  -1.835  -5.499  0.00  0.00    +0.236 A 
ATOM     21  N   LIG    1       -3.959  -0.799  -5.071  0.00  0.00    -0.251 N 
ATOM     22  H   LIG    1       -4.660  -0.348  -5.567  0.00  0.00    +0.191 HD
ATOM     23  N   LIG    1       -3.534  -0.510  -3.764  0.00  0.00    -0.131 NA
BRANCH  20  24
ATOM     24  C   LIG    1       -3.292  -2.490  -6.820  0.00  0.00    +0.376 C 
ATOM     25  O   LIG    1       -4.105  -2.102  -7.635  0.00  0.00    -0.241 OA
BRANCH  24  26
ATOM     26  O   LIG    1       -2.473  -3.517  -7.120  0.00  0.00    -0.462 OA
ATOM     27  C   LIG    1       -2.616  -4.103  -8.416  0.00  0.00    +0.280 C 
ENDBRANCH  24  26
ENDBRANCH  20  24
ENDBRANCH  17  18
BRANCH  16  28
ATOM     28  O   LIG    1       -3.127   0.336  -1.511  0.00  0.00    -0.494 OA
ATOM     29  H   LIG    1       -3.331   0.936  -0.821  0.00  0.00    +0.293 HD
ENDBRANCH  16  28
ENDBRANCH   1  16
TORSDOF 7
