REMARK  Name = ZINC01028598
REMARK                            x       y       z     vdW  Elec       q    Type
REMARK                         _______ _______ _______ _____ _____    ______ ____
ROOT
ATOM      1  C   LIG    1       -0.319   1.482   0.048  0.00  0.00    +0.045 C 
ATOM      2  C   LIG    1       -0.142  -0.014   0.020  0.00  0.00    -0.032 A 
ATOM      3  C   LIG    1       -0.231  -0.696  -1.137  0.00  0.00    +0.051 A 
ATOM      4  S   LIG    1        0.049  -2.384  -0.635  0.00  0.00    -0.080 S 
ATOM      5  C   LIG    1        0.276  -2.123   1.114  0.00  0.00    +0.095 A 
ATOM      6  C   LIG    1        0.132  -0.747   1.230  0.00  0.00    +0.040 A 
ENDROOT
BRANCH   6   7
ATOM      7  C   LIG    1        0.248  -0.068   2.531  0.00  0.00    +0.112 A 
ATOM      8  N   LIG    1        0.926   1.021   2.838  0.00  0.00    -0.239 NA
ATOM      9  C   LIG    1        0.942   1.534   4.085  0.00  0.00    +0.079 A 
ATOM     10  C   LIG    1        1.622   2.686   4.546  0.00  0.00    +0.029 A 
ATOM     11  C   LIG    1        1.532   3.075   5.857  0.00  0.00    +0.002 A 
ATOM     12  C   LIG    1        0.778   2.358   6.775  0.00  0.00    +0.001 A 
ATOM     13  C   LIG    1        0.100   1.227   6.360  0.00  0.00    +0.017 A 
ATOM     14  C   LIG    1        0.183   0.830   5.049  0.00  0.00    +0.040 A 
ATOM     15  S   LIG    1       -0.499  -0.505   4.095  0.00  0.00    -0.067 S 
ENDBRANCH   6   7
BRANCH   5  16
ATOM     16  N   LIG    1        0.536  -3.057   2.106  0.00  0.00    -0.209 N 
ATOM     17  H   LIG    1        0.637  -2.771   3.027  0.00  0.00    +0.174 HD
BRANCH  16  18
ATOM     18  S   LIG    1        0.673  -4.661   1.718  0.00  0.00    +0.073 S 
ATOM     19  O   LIG    1       -0.451  -4.981   0.910  0.00  0.00    -0.150 OA
ATOM     20  O   LIG    1        0.963  -5.349   2.927  0.00  0.00    -0.150 OA
BRANCH  18  21
ATOM     21  C   LIG    1        2.095  -4.829   0.690  0.00  0.00    +0.109 A 
ATOM     22  C   LIG    1        1.973  -4.712  -0.682  0.00  0.00    +0.030 A 
ATOM     23  C   LIG    1        3.088  -4.843  -1.488  0.00  0.00    +0.022 A 
ATOM     24  C   LIG    1        4.326  -5.091  -0.922  0.00  0.00    +0.041 A 
ATOM     25 CL   LIG    1        5.726  -5.257  -1.934  0.00  0.00    -0.084 Cl
ATOM     26  C   LIG    1        4.447  -5.208   0.451  0.00  0.00    +0.022 A 
ATOM     27  C   LIG    1        3.332  -5.071   1.257  0.00  0.00    +0.030 A 
ENDBRANCH  18  21
ENDBRANCH  16  18
ENDBRANCH   5  16
TORSDOF 4
