REMARK  Name = ZINC01114473
REMARK                            x       y       z     vdW  Elec       q    Type
REMARK                         _______ _______ _______ _____ _____    ______ ____
ROOT
ATOM      1  C   LIG    1       -0.428  -4.484   0.566  0.00  0.00    +0.103 C 
ATOM      2  C   LIG    1       -1.001  -5.330   1.548  0.00  0.00    +0.018 C 
ATOM      3  C   LIG    1       -0.824  -6.729   1.397  0.00  0.00    +0.027 C 
ATOM      4  C   LIG    1       -0.088  -7.182   0.278  0.00  0.00    +0.142 C 
ATOM      5  N   LIG    1        0.399  -6.293  -0.571  0.00  0.00    -0.239 NA
ATOM      6  H   LIG    1        0.005  -6.532  -1.482  0.00  0.00    +0.142 HD
ATOM      7  C   LIG    1       -1.373  -7.599   2.343  0.00  0.00    +0.007 C 
ATOM      8  C   LIG    1       -2.072  -7.088   3.398  0.00  0.00    +0.000 C 
ATOM      9  C   LIG    1       -2.246  -5.715   3.545  0.00  0.00    +0.000 C 
ATOM     10  C   LIG    1       -1.722  -4.839   2.639  0.00  0.00    +0.006 C 
ATOM     11  N   LIG    1        0.235  -5.029  -0.439  0.00  0.00    -0.248 NA
ATOM     12  H   LIG    1        0.621  -4.443  -1.109  0.00  0.00    +0.141 HD
ENDROOT
BRANCH   4  13
ATOM     13  N   LIG    1        0.120  -8.535   0.074  0.00  0.00    -0.283 NA
ATOM     14  C   LIG    1       -0.783  -9.310  -0.788  0.00  0.00    +0.105 C 
ATOM     15  C   LIG    1        0.049 -10.003  -1.873  0.00  0.00    +0.123 C 
ATOM     16  N   LIG    1        1.179 -10.691  -1.231  0.00  0.00    -0.295 N 
ATOM     17  C   LIG    1        1.381 -12.009  -1.429  0.00  0.00    +0.247 C 
ATOM     18  O   LIG    1        2.256 -12.588  -0.815  0.00  0.00    -0.270 OA
ATOM     19  C   LIG    1        2.082  -9.916  -0.369  0.00  0.00    +0.123 C 
ATOM     20  C   LIG    1        1.253  -9.222   0.712  0.00  0.00    +0.105 C 
BRANCH  17  21
ATOM     21  C   LIG    1        0.540 -12.749  -2.393  0.00  0.00    +0.037 A 
ATOM     22  C   LIG    1        0.216 -12.177  -3.624  0.00  0.00    +0.013 A 
ATOM     23  C   LIG    1       -0.569 -12.874  -4.520  0.00  0.00    +0.001 A 
ATOM     24  C   LIG    1       -1.034 -14.137  -4.200  0.00  0.00    +0.000 A 
ATOM     25  C   LIG    1       -0.717 -14.710  -2.982  0.00  0.00    +0.001 A 
ATOM     26  C   LIG    1        0.072 -14.026  -2.079  0.00  0.00    +0.013 A 
ENDBRANCH  17  21
ENDBRANCH   4  13
BRANCH   1  31
ATOM     27  C   LIG    1       -0.999   1.233   0.935  0.00  0.00    +0.044 C 
ATOM     28  C   LIG    1       -0.849  -0.264   0.838  0.00  0.00    -0.050 A 
ATOM     29  C   LIG    1       -1.053  -0.899  -0.373  0.00  0.00    +0.003 A 
ATOM     30  C   LIG    1       -0.918  -2.269  -0.469  0.00  0.00    +0.005 A 
ATOM     31  C   LIG    1       -0.574  -3.013   0.660  0.00  0.00    -0.029 A 
ATOM     32  C   LIG    1       -0.369  -2.366   1.879  0.00  0.00    +0.005 A 
ATOM     33  C   LIG    1       -0.502  -0.995   1.960  0.00  0.00    +0.003 A 
ENDBRANCH   1  31
TORSDOF 3
