REMARK  Name = ZINC01336299
REMARK                            x       y       z     vdW  Elec       q    Type
REMARK                         _______ _______ _______ _____ _____    ______ ____
ROOT
ATOM      1  C   LIG    1       -7.702   1.824   1.344  0.00  0.00    +0.247 C 
ATOM      2  N   LIG    1       -6.415   1.448   1.210  0.00  0.00    -0.297 N 
ATOM      3  C   LIG    1       -6.058   0.275   0.401  0.00  0.00    +0.109 C 
ATOM      4  C   LIG    1       -5.208  -0.672   1.254  0.00  0.00    +0.030 C 
ATOM      5  C   LIG    1       -4.007   0.093   1.815  0.00  0.00    +0.063 C 
ATOM      6  C   LIG    1       -4.500   1.235   2.707  0.00  0.00    +0.030 C 
ATOM      7  C   LIG    1       -5.342   2.204   1.871  0.00  0.00    +0.109 C 
ATOM      8  O   LIG    1       -7.995   2.733   2.097  0.00  0.00    -0.270 OA
ENDROOT
BRANCH   1  13
ATOM      9  C   LIG    1      -11.814  -0.871  -1.647  0.00  0.00    +0.044 C 
ATOM     10  C   LIG    1      -10.738  -0.165  -0.864  0.00  0.00    -0.050 A 
ATOM     11  C   LIG    1      -11.000   0.283   0.419  0.00  0.00    +0.004 A 
ATOM     12  C   LIG    1      -10.019   0.930   1.141  0.00  0.00    +0.013 A 
ATOM     13  C   LIG    1       -8.759   1.131   0.576  0.00  0.00    +0.037 A 
ATOM     14  C   LIG    1       -8.502   0.681  -0.720  0.00  0.00    +0.013 A 
ATOM     15  C   LIG    1       -9.490   0.032  -1.430  0.00  0.00    +0.004 A 
ENDBRANCH   1  13
BRANCH   5  16
ATOM     16  C   LIG    1       -3.149  -0.843   2.627  0.00  0.00    +0.166 C 
ATOM     17  O   LIG    1       -3.639  -1.833   3.128  0.00  0.00    -0.292 OA
BRANCH  16  18
ATOM     18  C   LIG    1       -1.719  -0.557   2.810  0.00  0.00    +0.018 A 
ATOM     19  C   LIG    1       -0.920  -1.425   3.563  0.00  0.00    +0.014 A 
ATOM     20  C   LIG    1        0.420  -1.154   3.727  0.00  0.00    +0.039 A 
ATOM     21  C   LIG    1        0.978  -0.021   3.152  0.00  0.00    +0.123 A 
ATOM     22  F   LIG    1        2.293   0.239   3.316  0.00  0.00    -0.205 F 
ATOM     23  C   LIG    1        0.190   0.846   2.409  0.00  0.00    +0.039 A 
ATOM     24  C   LIG    1       -1.152   0.587   2.238  0.00  0.00    +0.014 A 
ENDBRANCH  16  18
ENDBRANCH   5  16
TORSDOF 3
