REMARK  Name = ZINC00847257
REMARK                            x       y       z     vdW  Elec       q    Type
REMARK                         _______ _______ _______ _____ _____    ______ ____
ROOT
ATOM      1  C   LIG    1       -2.095   4.463   3.025  0.00  0.00    +0.061 C 
ATOM      2  C   LIG    1       -1.797   3.925   1.650  0.00  0.00    +0.021 C 
ATOM      3  C   LIG    1       -1.611   2.598   1.482  0.00  0.00    +0.078 C 
ATOM      4  C   LIG    1       -1.314   2.099   0.082  0.00  0.00    +0.143 C 
ATOM      5  N   LIG    1       -1.252   3.109  -0.987  0.00  0.00    -0.288 N 
ATOM      6  H   LIG    1       -1.065   2.852  -1.904  0.00  0.00    +0.151 HD
ATOM      7  C   LIG    1       -1.460   4.401  -0.662  0.00  0.00    +0.304 C 
ATOM      8  O   LIG    1       -1.411   5.242  -1.538  0.00  0.00    -0.252 OA
ATOM      9  N   LIG    1       -1.720   4.786   0.593  0.00  0.00    -0.273 N 
ATOM     10  H   LIG    1       -1.861   5.731   0.762  0.00  0.00    +0.156 HD
ENDROOT
BRANCH   4  11
ATOM     11  C   LIG    1        0.009   1.378   0.117  0.00  0.00    -0.022 A 
ATOM     12  C   LIG    1        1.189   2.097   0.089  0.00  0.00    +0.008 A 
ATOM     13  C   LIG    1        2.403   1.435   0.115  0.00  0.00    +0.033 A 
ATOM     14  C   LIG    1        2.436   0.054   0.169  0.00  0.00    +0.122 A 
ATOM     15  C   LIG    1        1.256  -0.665   0.197  0.00  0.00    +0.033 A 
ATOM     16  C   LIG    1        0.042  -0.003   0.171  0.00  0.00    +0.008 A 
BRANCH  14  17
ATOM     17  N   LIG    1        3.735  -0.654   0.197  0.00  0.00    +0.006 N 
ATOM     18  O   LIG    1        3.764  -1.871   0.244  0.00  0.00    -0.130 OA
BRANCH  17  19
ATOM     19  O   LIG    1        4.775  -0.021   0.172  0.00  0.00    -0.396 OA
ATOM     20  H   LIG    1        4.752   0.915   0.135  0.00  0.00    +0.329 HD
ENDBRANCH  17  19
ENDBRANCH  14  17
ENDBRANCH   4  11
BRANCH   3  21
ATOM     21  C   LIG    1       -1.692   1.704   2.575  0.00  0.00    +0.339 C 
ATOM     22  O   LIG    1       -1.825   2.135   3.705  0.00  0.00    -0.245 OA
BRANCH  21  23
ATOM     23  O   LIG    1       -1.621   0.372   2.365  0.00  0.00    -0.458 OA
BRANCH  23  24
ATOM     24  C   LIG    1       -1.709  -0.472   3.514  0.00  0.00    +0.177 C 
ATOM     25  C   LIG    1       -0.306  -0.720   4.074  0.00  0.00    +0.044 C 
ATOM     26  C   LIG    1       -0.401  -1.623   5.305  0.00  0.00    +0.004 C 
ATOM     27  C   LIG    1       -1.036  -2.958   4.910  0.00  0.00    +0.000 C 
ATOM     28  C   LIG    1       -2.438  -2.710   4.351  0.00  0.00    +0.004 C 
ATOM     29  C   LIG    1       -2.344  -1.806   3.120  0.00  0.00    +0.044 C 
ENDBRANCH  23  24
ENDBRANCH  21  23
ENDBRANCH   3  21
TORSDOF 6
