REMARK  Name = ZINC01009546
REMARK                            x       y       z     vdW  Elec       q    Type
REMARK                         _______ _______ _______ _____ _____    ______ ____
ROOT
ATOM      1  C   LIG    1       -5.641  -1.171  -3.405  0.00  0.00    +0.010 A 
ATOM      2  C   LIG    1       -5.847  -0.064  -4.237  0.00  0.00    +0.059 A 
ATOM      3  C   LIG    1       -6.345  -0.244  -5.512  0.00  0.00    +0.167 A 
ATOM      4  C   LIG    1       -6.654  -1.528  -5.966  0.00  0.00    +0.168 A 
ATOM      5  O   LIG    1       -7.130  -1.435  -7.241  0.00  0.00    -0.453 OA
ATOM      6  C   LIG    1       -6.727  -0.135  -7.709  0.00  0.00    +0.466 C 
ATOM      7  C   LIG    1       -6.455  -2.626  -5.139  0.00  0.00    +0.082 A 
ATOM      8  O   LIG    1       -6.629   0.648  -6.505  0.00  0.00    -0.453 OA
ATOM      9  C   LIG    1       -5.953  -2.455  -3.868  0.00  0.00    +0.132 A 
ENDROOT
BRANCH   1  14
ATOM     10  N   LIG    1       -2.776   1.460  -0.577  0.00  0.00    -0.252 N 
ATOM     11  C   LIG    1       -3.634   0.454  -0.521  0.00  0.00    +0.259 C 
ATOM     12  C   LIG    1       -4.213   0.007  -1.804  0.00  0.00    +0.077 C 
ATOM     13  S   LIG    1       -3.417   1.133  -2.941  0.00  0.00    -0.061 S 
ATOM     14  C   LIG    1       -5.105  -0.986  -2.051  0.00  0.00    +0.030 C 
ATOM     15  O   LIG    1       -3.929  -0.076   0.534  0.00  0.00    -0.269 OA
ATOM     16  C   LIG    1       -2.455   2.048  -1.747  0.00  0.00    +0.121 C 
ATOM     17  S   LIG    1       -1.383   3.354  -2.021  0.00  0.00    -0.027 S 
BRANCH  10  18
ATOM     18  C   LIG    1       -2.166   1.950   0.662  0.00  0.00    +0.141 C 
BRANCH  18  20
ATOM     19  C   LIG    1        0.235   1.851   1.091  0.00  0.00    +0.005 C 
ATOM     20  C   LIG    1       -0.887   1.197   0.924  0.00  0.00    -0.015 C 
ENDBRANCH  18  20
ENDBRANCH  10  18
ENDBRANCH   1  14
BRANCH   9  21
ATOM     21  N   LIG    1       -5.744  -3.629  -2.990  0.00  0.00    +0.007 N 
ATOM     22  O   LIG    1       -6.120  -4.731  -3.348  0.00  0.00    -0.130 OA
BRANCH  21  23
ATOM     23  O   LIG    1       -5.195  -3.493  -1.911  0.00  0.00    -0.396 OA
ATOM     24  H   LIG    1       -4.906  -2.646  -1.636  0.00  0.00    +0.329 HD
ENDBRANCH  21  23
ENDBRANCH   9  21
TORSDOF 5
