REMARK  Name = ZINC01144923
REMARK                            x       y       z     vdW  Elec       q    Type
REMARK                         _______ _______ _______ _____ _____    ______ ____
ROOT
ATOM      1  C   LIG    1        2.289   1.416  -0.928  0.00  0.00    +0.001 A 
ATOM      2  C   LIG    1        1.059   2.067  -0.921  0.00  0.00    +0.002 A 
ATOM      3  C   LIG    1       -0.101   1.376  -0.734  0.00  0.00    +0.028 A 
ATOM      4  C   LIG    1       -0.056  -0.013  -0.545  0.00  0.00    +0.078 A 
ATOM      5  C   LIG    1        1.197  -0.673  -0.553  0.00  0.00    +0.040 A 
ATOM      6  C   LIG    1        1.218  -2.077  -0.360  0.00  0.00    +0.132 A 
ATOM      7  N   LIG    1        0.064  -2.704  -0.183  0.00  0.00    -0.199 NA
ATOM      8  C   LIG    1       -1.091  -2.045  -0.183  0.00  0.00    +0.222 A 
ATOM      9  N   LIG    1       -1.167  -0.739  -0.357  0.00  0.00    -0.214 NA
ATOM     10  C   LIG    1        2.368   0.067  -0.748  0.00  0.00    +0.013 A 
ENDROOT
BRANCH   6  11
ATOM     11  N   LIG    1        2.408  -2.772  -0.358  0.00  0.00    -0.321 N 
ATOM     12  H   LIG    1        3.245  -2.301  -0.490  0.00  0.00    +0.148 HD
BRANCH  11  13
ATOM     13  C   LIG    1        2.408  -4.224  -0.158  0.00  0.00    +0.177 C 
BRANCH  13  14
ATOM     14  C   LIG    1        3.824  -4.736  -0.199  0.00  0.00    +0.122 A 
ATOM     15  C   LIG    1        4.649  -4.855   0.857  0.00  0.00    +0.046 A 
ATOM     16  C   LIG    1        5.870  -5.373   0.367  0.00  0.00    +0.041 A 
ATOM     17  C   LIG    1        5.718  -5.539  -0.959  0.00  0.00    +0.195 A 
ATOM     18  O   LIG    1        4.476  -5.158  -1.296  0.00  0.00    -0.466 OA
ENDBRANCH  13  14
ENDBRANCH  11  13
ENDBRANCH   6  11
BRANCH   8  19
ATOM     19  N   LIG    1       -2.262  -2.758   0.007  0.00  0.00    -0.284 N 
ATOM     20  H   LIG    1       -2.237  -3.726   0.057  0.00  0.00    +0.155 HD
BRANCH  19  21
ATOM     21  C   LIG    1       -3.480  -2.082   0.128  0.00  0.00    +0.034 A 
ATOM     22  C   LIG    1       -3.529  -0.840   0.747  0.00  0.00    +0.024 A 
ATOM     23  C   LIG    1       -4.733  -0.173   0.860  0.00  0.00    +0.017 A 
ATOM     24  C   LIG    1       -5.892  -0.746   0.368  0.00  0.00    +0.018 A 
ATOM     25 BR   LIG    1       -7.540   0.167   0.532  0.00  0.00    -0.050 Br
ATOM     26  C   LIG    1       -5.847  -1.986  -0.244  0.00  0.00    +0.017 A 
ATOM     27  C   LIG    1       -4.645  -2.655  -0.365  0.00  0.00    +0.024 A 
ENDBRANCH  19  21
ENDBRANCH   8  19
TORSDOF 5
