REMARK  Name = ZINC00869161
REMARK                            x       y       z     vdW  Elec       q    Type
REMARK                         _______ _______ _______ _____ _____    ______ ____
ROOT
ATOM      1  C   LIG    1       -1.486   9.846   2.184  0.00  0.00    +0.028 C 
ATOM      2  C   LIG    1       -0.542   9.368   1.079  0.00  0.00    +0.081 C 
ATOM      3  C   LIG    1       -0.528  10.385  -0.065  0.00  0.00    +0.050 C 
ATOM      4  C   LIG    1        0.469   9.924  -1.128  0.00  0.00    +0.115 C 
ATOM      5  C   LIG    1        0.202   8.493  -1.516  0.00  0.00    -0.005 A 
ATOM      6  C   LIG    1        0.684   8.026  -2.727  0.00  0.00    +0.007 A 
ATOM      7  C   LIG    1        0.462   6.718  -3.108  0.00  0.00    +0.000 A 
ATOM      8  C   LIG    1       -0.246   5.864  -2.281  0.00  0.00    +0.002 A 
ATOM      9  C   LIG    1       -0.732   6.322  -1.073  0.00  0.00    +0.024 A 
ATOM     10  C   LIG    1       -0.510   7.639  -0.688  0.00  0.00    +0.042 A 
ATOM     11  N   LIG    1       -1.015   8.085   0.540  0.00  0.00    -0.264 N 
ATOM     12  C   LIG    1       -1.924   7.353   1.214  0.00  0.00    +0.251 C 
ATOM     13  O   LIG    1       -2.232   7.661   2.349  0.00  0.00    -0.270 OA
ENDROOT
BRANCH  12  14
ATOM     14  C   LIG    1       -2.545   6.177   0.574  0.00  0.00    +0.037 A 
ATOM     15  C   LIG    1       -2.723   4.997   1.300  0.00  0.00    +0.016 A 
ATOM     16  C   LIG    1       -3.303   3.902   0.699  0.00  0.00    +0.046 A 
ATOM     17  C   LIG    1       -3.710   3.969  -0.628  0.00  0.00    +0.120 A 
ATOM     18  C   LIG    1       -3.529   5.140  -1.356  0.00  0.00    +0.046 A 
ATOM     19  C   LIG    1       -2.955   6.241  -0.760  0.00  0.00    +0.016 A 
BRANCH  17  20
ATOM     20  O   LIG    1       -4.280   2.888  -1.217  0.00  0.00    -0.495 OA
ATOM     21  C   LIG    1       -4.675   3.026  -2.583  0.00  0.00    +0.277 C 
ENDBRANCH  17  20
ENDBRANCH  12  14
BRANCH   4  22
ATOM     22  N   LIG    1        0.341  10.778  -2.310  0.00  0.00    -0.264 N 
ATOM     23  C   LIG    1       -0.823  10.819  -2.990  0.00  0.00    +0.217 C 
ATOM     24  C   LIG    1       -0.927  11.623  -4.260  0.00  0.00    +0.109 C 
ATOM     25  O   LIG    1       -1.786  10.207  -2.579  0.00  0.00    -0.276 OA
BRANCH  22  26
ATOM     26  C   LIG    1        1.426  11.553  -2.735  0.00  0.00    +0.037 A 
ATOM     27  C   LIG    1        1.965  11.361  -4.000  0.00  0.00    +0.023 A 
ATOM     28  C   LIG    1        3.032  12.132  -4.418  0.00  0.00    +0.002 A 
ATOM     29  C   LIG    1        3.571  13.086  -3.575  0.00  0.00    +0.000 A 
ATOM     30  C   LIG    1        3.040  13.275  -2.312  0.00  0.00    +0.002 A 
ATOM     31  C   LIG    1        1.969  12.512  -1.890  0.00  0.00    +0.023 A 
ENDBRANCH  22  26
ENDBRANCH   4  22
TORSDOF 4
