REMARK  Name = ZINC00967563
REMARK                            x       y       z     vdW  Elec       q    Type
REMARK                         _______ _______ _______ _____ _____    ______ ____
ROOT
ATOM      1  C   LIG    1       -0.018   1.503   0.010  0.00  0.00    +0.047 C 
ATOM      2  C   LIG    1        0.002  -0.004   0.002  0.00  0.00    -0.009 A 
ATOM      3  C   LIG    1        0.006  -0.689  -1.198  0.00  0.00    +0.007 A 
ATOM      4  C   LIG    1        0.024  -2.071  -1.206  0.00  0.00    +0.004 A 
ATOM      5  C   LIG    1        0.039  -2.772  -0.014  0.00  0.00    -0.041 A 
ATOM      6  C   LIG    1        0.036  -2.092   1.188  0.00  0.00    +0.049 A 
ATOM      7  C   LIG    1        0.023  -0.705   1.199  0.00  0.00    +0.120 A 
ENDROOT
BRANCH   5   8
ATOM      8  C   LIG    1        0.058  -4.279  -0.027  0.00  0.00    +0.013 C 
ATOM      9  C   LIG    1        1.310  -4.767  -0.759  0.00  0.00    +0.012 C 
ATOM     10  C   LIG    1       -1.188  -4.799  -0.746  0.00  0.00    +0.012 C 
ENDBRANCH   5   8
BRANCH   7  11
ATOM     11  O   LIG    1        0.025  -0.033   2.381  0.00  0.00    -0.506 OA
ATOM     12  H   LIG    1       -0.857   0.149   2.731  0.00  0.00    +0.292 HD
ENDBRANCH   7  11
TORSDOF 2
