REMARK  Name = ZINC00815215
REMARK                            x       y       z     vdW  Elec       q    Type
REMARK                         _______ _______ _______ _____ _____    ______ ____
ROOT
ATOM      1  N   LIG    1        6.210  -1.341   0.994  0.00  0.00    -0.279 N 
ATOM      2  H   LIG    1        6.754  -0.857   0.353  0.00  0.00    +0.155 HD
ATOM      3  C   LIG    1        6.786  -2.225   1.833  0.00  0.00    +0.287 C 
ATOM      4  O   LIG    1        6.095  -2.902   2.570  0.00  0.00    -0.266 OA
ENDROOT
BRANCH   3   5
ATOM      5  C   LIG    1        8.259  -2.372   1.859  0.00  0.00    +0.239 A 
ATOM      6  N   LIG    1        9.116  -1.681   1.103  0.00  0.00    -0.185 NA
ATOM      7  C   LIG    1       10.357  -2.057   1.377  0.00  0.00    +0.254 A 
ATOM      8  N   LIG    1       11.545  -1.668   0.894  0.00  0.00    -0.216 NA
ATOM      9  C   LIG    1       12.659  -2.203   1.336  0.00  0.00    +0.044 A 
ATOM     10  C   LIG    1       13.982  -1.747   0.776  0.00  0.00    +0.066 C 
ATOM     11  C   LIG    1       12.626  -3.195   2.325  0.00  0.00    +0.052 A 
ATOM     12  C   LIG    1       11.428  -3.597   2.821  0.00  0.00    +0.113 A 
ATOM     13  N   LIG    1       10.289  -3.024   2.343  0.00  0.00    -0.195 N 
ATOM     14  N   LIG    1        8.930  -3.201   2.636  0.00  0.00    -0.138 NA
BRANCH  12  15
ATOM     15  C   LIG    1       11.360  -4.663   3.885  0.00  0.00    +0.390 C 
ATOM     16  F   LIG    1       10.746  -4.141   5.029  0.00  0.00    -0.202 F 
ATOM     17  F   LIG    1       12.654  -5.088   4.202  0.00  0.00    -0.202 F 
ENDBRANCH  12  15
ENDBRANCH   3   5
BRANCH   1  21
ATOM     18  C   LIG    1        2.095  -0.691   1.152  0.00  0.00    +0.030 A 
ATOM     19  C   LIG    1        2.764  -0.611  -0.062  0.00  0.00    +0.025 A 
ATOM     20  C   LIG    1        4.127  -0.826  -0.115  0.00  0.00    +0.025 A 
ATOM     21  C   LIG    1        4.828  -1.123   1.047  0.00  0.00    +0.034 A 
ATOM     22  C   LIG    1        4.158  -1.203   2.261  0.00  0.00    +0.025 A 
ATOM     23  C   LIG    1        2.797  -0.982   2.314  0.00  0.00    +0.025 A 
BRANCH  18  24
ATOM     24  N   LIG    1        0.714  -0.472   1.205  0.00  0.00    -0.330 N 
BRANCH  24  26
ATOM     25  C   LIG    1       -0.054   1.350  -0.235  0.00  0.00    +0.024 C 
ATOM     26  C   LIG    1       -0.027  -0.165  -0.022  0.00  0.00    +0.102 C 
ENDBRANCH  24  26
BRANCH  24  27
ATOM     27  C   LIG    1        0.008  -0.551   2.486  0.00  0.00    +0.102 C 
ATOM     28  C   LIG    1       -0.468  -1.986   2.719  0.00  0.00    +0.024 C 
ENDBRANCH  24  27
ENDBRANCH  18  24
ENDBRANCH   1  21
TORSDOF 6
