REMARK  Name = ZINC00900633
REMARK                            x       y       z     vdW  Elec       q    Type
REMARK                         _______ _______ _______ _____ _____    ______ ____
ROOT
ATOM      1  C   LIG    1       -0.018   1.465   0.010  0.00  0.00    -0.096 C 
ATOM      2  N   LIG    1        0.002  -0.004   0.002  0.00  0.00    +0.378 N 
ATOM      3  H   LIG    1        0.519  -0.307  -0.809  0.00  0.00    -0.082 HD
ATOM      4  C   LIG    1       -1.364  -0.477  -0.132  0.00  0.00    -0.075 C 
ATOM      5  C   LIG    1       -1.400  -1.976  -0.446  0.00  0.00    +0.017 C 
ATOM      6  C   LIG    1       -1.333  -2.736   0.863  0.00  0.00    -0.045 A 
ATOM      7  C   LIG    1       -2.437  -3.438   1.308  0.00  0.00    +0.004 A 
ATOM      8  C   LIG    1       -2.370  -4.130   2.505  0.00  0.00    +0.002 A 
ATOM      9  C   LIG    1       -1.205  -4.117   3.248  0.00  0.00    +0.020 A 
ATOM     10  C   LIG    1       -0.102  -3.413   2.798  0.00  0.00    +0.044 A 
ATOM     11 CL   LIG    1        1.364  -3.395   3.728  0.00  0.00    -0.083 Cl
ATOM     12  C   LIG    1       -0.174  -2.724   1.600  0.00  0.00    -0.028 A 
ATOM     13  C   LIG    1        1.030  -1.952   1.099  0.00  0.00    +0.018 C 
ATOM     14  C   LIG    1        0.709  -0.456   1.187  0.00  0.00    -0.074 C 
ENDROOT
TORSDOF 0
