REMARK  Name = ZINC01064515
REMARK                            x       y       z     vdW  Elec       q    Type
REMARK                         _______ _______ _______ _____ _____    ______ ____
ROOT
ATOM      1  C   LIG    1        7.408   5.303  -0.155  0.00  0.00    +0.028 C 
ATOM      2  C   LIG    1        6.232   6.249  -0.407  0.00  0.00    +0.081 C 
ATOM      3  C   LIG    1        6.537   7.624   0.193  0.00  0.00    +0.050 C 
ATOM      4  C   LIG    1        5.381   8.572  -0.126  0.00  0.00    +0.115 C 
ATOM      5  C   LIG    1        4.067   7.953   0.271  0.00  0.00    -0.005 A 
ATOM      6  C   LIG    1        2.972   8.777   0.470  0.00  0.00    +0.007 A 
ATOM      7  C   LIG    1        1.751   8.238   0.827  0.00  0.00    +0.000 A 
ATOM      8  C   LIG    1        1.615   6.872   0.989  0.00  0.00    +0.002 A 
ATOM      9  C   LIG    1        2.702   6.044   0.795  0.00  0.00    +0.024 A 
ATOM     10  C   LIG    1        3.933   6.584   0.436  0.00  0.00    +0.042 A 
ATOM     11  N   LIG    1        5.024   5.727   0.247  0.00  0.00    -0.265 N 
ATOM     12  C   LIG    1        4.970   4.446   0.663  0.00  0.00    +0.244 C 
ATOM     13  O   LIG    1        5.858   3.671   0.362  0.00  0.00    -0.270 OA
ENDROOT
BRANCH   4  14
ATOM     14  N   LIG    1        5.369   8.855  -1.563  0.00  0.00    -0.264 N 
ATOM     15  C   LIG    1        5.629  10.100  -2.008  0.00  0.00    +0.217 C 
ATOM     16  C   LIG    1        5.511  10.417  -3.476  0.00  0.00    +0.109 C 
ATOM     17  O   LIG    1        5.958  10.967  -1.225  0.00  0.00    -0.276 OA
BRANCH  14  18
ATOM     18  C   LIG    1        5.087   7.832  -2.475  0.00  0.00    +0.037 A 
ATOM     19  C   LIG    1        6.078   7.372  -3.333  0.00  0.00    +0.023 A 
ATOM     20  C   LIG    1        5.798   6.357  -4.228  0.00  0.00    +0.002 A 
ATOM     21  C   LIG    1        4.530   5.808  -4.278  0.00  0.00    +0.000 A 
ATOM     22  C   LIG    1        3.540   6.267  -3.429  0.00  0.00    +0.002 A 
ATOM     23  C   LIG    1        3.815   7.277  -2.528  0.00  0.00    +0.023 A 
ENDBRANCH  14  18
ENDBRANCH   4  14
BRANCH  12  24
ATOM     24  C   LIG    1        3.843   3.988   1.477  0.00  0.00    +0.068 C 
ATOM     25  C   LIG    1        3.488   2.687   1.466  0.00  0.00    +0.013 C 
BRANCH  25  26
ATOM     26  C   LIG    1        2.355   2.227   2.284  0.00  0.00    -0.025 A 
ATOM     27  C   LIG    1        1.644   3.135   3.075  0.00  0.00    +0.008 A 
ATOM     28  C   LIG    1        0.584   2.696   3.840  0.00  0.00    +0.001 A 
ATOM     29  C   LIG    1        0.222   1.360   3.825  0.00  0.00    +0.000 A 
ATOM     30  C   LIG    1        0.921   0.455   3.046  0.00  0.00    +0.001 A 
ATOM     31  C   LIG    1        1.984   0.878   2.276  0.00  0.00    +0.008 A 
ENDBRANCH  25  26
ENDBRANCH  12  24
TORSDOF 4
