REMARK  Name = ZINC00714467
REMARK                            x       y       z     vdW  Elec       q    Type
REMARK                         _______ _______ _______ _____ _____    ______ ____
ROOT
ATOM      1  C   LIG    1       -0.420   3.494   0.747  0.00  0.00    +0.136 A 
ATOM      2  C   LIG    1       -1.036   2.275   0.545  0.00  0.00    +0.050 A 
ATOM      3  C   LIG    1       -0.035   1.358   0.235  0.00  0.00    +0.050 A 
ATOM      4  C   LIG    1        1.167   2.056   0.251  0.00  0.00    +0.129 A 
ATOM      5  O   LIG    1        0.902   3.343   0.563  0.00  0.00    -0.455 OA
ENDROOT
BRANCH   4   6
ATOM      6  C   LIG    1        2.434   1.517  -0.012  0.00  0.00    +0.064 C 
ATOM      7  C   LIG    1        3.378   2.267  -0.708  0.00  0.00    +0.102 C 
ATOM      8  C   LIG    1        3.022   3.541  -1.356  0.00  0.00    +0.255 C 
ATOM      9  N   LIG    1        3.990   4.216  -2.009  0.00  0.00    -0.263 N 
ATOM     10  H   LIG    1        3.773   5.059  -2.437  0.00  0.00    +0.157 HD
ATOM     11  C   LIG    1        5.243   3.747  -2.084  0.00  0.00    +0.143 C 
ATOM     12  N   LIG    1        5.635   2.594  -1.524  0.00  0.00    -0.263 N 
ATOM     13  H   LIG    1        6.559   2.312  -1.617  0.00  0.00    +0.157 HD
ATOM     14  S   LIG    1        6.404   4.668  -2.941  0.00  0.00    -0.018 S 
ATOM     15  O   LIG    1        1.887   3.975  -1.299  0.00  0.00    -0.270 OA
ATOM     16  C   LIG    1        4.775   1.817  -0.835  0.00  0.00    +0.255 C 
ATOM     17  O   LIG    1        5.142   0.772  -0.331  0.00  0.00    -0.270 OA
ENDBRANCH   4   6
BRANCH   1  25
ATOM     18  C   LIG    1       -0.362   5.927   1.272  0.00  0.00    +0.013 A 
ATOM     19  C   LIG    1       -1.005   7.102   1.603  0.00  0.00    +0.022 A 
ATOM     20  C   LIG    1       -2.380   7.121   1.764  0.00  0.00    +0.059 A 
ATOM     21 CL   LIG    1       -3.180   8.604   2.181  0.00  0.00    -0.082 Cl
ATOM     22  C   LIG    1       -3.120   5.960   1.595  0.00  0.00    +0.060 A 
ATOM     23 CL   LIG    1       -4.844   5.995   1.800  0.00  0.00    -0.082 Cl
ATOM     24  C   LIG    1       -2.490   4.780   1.259  0.00  0.00    +0.033 A 
ATOM     25  C   LIG    1       -1.102   4.754   1.100  0.00  0.00    +0.019 A 
ENDBRANCH   1  25
TORSDOF 2
