REMARK  Name = ZINC00897236
REMARK                            x       y       z     vdW  Elec       q    Type
REMARK                         _______ _______ _______ _____ _____    ______ ____
ROOT
ATOM      1  C   LIG    1       -0.088   1.430   0.021  0.00  0.00    +0.047 A 
ATOM      2  C   LIG    1        1.124   2.119   0.010  0.00  0.00    +0.057 A 
ATOM      3  C   LIG    1        2.309   1.396   0.004  0.00  0.00    +0.128 A 
ATOM      4  S   LIG    1        3.854   2.256   0.033  0.00  0.00    +0.062 S 
ATOM      5  N   LIG    1        3.456   3.853  -0.239  0.00  0.00    -0.167 NA
ATOM      6  H   LIG    1        3.997   4.429  -0.801  0.00  0.00    +0.150 HD
ATOM      7  C   LIG    1        2.229   4.335   0.427  0.00  0.00    +0.192 C 
ATOM      8  O   LIG    1        4.351   2.171   1.361  0.00  0.00    -0.153 OA
ATOM      9  O   LIG    1        4.596   1.815  -1.095  0.00  0.00    -0.153 OA
ATOM     10  C   LIG    1        2.292   0.017  -0.010  0.00  0.00    +0.060 A 
ATOM     11  C   LIG    1        1.086  -0.660  -0.003  0.00  0.00    +0.125 A 
ATOM     12  N   LIG    1        1.105   3.510  -0.008  0.00  0.00    -0.324 N 
ATOM     13  H   LIG    1        0.304   3.956  -0.326  0.00  0.00    +0.148 HD
ATOM     14  C   LIG    1       -0.102   0.050   0.017  0.00  0.00    +0.069 A 
ATOM     15 CL   LIG    1       -1.617  -0.799   0.037  0.00  0.00    -0.081 Cl
ENDROOT
BRANCH   7  16
ATOM     16  C   LIG    1        2.393   4.225   1.945  0.00  0.00    +0.207 C 
ATOM     17 CL   LIG    1        0.938   4.912   2.757  0.00  0.00    -0.101 Cl
ATOM     18 CL   LIG    1        3.858   5.142   2.459  0.00  0.00    -0.101 Cl
ENDBRANCH   7  16
BRANCH  11  19
ATOM     19  S   LIG    1        1.062  -2.422  -0.018  0.00  0.00    +0.057 S 
ATOM     20  O   LIG    1        2.418  -2.846  -0.010  0.00  0.00    -0.153 OA
ATOM     21  O   LIG    1        0.149  -2.807  -1.037  0.00  0.00    -0.153 OA
BRANCH  19  22
ATOM     22  N   LIG    1        0.403  -2.915   1.419  0.00  0.00    -0.203 NA
ATOM     23  H   LIG    1        0.513  -2.372   2.215  0.00  0.00    +0.144 HD
ATOM     24  H   LIG    1       -0.093  -3.747   1.465  0.00  0.00    +0.144 HD
ENDBRANCH  19  22
ENDBRANCH  11  19
TORSDOF 3
