REMARK  Name = ZINC01066515
REMARK                            x       y       z     vdW  Elec       q    Type
REMARK                         _______ _______ _______ _____ _____    ______ ____
ROOT
ATOM      1  C   LIG    1       -1.985  -6.084   0.014  0.00  0.00    +0.135 C 
ENDROOT
BRANCH   1   2
ATOM      2  C   LIG    1       -2.375  -6.620  -1.339  0.00  0.00    +0.022 A 
ATOM      3  C   LIG    1       -3.723  -6.756  -1.661  0.00  0.00    +0.030 A 
ATOM      4  C   LIG    1       -4.109  -7.237  -2.876  0.00  0.00    +0.051 A 
ATOM      5 CL   LIG    1       -5.795  -7.398  -3.255  0.00  0.00    -0.083 Cl
ATOM      6  C   LIG    1       -3.134  -7.602  -3.821  0.00  0.00    +0.022 A 
ATOM      7  C   LIG    1       -3.493  -8.102  -5.087  0.00  0.00    +0.013 A 
ATOM      8  C   LIG    1       -2.493  -8.437  -5.955  0.00  0.00    +0.020 A 
ATOM      9  C   LIG    1       -1.161  -8.278  -5.575  0.00  0.00    +0.111 A 
ATOM     10  N   LIG    1       -0.832  -7.812  -4.395  0.00  0.00    -0.251 NA
ATOM     11  C   LIG    1       -1.762  -7.466  -3.500  0.00  0.00    +0.114 A 
ATOM     12  C   LIG    1       -1.401  -6.960  -2.234  0.00  0.00    +0.148 A 
BRANCH  12  13
ATOM     13  O   LIG    1       -0.091  -6.815  -1.904  0.00  0.00    -0.504 OA
ATOM     14  H   LIG    1        0.298  -7.596  -1.486  0.00  0.00    +0.292 HD
ENDBRANCH  12  13
ENDBRANCH   1   2
BRANCH   1  18
ATOM     15  C   LIG    1       -1.362  -1.864  -0.252  0.00  0.00    +0.121 A 
ATOM     16  C   LIG    1       -0.278  -2.720  -0.127  0.00  0.00    +0.046 A 
ATOM     17  C   LIG    1       -0.482  -4.084  -0.041  0.00  0.00    +0.009 A 
ATOM     18  C   LIG    1       -1.766  -4.596  -0.080  0.00  0.00    -0.023 A 
ATOM     19  C   LIG    1       -2.848  -3.745  -0.204  0.00  0.00    +0.009 A 
ATOM     20  C   LIG    1       -2.650  -2.380  -0.285  0.00  0.00    +0.046 A 
BRANCH  15  21
ATOM     21  O   LIG    1       -1.164  -0.522  -0.336  0.00  0.00    -0.492 OA
BRANCH  21  23
ATOM     22  C   LIG    1        0.212   1.464  -0.402  0.00  0.00    +0.048 C 
ATOM     23  C   LIG    1        0.189  -0.063  -0.295  0.00  0.00    +0.225 C 
ENDBRANCH  21  23
ENDBRANCH  15  21
ENDBRANCH   1  18
BRANCH   1  24
ATOM     24  N   LIG    1       -3.056  -6.360   0.975  0.00  0.00    -0.332 N 
ATOM     25  H   LIG    1       -3.743  -5.695   1.140  0.00  0.00    +0.147 HD
BRANCH  24  26
ATOM     26  C   LIG    1       -3.086  -7.580   1.655  0.00  0.00    +0.046 A 
ATOM     27  C   LIG    1       -4.023  -7.805   2.662  0.00  0.00    +0.026 A 
ATOM     28  C   LIG    1       -4.014  -9.030   3.307  0.00  0.00    +0.021 A 
ATOM     29  C   LIG    1       -3.083  -9.983   2.934  0.00  0.00    +0.111 A 
ATOM     30  N   LIG    1       -2.210  -9.739   1.977  0.00  0.00    -0.261 NA
ATOM     31  C   LIG    1       -2.187  -8.589   1.334  0.00  0.00    +0.133 A 
ENDBRANCH  24  26
ENDBRANCH   1  24
TORSDOF 7
