REMARK  Name = ZINC01061342
REMARK                            x       y       z     vdW  Elec       q    Type
REMARK                         _______ _______ _______ _____ _____    ______ ____
ROOT
ATOM      1  C   LIG    1       -0.000   1.355  -0.331  0.00  0.00    +0.013 A 
ATOM      2  C   LIG    1        1.181   2.067  -0.315  0.00  0.00    +0.028 A 
ATOM      3  C   LIG    1        2.362   1.445   0.052  0.00  0.00    +0.094 A 
ATOM      4  C   LIG    1        2.366   0.107   0.406  0.00  0.00    +0.028 A 
ATOM      5  C   LIG    1        1.192  -0.616   0.395  0.00  0.00    +0.013 A 
ATOM      6  C   LIG    1       -0.003   0.005   0.025  0.00  0.00    +0.022 A 
ENDROOT
BRANCH   3   7
ATOM      7  S   LIG    1        3.867   2.361   0.068  0.00  0.00    +0.025 S 
ATOM      8  O   LIG    1        3.689   3.450  -0.828  0.00  0.00    -0.164 OA
ATOM      9  O   LIG    1        4.919   1.417  -0.079  0.00  0.00    -0.164 OA
BRANCH   7  10
ATOM     10  C   LIG    1        4.036   3.057   1.678  0.00  0.00    +0.094 A 
ATOM     11  C   LIG    1        3.507   4.304   1.952  0.00  0.00    +0.029 A 
ATOM     12  C   LIG    1        3.639   4.850   3.214  0.00  0.00    +0.022 A 
ATOM     13  C   LIG    1        4.302   4.147   4.205  0.00  0.00    +0.041 A 
ATOM     14 CL   LIG    1        4.469   4.832   5.792  0.00  0.00    -0.084 Cl
ATOM     15  C   LIG    1        4.832   2.899   3.931  0.00  0.00    +0.022 A 
ATOM     16  C   LIG    1        4.694   2.352   2.669  0.00  0.00    +0.029 A 
ENDBRANCH   7  10
ENDBRANCH   3   7
BRANCH   6  17
ATOM     17  C   LIG    1       -1.265  -0.764   0.011  0.00  0.00    +0.193 C 
ATOM     18  O   LIG    1       -2.277  -0.263  -0.440  0.00  0.00    -0.287 OA
BRANCH  17  19
ATOM     19  C   LIG    1       -1.298  -2.140   0.544  0.00  0.00    +0.022 A 
ATOM     20  C   LIG    1       -0.494  -2.490   1.632  0.00  0.00    +0.013 A 
ATOM     21  C   LIG    1       -0.528  -3.777   2.125  0.00  0.00    +0.021 A 
ATOM     22  C   LIG    1       -1.358  -4.723   1.544  0.00  0.00    +0.041 A 
ATOM     23 CL   LIG    1       -1.395  -6.341   2.171  0.00  0.00    -0.084 Cl
ATOM     24  C   LIG    1       -2.157  -4.382   0.465  0.00  0.00    +0.021 A 
ATOM     25  C   LIG    1       -2.136  -3.097  -0.033  0.00  0.00    +0.013 A 
ENDBRANCH  17  19
ENDBRANCH   6  17
TORSDOF 4
