REMARK  Name = ZINC00871068
REMARK                            x       y       z     vdW  Elec       q    Type
REMARK                         _______ _______ _______ _____ _____    ______ ____
ROOT
ATOM      1  C   LIG    1       -6.348   2.205   0.368  0.00  0.00    +0.242 C 
ATOM      2  N   LIG    1       -6.862   1.921  -0.845  0.00  0.00    -0.206 N 
ATOM      3  H   LIG    1       -6.281   1.613  -1.558  0.00  0.00    +0.177 HD
ATOM      4  O   LIG    1       -7.074   2.591   1.260  0.00  0.00    -0.273 OA
ENDROOT
BRANCH   2   5
ATOM      5  N   LIG    1       -8.236   2.072  -1.075  0.00  0.00    -0.188 NA
ATOM      6  C   LIG    1       -8.731   1.798  -2.244  0.00  0.00    +0.138 C 
BRANCH   6   7
ATOM      7  C   LIG    1      -10.177   1.956  -2.486  0.00  0.00    -0.002 A 
ATOM      8  C   LIG    1      -11.016   2.395  -1.459  0.00  0.00    +0.013 A 
ATOM      9  C   LIG    1      -12.367   2.547  -1.690  0.00  0.00    +0.050 A 
ATOM     10  C   LIG    1      -12.898   2.256  -2.938  0.00  0.00    +0.162 A 
ATOM     11  C   LIG    1      -12.068   1.813  -3.966  0.00  0.00    +0.162 A 
ATOM     12  C   LIG    1      -10.712   1.663  -3.743  0.00  0.00    +0.059 A 
BRANCH  10  13
ATOM     13  O   LIG    1      -14.231   2.403  -3.159  0.00  0.00    -0.491 OA
ATOM     14  C   LIG    1      -15.023   2.862  -2.062  0.00  0.00    +0.277 C 
ENDBRANCH  10  13
BRANCH  11  15
ATOM     15  O   LIG    1      -12.592   1.528  -5.188  0.00  0.00    -0.491 OA
ATOM     16  C   LIG    1      -11.683   1.078  -6.195  0.00  0.00    +0.277 C 
ENDBRANCH  11  15
ENDBRANCH   6   7
ENDBRANCH   2   5
BRANCH   1  17
ATOM     17  C   LIG    1       -4.870   2.044   0.617  0.00  0.00    +0.171 C 
BRANCH  17  18
ATOM     18  S   LIG    1       -4.492   2.499   2.327  0.00  0.00    -0.115 S 
BRANCH  18  22
ATOM     19  C   LIG    1       -0.013   1.086   0.008  0.00  0.00    +0.065 C 
ATOM     20  C   LIG    1       -0.718   1.572   1.248  0.00  0.00    +0.040 A 
ATOM     21  C   LIG    1       -2.089   1.784   1.204  0.00  0.00    +0.038 A 
ATOM     22  C   LIG    1       -2.752   2.225   2.340  0.00  0.00    +0.019 A 
ATOM     23  C   LIG    1       -1.984   2.454   3.508  0.00  0.00    +0.014 A 
ATOM     24  C   LIG    1       -2.578   2.906   4.694  0.00  0.00    +0.011 A 
ATOM     25  C   LIG    1       -1.806   3.116   5.797  0.00  0.00    +0.001 A 
ATOM     26  C   LIG    1       -0.433   2.886   5.760  0.00  0.00    +0.002 A 
ATOM     27  C   LIG    1        0.175   2.447   4.624  0.00  0.00    +0.028 A 
ATOM     28  C   LIG    1       -0.590   2.220   3.467  0.00  0.00    +0.072 A 
ATOM     29  N   LIG    1       -0.017   1.788   2.337  0.00  0.00    -0.252 NA
ENDBRANCH  18  22
ENDBRANCH  17  18
ENDBRANCH   1  17
TORSDOF 7
