REMARK  Name = ZINC00752408
REMARK                            x       y       z     vdW  Elec       q    Type
REMARK                         _______ _______ _______ _____ _____    ______ ____
ROOT
ATOM      1  C   LIG    1        1.073   3.752  -0.013  0.00  0.00    +0.101 C 
ATOM      2  C   LIG    1        2.377   4.364   0.419  0.00  0.00    +0.098 C 
ATOM      3  C   LIG    1        3.518   3.632   0.398  0.00  0.00    +0.198 C 
ATOM      4  O   LIG    1        3.521   2.354  -0.010  0.00  0.00    -0.445 OA
ATOM      5  C   LIG    1        2.378   1.642   0.011  0.00  0.00    +0.115 C 
ATOM      6  C   LIG    1        2.483   0.135   0.042  0.00  0.00    +0.083 C 
ATOM      7  C   LIG    1        1.286  -0.478  -0.688  0.00  0.00    +0.034 C 
ATOM      8  C   LIG    1        0.002  -0.004   0.002  0.00  0.00    +0.088 C 
ATOM      9  C   LIG    1       -0.018   1.500   0.010  0.00  0.00    +0.164 C 
ATOM     10  O   LIG    1       -1.085   2.082   0.018  0.00  0.00    -0.292 OA
ATOM     11  C   LIG    1        1.176   2.246   0.003  0.00  0.00    +0.046 C 
ENDROOT
BRANCH   1  15
ATOM     12  C   LIG    1        0.137   5.068  -3.971  0.00  0.00    +0.008 A 
ATOM     13  C   LIG    1       -0.724   5.357  -2.918  0.00  0.00    +0.015 A 
ATOM     14  C   LIG    1       -0.418   4.930  -1.641  0.00  0.00    +0.005 A 
ATOM     15  C   LIG    1        0.743   4.216  -1.409  0.00  0.00    -0.034 A 
ATOM     16  C   LIG    1        1.604   3.930  -2.452  0.00  0.00    +0.005 A 
ATOM     17  C   LIG    1        1.302   4.349  -3.733  0.00  0.00    +0.015 A 
BRANCH  12  19
ATOM     18  C   LIG    1        1.137   5.008  -6.604  0.00  0.00    +0.090 C 
ATOM     19  S   LIG    1       -0.249   5.610  -5.602  0.00  0.00    -0.129 S 
ENDBRANCH  12  19
ENDBRANCH   1  15
BRANCH   7  20
ATOM     20  C   LIG    1        1.369  -1.982  -0.623  0.00  0.00    -0.043 A 
ATOM     21  C   LIG    1        1.402  -2.620   0.602  0.00  0.00    +0.004 A 
ATOM     22  C   LIG    1        1.474  -4.000   0.661  0.00  0.00    +0.000 A 
ATOM     23  C   LIG    1        1.524  -4.740  -0.505  0.00  0.00    +0.000 A 
ATOM     24  C   LIG    1        1.496  -4.101  -1.731  0.00  0.00    +0.000 A 
ATOM     25  C   LIG    1        1.419  -2.722  -1.790  0.00  0.00    +0.004 A 
ENDBRANCH   7  20
BRANCH   3  26
ATOM     26  N   LIG    1        4.695   4.212   0.801  0.00  0.00    -0.328 N 
ATOM     27  H   LIG    1        5.518   3.698   0.789  0.00  0.00    +0.145 HD
ATOM     28  H   LIG    1        4.704   5.136   1.097  0.00  0.00    +0.145 HD
ENDBRANCH   3  26
BRANCH   2  29
ATOM     29  C   LIG    1        2.413   5.726   0.857  0.00  0.00    +0.101 C 
ATOM     30  N   LIG    1        2.442   6.808   1.204  0.00  0.00    -0.191 NA
ENDBRANCH   2  29
TORSDOF 5
