REMARK  Name = ZINC01292350
REMARK                            x       y       z     vdW  Elec       q    Type
REMARK                         _______ _______ _______ _____ _____    ______ ____
ROOT
ATOM      1  N   LIG    1        2.057   0.659  -0.014  0.00  0.00    -0.270 N 
ATOM      2  C   LIG    1        1.212   1.747  -0.000  0.00  0.00    +0.169 A 
ATOM      3  N   LIG    1       -0.015   1.281   0.009  0.00  0.00    -0.128 NA
ATOM      4  N   LIG    1        0.002  -0.004   0.002  0.00  0.00    -0.122 NA
ATOM      5  C   LIG    1        1.242  -0.440  -0.012  0.00  0.00    +0.197 A 
ENDROOT
BRANCH   2   6
ATOM      6  C   LIG    1        1.611   3.170   0.003  0.00  0.00    +0.020 A 
ATOM      7  C   LIG    1        2.922   3.531  -0.315  0.00  0.00    +0.013 A 
ATOM      8  C   LIG    1        3.287   4.861  -0.315  0.00  0.00    +0.021 A 
ATOM      9  C   LIG    1        2.360   5.837   0.010  0.00  0.00    +0.041 A 
ATOM     10 CL   LIG    1        2.829   7.508   0.015  0.00  0.00    -0.084 Cl
ATOM     11  C   LIG    1        1.060   5.485   0.331  0.00  0.00    +0.021 A 
ATOM     12  C   LIG    1        0.681   4.158   0.330  0.00  0.00    +0.013 A 
ENDBRANCH   2   6
BRANCH   1  16
ATOM     13  C   LIG    1        6.225   0.706  -0.052  0.00  0.00    +0.000 A 
ATOM     14  C   LIG    1        5.531   0.198  -1.135  0.00  0.00    +0.002 A 
ATOM     15  C   LIG    1        4.150   0.181  -1.125  0.00  0.00    +0.026 A 
ATOM     16  C   LIG    1        3.459   0.675  -0.027  0.00  0.00    +0.051 A 
ATOM     17  C   LIG    1        4.159   1.189   1.056  0.00  0.00    +0.026 A 
ATOM     18  C   LIG    1        5.540   1.198   1.043  0.00  0.00    +0.002 A 
ENDBRANCH   1  16
BRANCH   5  19
ATOM     19  S   LIG    1        1.758  -2.124  -0.027  0.00  0.00    -0.078 S 
BRANCH  19  20
ATOM     20  C   LIG    1        0.146  -2.947  -0.016  0.00  0.00    +0.157 C 
BRANCH  20  21
ATOM     21  C   LIG    1        0.344  -4.441  -0.027  0.00  0.00    +0.173 C 
ATOM     22  O   LIG    1        1.465  -4.904  -0.040  0.00  0.00    -0.291 OA
BRANCH  21  23
ATOM     23  C   LIG    1       -0.820  -5.336  -0.021  0.00  0.00    +0.022 A 
ATOM     24  C   LIG    1       -2.115  -4.804   0.001  0.00  0.00    +0.015 A 
ATOM     25  C   LIG    1       -3.204  -5.646  -0.000  0.00  0.00    +0.050 A 
ATOM     26  C   LIG    1       -3.023  -7.023  -0.009  0.00  0.00    +0.158 A 
ATOM     27  C   LIG    1       -1.736  -7.561  -0.025  0.00  0.00    +0.159 A 
ATOM     28  C   LIG    1       -0.638  -6.725  -0.030  0.00  0.00    +0.060 A 
BRANCH  26  29
ATOM     29  O   LIG    1       -4.101  -7.848  -0.004  0.00  0.00    -0.503 OA
ATOM     30  H   LIG    1       -4.405  -8.092   0.881  0.00  0.00    +0.292 HD
ENDBRANCH  26  29
BRANCH  27  31
ATOM     31  O   LIG    1       -1.563  -8.910  -0.034  0.00  0.00    -0.503 OA
ATOM     32  H   LIG    1       -1.505  -9.305   0.846  0.00  0.00    +0.292 HD
ENDBRANCH  27  31
ENDBRANCH  21  23
ENDBRANCH  20  21
ENDBRANCH  19  20
ENDBRANCH   5  19
TORSDOF 8
