REMARK  Name = ZINC00813579
REMARK                            x       y       z     vdW  Elec       q    Type
REMARK                         _______ _______ _______ _____ _____    ______ ____
ROOT
ATOM      1  C   LIG    1       -2.008  -6.081  -0.013  0.00  0.00    +0.144 C 
ATOM      2  C   LIG    1       -2.554  -6.350  -1.396  0.00  0.00    +0.066 C 
ATOM      3  C   LIG    1       -3.890  -6.540  -1.258  0.00  0.00    +0.188 C 
ATOM      4  C   LIG    1       -4.254  -6.407   0.170  0.00  0.00    +0.282 C 
ATOM      5  O   LIG    1       -5.377  -6.523   0.617  0.00  0.00    -0.267 OA
ATOM      6  N   LIG    1       -3.155  -6.139   0.901  0.00  0.00    -0.283 N 
ENDROOT
BRANCH   1  10
ATOM      7  C   LIG    1       -0.211  -2.207   0.130  0.00  0.00    +0.121 A 
ATOM      8  C   LIG    1        0.576  -3.342   0.250  0.00  0.00    +0.046 A 
ATOM      9  C   LIG    1       -0.007  -4.594   0.204  0.00  0.00    +0.009 A 
ATOM     10  C   LIG    1       -1.375  -4.715   0.038  0.00  0.00    -0.022 A 
ATOM     11  C   LIG    1       -2.162  -3.584  -0.083  0.00  0.00    +0.009 A 
ATOM     12  C   LIG    1       -1.584  -2.330  -0.031  0.00  0.00    +0.046 A 
BRANCH   7  13
ATOM     13  O   LIG    1        0.360  -0.974   0.175  0.00  0.00    -0.492 OA
BRANCH  13  15
ATOM     14  C   LIG    1        2.236   0.537   0.371  0.00  0.00    +0.048 C 
ATOM     15  C   LIG    1        1.778  -0.923   0.343  0.00  0.00    +0.225 C 
ENDBRANCH  13  15
ENDBRANCH   7  13
ENDBRANCH   1  10
BRANCH   2  16
ATOM     16  C   LIG    1       -1.815  -6.394  -2.601  0.00  0.00    +0.162 C 
ATOM     17  C   LIG    1       -2.489  -6.811  -3.884  0.00  0.00    +0.091 C 
ATOM     18  O   LIG    1       -0.638  -6.097  -2.603  0.00  0.00    -0.292 OA
ENDBRANCH   2  16
BRANCH   3  19
ATOM     19  O   LIG    1       -4.751  -6.806  -2.265  0.00  0.00    -0.502 OA
ATOM     20  H   LIG    1       -4.437  -6.874  -3.145  0.00  0.00    +0.292 HD
ENDBRANCH   3  19
BRANCH   6  21
ATOM     21  C   LIG    1       -3.111  -5.942   2.352  0.00  0.00    +0.114 C 
BRANCH  21  22
ATOM     22  C   LIG    1       -3.316  -4.459   2.671  0.00  0.00    +0.056 C 
BRANCH  22  23
ATOM     23  C   LIG    1       -3.271  -4.256   4.163  0.00  0.00    -0.021 A 
ATOM     24  C   LIG    1       -4.323  -4.220   4.996  0.00  0.00    +0.087 A 
ATOM     25  N   LIG    1       -3.895  -4.017   6.280  0.00  0.00    -0.360 N 
ATOM     26  C   LIG    1       -2.522  -3.914   6.305  0.00  0.00    +0.047 A 
ATOM     27  C   LIG    1       -1.595  -3.711   7.322  0.00  0.00    +0.026 A 
ATOM     28  C   LIG    1       -0.251  -3.670   7.024  0.00  0.00    +0.002 A 
ATOM     29  C   LIG    1        0.189  -3.816   5.716  0.00  0.00    +0.001 A 
ATOM     30  C   LIG    1       -0.704  -4.012   4.701  0.00  0.00    +0.010 A 
ATOM     31  H   LIG    1       -4.473  -3.954   7.057  0.00  0.00    +0.165 HD
ATOM     32  C   LIG    1       -2.071  -4.066   4.981  0.00  0.00    +0.003 A 
ENDBRANCH  22  23
ENDBRANCH  21  22
ENDBRANCH   6  21
TORSDOF 8
