REMARK  Name = ZINC00973805
REMARK                            x       y       z     vdW  Elec       q    Type
REMARK                         _______ _______ _______ _____ _____    ______ ____
ROOT
ATOM      1  C   LIG    1        0.088  -4.239  -0.025  0.00  0.00    +0.008 C 
ATOM      2  C   LIG    1       -1.068  -4.939   0.083  0.00  0.00    +0.002 C 
ENDROOT
BRANCH   2   3
ATOM      3  C   LIG    1       -1.042  -6.346   0.074  0.00  0.00    +0.020 C 
ATOM      4  C   LIG    1       -2.206  -7.051   0.184  0.00  0.00    +0.076 C 
ATOM      5  C   LIG    1       -2.423  -8.508   0.199  0.00  0.00    +0.256 C 
ATOM      6  N   LIG    1       -3.673  -8.922   0.319  0.00  0.00    -0.270 N 
ATOM      7  H   LIG    1       -3.859  -9.874   0.332  0.00  0.00    +0.156 HD
ATOM      8  C   LIG    1       -4.697  -8.049   0.422  0.00  0.00    +0.118 C 
ATOM      9  S   LIG    1       -6.368  -8.383   0.583  0.00  0.00    -0.027 S 
ATOM     10  O   LIG    1       -1.497  -9.293   0.105  0.00  0.00    -0.269 OA
ATOM     11  S   LIG    1       -3.884  -6.460   0.357  0.00  0.00    -0.061 S 
ENDBRANCH   2   3
BRANCH   1  15
ATOM     12  C   LIG    1        0.009  -0.004   0.001  0.00  0.00    +0.029 A 
ATOM     13  C   LIG    1       -1.179  -0.721   0.118  0.00  0.00    +0.023 A 
ATOM     14  C   LIG    1       -1.159  -2.092   0.105  0.00  0.00    +0.010 A 
ATOM     15  C   LIG    1        0.061  -2.771  -0.016  0.00  0.00    -0.025 A 
ATOM     16  C   LIG    1        1.254  -2.045  -0.129  0.00  0.00    +0.010 A 
ATOM     17  C   LIG    1        1.223  -0.675  -0.120  0.00  0.00    +0.023 A 
BRANCH  12  19
ATOM     18  C   LIG    1        1.238   2.144   0.020  0.00  0.00    +0.129 C 
ATOM     19  N   LIG    1       -0.017   1.388   0.010  0.00  0.00    -0.336 N 
ATOM     20  C   LIG    1       -1.299   2.097   0.003  0.00  0.00    +0.129 C 
ENDBRANCH  12  19
ENDBRANCH   1  15
TORSDOF 3
