REMARK  Name = ZINC00968264
REMARK                            x       y       z     vdW  Elec       q    Type
REMARK                         _______ _______ _______ _____ _____    ______ ____
ROOT
ATOM      1  C   LIG    1       -0.018   1.465   0.010  0.00  0.00    -0.096 C 
ATOM      2  N   LIG    1        0.002  -0.004   0.002  0.00  0.00    +0.378 N 
ATOM      3  H   LIG    1       -0.945  -0.351   0.014  0.00  0.00    -0.082 HD
ATOM      4  C   LIG    1        0.674  -0.475  -1.215  0.00  0.00    -0.075 C 
ATOM      5  C   LIG    1        0.545  -1.999  -1.313  0.00  0.00    +0.013 C 
ATOM      6  C   LIG    1        1.075  -2.602  -0.029  0.00  0.00    -0.065 C 
ATOM      7  C   LIG    1        0.586  -2.013   1.278  0.00  0.00    +0.013 C 
ATOM      8  C   LIG    1        1.946  -3.622  -0.048  0.00  0.00    -0.011 C 
ATOM      9  C   LIG    1        2.425  -4.189  -1.330  0.00  0.00    -0.010 A 
ATOM     10  C   LIG    1        3.079  -3.377  -2.251  0.00  0.00    +0.009 A 
ATOM     11  C   LIG    1        3.567  -3.918  -3.424  0.00  0.00    +0.001 A 
ATOM     12  C   LIG    1        3.413  -5.270  -3.686  0.00  0.00    +0.001 A 
ATOM     13  C   LIG    1        2.752  -6.086  -2.795  0.00  0.00    +0.008 A 
ATOM     14  C   LIG    1        2.226  -5.554  -1.611  0.00  0.00    -0.017 A 
ATOM     15  C   LIG    1        1.446  -6.407  -0.720  0.00  0.00    +0.009 C 
ATOM     16  C   LIG    1        1.456  -6.416   0.597  0.00  0.00    +0.009 C 
ATOM     17  C   LIG    1        2.254  -5.575   1.486  0.00  0.00    -0.017 A 
ATOM     18  C   LIG    1        2.819  -6.128   2.642  0.00  0.00    +0.008 A 
ATOM     19  C   LIG    1        3.535  -5.318   3.516  0.00  0.00    +0.001 A 
ATOM     20  C   LIG    1        3.687  -3.964   3.261  0.00  0.00    +0.001 A 
ATOM     21  C   LIG    1        3.156  -3.408   2.115  0.00  0.00    +0.009 A 
ATOM     22  C   LIG    1        2.460  -4.207   1.211  0.00  0.00    -0.010 A 
ATOM     23  C   LIG    1        0.712  -0.487   1.192  0.00  0.00    -0.075 C 
ENDROOT
TORSDOF 0
