REMARK  Name = ZINC01249069
REMARK                            x       y       z     vdW  Elec       q    Type
REMARK                         _______ _______ _______ _____ _____    ______ ____
ROOT
ATOM      1  C   LIG    1        3.697  -0.687  -0.037  0.00  0.00    +0.075 C 
ATOM      2  N   LIG    1        4.769   0.017  -0.139  0.00  0.00    -0.273 NA
ATOM      3  C   LIG    1        6.096  -0.596  -0.170  0.00  0.00    +0.238 C 
ATOM      4  C   LIG    1        6.208  -1.451  -1.403  0.00  0.00    +0.239 C 
ATOM      5  N   LIG    1        5.431  -2.516  -1.588  0.00  0.00    -0.283 N 
ATOM      6  H   LIG    1        5.527  -3.000  -2.423  0.00  0.00    +0.155 HD
ATOM      7  C   LIG    1        4.494  -2.988  -0.680  0.00  0.00    +0.043 A 
ATOM      8  C   LIG    1        4.398  -4.372  -0.520  0.00  0.00    +0.025 A 
ATOM      9  C   LIG    1        3.489  -4.914   0.376  0.00  0.00    +0.022 A 
ATOM     10  C   LIG    1        2.659  -4.085   1.114  0.00  0.00    +0.042 A 
ATOM     11 CL   LIG    1        1.516  -4.769   2.227  0.00  0.00    -0.084 Cl
ATOM     12  C   LIG    1        2.741  -2.719   0.965  0.00  0.00    +0.032 A 
ATOM     13  O   LIG    1        7.027  -1.164  -2.249  0.00  0.00    -0.273 OA
ATOM     14  C   LIG    1        3.662  -2.154   0.069  0.00  0.00    +0.023 A 
ENDROOT
BRANCH   1  18
ATOM     15  C   LIG    1       -0.017   1.379   0.010  0.00  0.00    +0.000 A 
ATOM     16  C   LIG    1        1.141   2.035   0.389  0.00  0.00    +0.001 A 
ATOM     17  C   LIG    1        2.350   1.369   0.376  0.00  0.00    +0.010 A 
ATOM     18  C   LIG    1        2.403   0.033  -0.021  0.00  0.00    +0.001 A 
ATOM     19  C   LIG    1        1.232  -0.622  -0.402  0.00  0.00    +0.010 A 
ATOM     20  C   LIG    1        0.029   0.054  -0.385  0.00  0.00    +0.001 A 
ENDBRANCH   1  18
TORSDOF 1
