REMARK  Name = ZINC01212495
REMARK                            x       y       z     vdW  Elec       q    Type
REMARK                         _______ _______ _______ _____ _____    ______ ____
ROOT
ATOM      1  C   LIG    1       -1.228   7.535   2.015  0.00  0.00    +0.248 C 
ATOM      2  N   LIG    1       -0.185   8.217   2.527  0.00  0.00    -0.281 N 
ATOM      3  H   LIG    1        0.595   7.739   2.849  0.00  0.00    +0.155 HD
ATOM      4  O   LIG    1       -2.244   8.125   1.698  0.00  0.00    -0.270 OA
ENDROOT
BRANCH   2   5
ATOM      5  C   LIG    1       -0.228   9.614   2.596  0.00  0.00    +0.034 A 
ATOM      6  C   LIG    1       -0.895  10.338   1.615  0.00  0.00    +0.025 A 
ATOM      7  C   LIG    1       -0.945  11.717   1.680  0.00  0.00    +0.022 A 
ATOM      8  C   LIG    1       -0.323  12.386   2.716  0.00  0.00    +0.052 A 
ATOM      9 CL   LIG    1       -0.382  14.120   2.789  0.00  0.00    -0.083 Cl
ATOM     10  C   LIG    1        0.355  11.668   3.704  0.00  0.00    +0.037 A 
ATOM     11  C   LIG    1        0.400  10.276   3.640  0.00  0.00    +0.036 A 
BRANCH  10  12
ATOM     12  C   LIG    1        1.022  12.382   4.814  0.00  0.00    +0.141 A 
ATOM     13  N   LIG    1        1.809  11.794   5.767  0.00  0.00    -0.338 N 
ATOM     14  C   LIG    1        2.239  12.795   6.616  0.00  0.00    +0.066 A 
ATOM     15  C   LIG    1        3.044  12.820   7.747  0.00  0.00    +0.028 A 
ATOM     16  C   LIG    1        3.289  14.018   8.385  0.00  0.00    +0.002 A 
ATOM     17  C   LIG    1        2.736  15.197   7.905  0.00  0.00    +0.002 A 
ATOM     18  C   LIG    1        1.941  15.192   6.794  0.00  0.00    +0.030 A 
ATOM     19  C   LIG    1        1.679  13.989   6.130  0.00  0.00    +0.089 A 
ATOM     20  H   LIG    1        2.031  10.821   5.836  0.00  0.00    +0.167 HD
ATOM     21  N   LIG    1        0.954  13.672   5.029  0.00  0.00    -0.228 NA
ENDBRANCH  10  12
ENDBRANCH   2   5
BRANCH   1  24
ATOM     22  C   LIG    1        0.107   4.024   2.037  0.00  0.00    +0.166 A 
ATOM     23  C   LIG    1        0.027   5.394   2.200  0.00  0.00    +0.062 A 
ATOM     24  C   LIG    1       -1.139   6.073   1.837  0.00  0.00    +0.044 A 
ATOM     25  C   LIG    1       -2.220   5.365   1.306  0.00  0.00    +0.062 A 
ATOM     26  C   LIG    1       -2.133   3.995   1.140  0.00  0.00    +0.166 A 
ATOM     27  C   LIG    1       -0.970   3.321   1.502  0.00  0.00    +0.204 A 
BRANCH  22  28
ATOM     28  O   LIG    1        1.240   3.362   2.395  0.00  0.00    -0.488 OA
BRANCH  28  30
ATOM     29  C   LIG    1        3.486   3.233   3.278  0.00  0.00    +0.048 C 
ATOM     30  C   LIG    1        2.305   4.145   2.937  0.00  0.00    +0.226 C 
ENDBRANCH  28  30
ENDBRANCH  22  28
BRANCH  26  31
ATOM     31  O   LIG    1       -3.185   3.305   0.623  0.00  0.00    -0.488 OA
BRANCH  31  32
ATOM     32  C   LIG    1       -4.347   4.060   0.274  0.00  0.00    +0.226 C 
ATOM     33  C   LIG    1       -5.416   3.120  -0.287  0.00  0.00    +0.048 C 
ENDBRANCH  31  32
ENDBRANCH  26  31
BRANCH  27  34
ATOM     34  O   LIG    1       -0.887   1.975   1.339  0.00  0.00    -0.485 OA
BRANCH  34  35
ATOM     35  C   LIG    1       -0.383   1.503   0.087  0.00  0.00    +0.226 C 
ATOM     36  C   LIG    1       -0.364  -0.027   0.089  0.00  0.00    +0.048 C 
ENDBRANCH  34  35
ENDBRANCH  27  34
ENDBRANCH   1  24
TORSDOF 9
