REMARK  Name = ZINC00896711
REMARK                            x       y       z     vdW  Elec       q    Type
REMARK                         _______ _______ _______ _____ _____    ______ ____
ROOT
ATOM      1  C   LIG    1       -1.244  -2.135   0.003  0.00  0.00    +0.114 C 
ENDROOT
BRANCH   1   2
ATOM      2  C   LIG    1       -0.531  -2.680   1.242  0.00  0.00    -0.054 C 
ATOM      3  C   LIG    1       -0.592  -4.209   1.235  0.00  0.00    -0.015 C 
ATOM      4  C   LIG    1        0.122  -4.749   2.477  0.00  0.00    -0.003 C 
ATOM      5  C   LIG    1        1.561  -4.225   2.494  0.00  0.00    -0.019 C 
ATOM      6  C   LIG    1        1.542  -2.696   2.455  0.00  0.00    -0.082 C 
ATOM      7  N   LIG    1        0.870  -2.243   1.231  0.00  0.00    +0.382 N 
ATOM      8  H   LIG    1        0.907  -1.236   1.182  0.00  0.00    -0.085 HD
ATOM      9  H   LIG    1        1.337  -2.634   0.427  0.00  0.00    -0.085 HD
ENDBRANCH   1   2
BRANCH   1  10
ATOM     10  C   LIG    1       -2.683  -2.582   0.014  0.00  0.00    -0.035 A 
ATOM     11  C   LIG    1       -3.512  -2.217   1.058  0.00  0.00    +0.004 A 
ATOM     12  C   LIG    1       -4.832  -2.627   1.068  0.00  0.00    +0.000 A 
ATOM     13  C   LIG    1       -5.324  -3.402   0.034  0.00  0.00    +0.000 A 
ATOM     14  C   LIG    1       -4.495  -3.767  -1.010  0.00  0.00    +0.000 A 
ATOM     15  C   LIG    1       -3.176  -3.353  -1.022  0.00  0.00    +0.004 A 
ENDBRANCH   1  10
BRANCH   1  16
ATOM     16  C   LIG    1       -1.185  -0.630   0.010  0.00  0.00    +0.313 C 
ATOM     17  O   LIG    1       -2.208   0.015   0.023  0.00  0.00    -0.250 OA
BRANCH  16  19
ATOM     18  C   LIG    1       -0.017   1.425   0.010  0.00  0.00    +0.280 C 
ATOM     19  O   LIG    1        0.002  -0.004   0.002  0.00  0.00    -0.468 OA
ENDBRANCH  16  19
ENDBRANCH   1  16
TORSDOF 4
