REMARK  Name = ZINC01039775
REMARK                            x       y       z     vdW  Elec       q    Type
REMARK                         _______ _______ _______ _____ _____    ______ ____
ROOT
ATOM      1  C   LIG    1       -2.413   5.235  -0.446  0.00  0.00    +0.190 C 
ENDROOT
BRANCH   1   2
ATOM      2  N   LIG    1       -2.453   3.851   0.034  0.00  0.00    -0.262 N 
ATOM      3  C   LIG    1       -3.704   3.332   0.354  0.00  0.00    +0.051 A 
ATOM      4  C   LIG    1       -4.845   3.913  -0.188  0.00  0.00    +0.037 A 
ATOM      5  C   LIG    1       -6.095   3.415   0.123  0.00  0.00    +0.057 A 
ATOM      6  C   LIG    1       -6.226   2.335   0.976  0.00  0.00    +0.013 A 
ATOM      7  C   LIG    1       -5.100   1.746   1.522  0.00  0.00    +0.017 A 
ATOM      8  C   LIG    1       -3.845   2.244   1.216  0.00  0.00    +0.030 A 
ATOM      9  S   LIG    1       -2.399   1.491   1.893  0.00  0.00    -0.114 S 
ATOM     10  C   LIG    1       -1.153   1.793   0.603  0.00  0.00    +0.170 C 
ATOM     11  C   LIG    1       -1.289   3.212   0.122  0.00  0.00    +0.230 C 
ATOM     12  O   LIG    1       -0.283   3.805  -0.205  0.00  0.00    -0.274 OA
BRANCH   5  13
ATOM     13  C   LIG    1       -7.324   4.053  -0.472  0.00  0.00    +0.417 C 
ATOM     14  F   LIG    1       -7.263   3.972  -1.867  0.00  0.00    -0.166 F 
ATOM     15  F   LIG    1       -7.386   5.396  -0.085  0.00  0.00    -0.166 F 
ATOM     16  F   LIG    1       -8.464   3.382  -0.015  0.00  0.00    -0.166 F 
ENDBRANCH   5  13
ENDBRANCH   1   2
BRANCH   1  19
ATOM     17  C   LIG    1       -0.090   5.118  -2.563  0.00  0.00    +0.152 C 
ATOM     18  N   LIG    1       -1.524   5.199  -2.852  0.00  0.00    -0.308 N 
ATOM     19  C   LIG    1       -2.547   5.251  -1.946  0.00  0.00    +0.152 A 
ATOM     20  N   LIG    1       -3.659   5.322  -2.622  0.00  0.00    -0.132 NA
ATOM     21  N   LIG    1       -3.411   5.314  -3.883  0.00  0.00    -0.122 NA
ATOM     22  C   LIG    1       -2.116   5.237  -4.082  0.00  0.00    +0.192 A 
BRANCH  22  23
ATOM     23  S   LIG    1       -1.296   5.196  -5.641  0.00  0.00    -0.081 S 
BRANCH  23  24
ATOM     24  C   LIG    1       -2.724   5.289  -6.749  0.00  0.00    +0.112 C 
BRANCH  24  25
ATOM     25  C   LIG    1       -2.252   5.269  -8.180  0.00  0.00    -0.037 A 
ATOM     26  C   LIG    1       -1.968   6.455  -8.831  0.00  0.00    +0.006 A 
ATOM     27  C   LIG    1       -1.529   6.436 -10.142  0.00  0.00    +0.020 A 
ATOM     28  C   LIG    1       -1.384   5.231 -10.806  0.00  0.00    +0.041 A 
ATOM     29 CL   LIG    1       -0.840   5.208 -12.454  0.00  0.00    -0.084 Cl
ATOM     30  C   LIG    1       -1.674   4.045 -10.155  0.00  0.00    +0.020 A 
ATOM     31  C   LIG    1       -2.107   4.064  -8.843  0.00  0.00    +0.006 A 
ENDBRANCH  24  25
ENDBRANCH  23  24
ENDBRANCH  22  23
ENDBRANCH   1  19
TORSDOF 6
