REMARK  Name = ZINC00901286
REMARK                            x       y       z     vdW  Elec       q    Type
REMARK                         _______ _______ _______ _____ _____    ______ ____
ROOT
ATOM      1  C   LIG    1       -1.328   1.812   0.018  0.00  0.00    +0.202 C 
ENDROOT
BRANCH   1   2
ATOM      2  O   LIG    1       -1.086   3.220   0.025  0.00  0.00    -0.382 OA
ATOM      3  H   LIG    1       -0.587   3.537  -0.741  0.00  0.00    +0.210 HD
ENDBRANCH   1   2
BRANCH   1   4
ATOM      4  C   LIG    1       -0.013   1.076   0.008  0.00  0.00    +0.256 C 
ATOM      5  O   LIG    1        1.025   1.694   0.001  0.00  0.00    -0.298 OA
ENDBRANCH   1   4
BRANCH   1   6
ATOM      6  C   LIG    1       -2.131   1.438  -1.229  0.00  0.00    +0.194 C 
BRANCH   6   7
ATOM      7  O   LIG    1       -3.424   2.043  -1.163  0.00  0.00    -0.392 OA
ATOM      8  H   LIG    1       -3.989   1.849  -1.923  0.00  0.00    +0.210 HD
ENDBRANCH   6   7
ENDBRANCH   1   6
TORSDOF 4
