REMARK  Name = ZINC00869160
REMARK                            x       y       z     vdW  Elec       q    Type
REMARK                         _______ _______ _______ _____ _____    ______ ____
ROOT
ATOM      1  C   LIG    1        3.160  -2.820   7.548  0.00  0.00    +0.028 C 
ATOM      2  C   LIG    1        3.281  -1.300   7.423  0.00  0.00    +0.081 C 
ATOM      3  C   LIG    1        4.758  -0.902   7.393  0.00  0.00    +0.050 C 
ATOM      4  C   LIG    1        5.447  -1.637   6.243  0.00  0.00    +0.115 C 
ATOM      5  C   LIG    1        4.683  -1.444   4.960  0.00  0.00    -0.005 A 
ATOM      6  C   LIG    1        5.333  -1.649   3.755  0.00  0.00    +0.007 A 
ATOM      7  C   LIG    1        4.657  -1.489   2.561  0.00  0.00    +0.000 A 
ATOM      8  C   LIG    1        3.323  -1.123   2.562  0.00  0.00    +0.002 A 
ATOM      9  C   LIG    1        2.667  -0.916   3.759  0.00  0.00    +0.024 A 
ATOM     10  C   LIG    1        3.347  -1.074   4.962  0.00  0.00    +0.042 A 
ATOM     11  N   LIG    1        2.664  -0.854   6.165  0.00  0.00    -0.264 N 
ATOM     12  C   LIG    1        1.465  -0.239   6.170  0.00  0.00    +0.251 C 
ATOM     13  O   LIG    1        0.937   0.071   5.120  0.00  0.00    -0.270 OA
ENDROOT
BRANCH  12  14
ATOM     14  C   LIG    1        0.794   0.058   7.450  0.00  0.00    +0.037 A 
ATOM     15  C   LIG    1       -0.030   1.180   7.566  0.00  0.00    +0.016 A 
ATOM     16  C   LIG    1       -0.655   1.454   8.762  0.00  0.00    +0.046 A 
ATOM     17  C   LIG    1       -0.467   0.615   9.854  0.00  0.00    +0.120 A 
ATOM     18  C   LIG    1        0.357  -0.499   9.746  0.00  0.00    +0.046 A 
ATOM     19  C   LIG    1        0.981  -0.783   8.551  0.00  0.00    +0.016 A 
BRANCH  17  20
ATOM     20  O   LIG    1       -1.084   0.888  11.031  0.00  0.00    -0.495 OA
ATOM     21  C   LIG    1       -0.847  -0.015  12.113  0.00  0.00    +0.277 C 
ENDBRANCH  17  20
ENDBRANCH  12  14
BRANCH   4  22
ATOM     22  N   LIG    1        6.805  -1.111   6.080  0.00  0.00    -0.264 N 
ATOM     23  C   LIG    1        6.997   0.204   5.856  0.00  0.00    +0.217 C 
ATOM     24  C   LIG    1        8.394   0.765   5.808  0.00  0.00    +0.109 C 
ATOM     25  O   LIG    1        6.043   0.936   5.692  0.00  0.00    -0.276 OA
BRANCH  22  26
ATOM     26  C   LIG    1        7.904  -1.975   6.157  0.00  0.00    +0.037 A 
ATOM     27  C   LIG    1        8.793  -2.066   5.094  0.00  0.00    +0.023 A 
ATOM     28  C   LIG    1        9.878  -2.916   5.175  0.00  0.00    +0.002 A 
ATOM     29  C   LIG    1       10.075  -3.682   6.309  0.00  0.00    +0.000 A 
ATOM     30  C   LIG    1        9.189  -3.598   7.367  0.00  0.00    +0.002 A 
ATOM     31  C   LIG    1        8.104  -2.746   7.294  0.00  0.00    +0.023 A 
ENDBRANCH  22  26
ENDBRANCH   4  22
TORSDOF 4
