REMARK  Name = ZINC00896698
REMARK                            x       y       z     vdW  Elec       q    Type
REMARK                         _______ _______ _______ _____ _____    ______ ____
ROOT
ATOM      1  C   LIG    1        2.159  -0.053  -1.157  0.00  0.00    +0.034 C 
ENDROOT
BRANCH   1   2
ATOM      2  C   LIG    1        2.977  -0.542  -2.354  0.00  0.00    +0.071 C 
ATOM      3  C   LIG    1        4.454  -0.212  -2.132  0.00  0.00    +0.035 C 
ATOM      4  C   LIG    1        5.271  -0.700  -3.329  0.00  0.00    +0.003 C 
ATOM      5  C   LIG    1        4.779  -0.006  -4.601  0.00  0.00    +0.000 C 
ATOM      6  C   LIG    1        3.302  -0.336  -4.823  0.00  0.00    +0.003 C 
ATOM      7  C   LIG    1        2.484   0.152  -3.626  0.00  0.00    +0.035 C 
BRANCH   2   8
ATOM      8  O   LIG    1        2.820  -1.956  -2.493  0.00  0.00    -0.388 OA
ATOM      9  H   LIG    1        3.312  -2.335  -3.234  0.00  0.00    +0.210 HD
ENDBRANCH   2   8
ENDBRANCH   1   2
BRANCH   1  10
ATOM     10  C   LIG    1        2.732  -0.630   0.112  0.00  0.00    -0.043 A 
ATOM     11  C   LIG    1        2.685  -1.994   0.333  0.00  0.00    +0.007 A 
ATOM     12  C   LIG    1        3.209  -2.525   1.496  0.00  0.00    +0.046 A 
ATOM     13  C   LIG    1        3.784  -1.688   2.441  0.00  0.00    +0.120 A 
ATOM     14  C   LIG    1        3.831  -0.320   2.217  0.00  0.00    +0.046 A 
ATOM     15  C   LIG    1        3.309   0.205   1.050  0.00  0.00    +0.007 A 
BRANCH  13  16
ATOM     16  O   LIG    1        4.300  -2.208   3.586  0.00  0.00    -0.495 OA
ATOM     17  C   LIG    1        4.876  -1.288   4.514  0.00  0.00    +0.277 C 
ENDBRANCH  13  16
ENDBRANCH   1  10
BRANCH   1  18
ATOM     18  C   LIG    1        0.706  -0.507  -1.313  0.00  0.00    -0.069 C 
BRANCH  18  20
ATOM     19  C   LIG    1       -0.137   1.525  -0.356  0.00  0.00    -0.097 C 
ATOM     20  N   LIG    1       -0.104   0.062  -0.227  0.00  0.00    +0.376 N 
ATOM     21  H   LIG    1        0.303  -0.188   0.662  0.00  0.00    -0.083 HD
ATOM     22  C   LIG    1       -1.471  -0.468  -0.306  0.00  0.00    -0.097 C 
ENDBRANCH  18  20
ENDBRANCH   1  18
TORSDOF 6
