REMARK  Name = ZINC00781682
REMARK                            x       y       z     vdW  Elec       q    Type
REMARK                         _______ _______ _______ _____ _____    ______ ____
ROOT
ATOM      1  C   LIG    1        5.607   7.016   3.853  0.00  0.00    +0.061 C 
ATOM      2  C   LIG    1        4.941   7.017   2.501  0.00  0.00    +0.016 C 
ATOM      3  C   LIG    1        5.548   7.611   1.458  0.00  0.00    +0.066 C 
ATOM      4  C   LIG    1        4.912   7.638   0.100  0.00  0.00    +0.099 C 
ATOM      5  C   LIG    1        3.822   6.601  -0.008  0.00  0.00    +0.024 C 
ATOM      6  C   LIG    1        3.280   6.053   1.100  0.00  0.00    +0.016 C 
ATOM      7  C   LIG    1        2.178   5.028   1.000  0.00  0.00    +0.060 C 
ATOM      8  C   LIG    1        2.342   4.221  -0.290  0.00  0.00    +0.039 C 
ATOM      9  C   LIG    1        2.312   5.189  -1.477  0.00  0.00    +0.088 C 
ATOM     10  C   LIG    1        3.387   6.225  -1.291  0.00  0.00    +0.162 C 
ATOM     11  O   LIG    1        3.888   6.746  -2.268  0.00  0.00    -0.292 OA
ATOM     12  N   LIG    1        3.724   6.415   2.343  0.00  0.00    -0.321 N 
ATOM     13  H   LIG    1        3.090   6.218   3.220  0.00  0.00    +0.152 HD
ENDROOT
BRANCH   4  14
ATOM     14  C   LIG    1        4.321   9.003  -0.142  0.00  0.00    +0.002 A 
ATOM     15  C   LIG    1        4.630   9.909  -1.102  0.00  0.00    +0.012 A 
ATOM     16  C   LIG    1        3.948  11.111  -1.132  0.00  0.00    +0.008 A 
ATOM     17  C   LIG    1        2.992  11.349  -0.202  0.00  0.00    +0.045 A 
ATOM     18  S   LIG    1        3.027   9.843   0.757  0.00  0.00    -0.101 S 
ENDBRANCH   4  14
BRANCH   8  19
ATOM     19  C   LIG    1        1.212   3.231  -0.415  0.00  0.00    -0.006 A 
ATOM     20  C   LIG    1        1.266   1.879  -0.490  0.00  0.00    +0.011 A 
ATOM     21  C   LIG    1        0.087   1.166  -0.603  0.00  0.00    +0.008 A 
ATOM     22  C   LIG    1       -1.088   1.841  -0.640  0.00  0.00    +0.045 A 
ATOM     23  S   LIG    1       -0.545   3.536  -0.503  0.00  0.00    -0.101 S 
ENDBRANCH   8  19
BRANCH   3  24
ATOM     24  C   LIG    1        6.810   8.221   1.646  0.00  0.00    +0.338 C 
ATOM     25  O   LIG    1        7.288   8.299   2.762  0.00  0.00    -0.245 OA
BRANCH  24  26
ATOM     26  O   LIG    1        7.484   8.716   0.587  0.00  0.00    -0.457 OA
BRANCH  26  27
ATOM     27  C   LIG    1        8.753   9.318   0.849  0.00  0.00    +0.268 C 
BRANCH  27  28
ATOM     28  C   LIG    1        9.353   9.809  -0.443  0.00  0.00    -0.010 A 
ATOM     29  C   LIG    1       10.168   8.976  -1.187  0.00  0.00    +0.010 A 
ATOM     30  C   LIG    1       10.714   9.422  -2.375  0.00  0.00    +0.046 A 
ATOM     31  C   LIG    1       10.454  10.712  -2.816  0.00  0.00    +0.120 A 
ATOM     32  C   LIG    1        9.640  11.548  -2.064  0.00  0.00    +0.046 A 
ATOM     33  C   LIG    1        9.092  11.095  -0.880  0.00  0.00    +0.010 A 
BRANCH  31  34
ATOM     34  O   LIG    1       10.994  11.155  -3.981  0.00  0.00    -0.495 OA
ATOM     35  C   LIG    1       11.822  10.239  -4.702  0.00  0.00    +0.277 C 
ENDBRANCH  31  34
ENDBRANCH  27  28
ENDBRANCH  26  27
ENDBRANCH  24  26
ENDBRANCH   3  24
TORSDOF 7
