REMARK  Name = ZINC00752213
REMARK                            x       y       z     vdW  Elec       q    Type
REMARK                         _______ _______ _______ _____ _____    ______ ____
ROOT
ATOM      1  N   LIG    1       -0.144  -0.004   0.010  0.00  0.00    -0.217 N 
ATOM      2  C   LIG    1        0.106  -0.683   1.149  0.00  0.00    +0.262 C 
ATOM      3  C   LIG    1       -0.169  -2.130   1.172  0.00  0.00    +0.100 C 
ATOM      4  C   LIG    1       -0.701  -2.732  -0.064  0.00  0.00    +0.255 C 
ATOM      5  N   LIG    1       -0.902  -1.929  -1.129  0.00  0.00    -0.263 N 
ATOM      6  H   LIG    1       -1.252  -2.309  -1.950  0.00  0.00    +0.157 HD
ATOM      7  O   LIG    1       -0.952  -3.921  -0.122  0.00  0.00    -0.270 OA
ATOM      8  C   LIG    1        0.063  -2.894   2.308  0.00  0.00    +0.028 C 
ATOM      9  O   LIG    1        0.546  -0.115   2.131  0.00  0.00    -0.269 OA
ATOM     10  C   LIG    1       -0.634  -0.616  -1.077  0.00  0.00    +0.150 C 
ATOM     11  S   LIG    1       -0.927   0.327  -2.475  0.00  0.00    -0.018 S 
ENDROOT
BRANCH   8  12
ATOM     12  C   LIG    1       -0.025  -4.300   2.242  0.00  0.00    +0.001 A 
ATOM     13  C   LIG    1        0.507  -5.122   1.264  0.00  0.00    +0.091 A 
ATOM     14  N   LIG    1        0.214  -6.404   1.546  0.00  0.00    -0.360 N 
ATOM     15  C   LIG    1       -0.518  -6.495   2.713  0.00  0.00    +0.047 A 
ATOM     16  C   LIG    1       -1.053  -7.569   3.416  0.00  0.00    +0.026 A 
ATOM     17  C   LIG    1       -1.756  -7.348   4.581  0.00  0.00    +0.002 A 
ATOM     18  C   LIG    1       -1.938  -6.060   5.063  0.00  0.00    +0.001 A 
ATOM     19  C   LIG    1       -1.415  -4.983   4.380  0.00  0.00    +0.010 A 
ATOM     20  H   LIG    1        0.482  -7.163   1.004  0.00  0.00    +0.165 HD
ATOM     21  C   LIG    1       -0.698  -5.193   3.207  0.00  0.00    +0.007 A 
ENDBRANCH   8  12
BRANCH   1  28
ATOM     22  C   LIG    1       -2.243   1.775   0.739  0.00  0.00    +0.045 C 
ATOM     23  C   LIG    1       -0.887   2.275   0.312  0.00  0.00    -0.029 A 
ATOM     24  C   LIG    1       -0.632   3.632   0.271  0.00  0.00    +0.005 A 
ATOM     25  C   LIG    1        0.610   4.093  -0.126  0.00  0.00    +0.000 A 
ATOM     26  C   LIG    1        1.602   3.196  -0.478  0.00  0.00    +0.002 A 
ATOM     27  C   LIG    1        1.355   1.838  -0.434  0.00  0.00    +0.024 A 
ATOM     28  C   LIG    1        0.109   1.373  -0.035  0.00  0.00    +0.046 A 
ENDBRANCH   1  28
TORSDOF 2
