REMARK  Name = ZINC00944284
REMARK                            x       y       z     vdW  Elec       q    Type
REMARK                         _______ _______ _______ _____ _____    ______ ____
ROOT
ATOM      1  C   LIG    1        2.352   3.933   0.171  0.00  0.00    +0.135 A 
ATOM      2  C   LIG    1        1.151   3.180   0.169  0.00  0.00    +0.040 A 
ATOM      3  C   LIG    1        1.147   1.793  -0.016  0.00  0.00    +0.013 A 
ATOM      4  C   LIG    1       -0.038   1.118  -0.008  0.00  0.00    +0.001 A 
ATOM      5  C   LIG    1       -1.243   1.790   0.177  0.00  0.00    +0.002 A 
ATOM      6  C   LIG    1       -1.273   3.140   0.366  0.00  0.00    +0.028 A 
ATOM      7  C   LIG    1       -0.073   3.865   0.363  0.00  0.00    +0.077 A 
ATOM      8  N   LIG    1       -0.048   5.193   0.539  0.00  0.00    -0.227 NA
ATOM      9  C   LIG    1        1.098   5.847   0.532  0.00  0.00    +0.162 A 
ATOM     10  N   LIG    1        2.271   5.243   0.353  0.00  0.00    -0.212 NA
ENDROOT
BRANCH   9  11
ATOM     11  C   LIG    1        1.079   7.317   0.731  0.00  0.00    +0.019 A 
ATOM     12  C   LIG    1        2.272   8.037   0.735  0.00  0.00    +0.011 A 
ATOM     13  C   LIG    1        2.248   9.405   0.916  0.00  0.00    +0.001 A 
ATOM     14  C   LIG    1        1.044  10.060   1.105  0.00  0.00    +0.000 A 
ATOM     15  C   LIG    1       -0.142   9.349   1.107  0.00  0.00    +0.001 A 
ATOM     16  C   LIG    1       -0.131   7.981   0.922  0.00  0.00    +0.011 A 
ENDBRANCH   9  11
BRANCH   1  17
ATOM     17  N   LIG    1        3.574   3.319  -0.013  0.00  0.00    -0.299 N 
ATOM     18  H   LIG    1        3.627   2.352  -0.065  0.00  0.00    +0.154 HD
BRANCH  17  22
ATOM     19  C   LIG    1        7.030   5.615  -0.347  0.00  0.00    +0.059 A 
ATOM     20  C   LIG    1        7.082   4.354   0.256  0.00  0.00    +0.017 A 
ATOM     21  C   LIG    1        5.938   3.598   0.365  0.00  0.00    +0.024 A 
ATOM     22  C   LIG    1        4.730   4.087  -0.125  0.00  0.00    +0.032 A 
ATOM     23  C   LIG    1        4.676   5.339  -0.731  0.00  0.00    +0.024 A 
ATOM     24  C   LIG    1        5.815   6.103  -0.837  0.00  0.00    +0.017 A 
BRANCH  19  25
ATOM     25  C   LIG    1        8.254   6.429  -0.465  0.00  0.00    +0.339 C 
ATOM     26  O   LIG    1        9.310   6.004  -0.037  0.00  0.00    -0.245 OA
BRANCH  25  28
ATOM     27  C   LIG    1        9.446   8.388  -1.127  0.00  0.00    +0.280 C 
ATOM     28  O   LIG    1        8.203   7.643  -1.046  0.00  0.00    -0.464 OA
ENDBRANCH  25  28
ENDBRANCH  19  25
ENDBRANCH  17  22
ENDBRANCH   1  17
TORSDOF 5
