REMARK  Name = ZINC00985584
REMARK                            x       y       z     vdW  Elec       q    Type
REMARK                         _______ _______ _______ _____ _____    ______ ____
ROOT
ATOM      1  C   LIG    1        0.061  -4.256  -0.021  0.00  0.00    +0.100 A 
ATOM      2  C   LIG    1        0.720  -5.075   0.900  0.00  0.00    +0.054 A 
ATOM      3  C   LIG    1        0.494  -6.374   0.548  0.00  0.00    +0.223 A 
ATOM      4  O   LIG    1        0.999  -7.421   1.249  0.00  0.00    -0.423 OA
ATOM      5  C   LIG    1        1.510  -7.166   2.470  0.00  0.00    +0.200 C 
ATOM      6  C   LIG    1        1.788  -5.925   2.926  0.00  0.00    +0.098 C 
ATOM      7  N   LIG    1       -0.279  -6.372  -0.557  0.00  0.00    -0.246 N 
ATOM      8  H   LIG    1       -0.599  -7.155  -1.031  0.00  0.00    +0.192 HD
ATOM      9  C   LIG    1        1.553  -4.688   2.095  0.00  0.00    +0.102 C 
ATOM     10  N   LIG    1       -0.546  -5.036  -0.896  0.00  0.00    -0.171 NA
ENDROOT
BRANCH   1  15
ATOM     11  C   LIG    1       -0.018   1.503   0.010  0.00  0.00    +0.044 C 
ATOM     12  C   LIG    1        0.002  -0.004   0.002  0.00  0.00    -0.050 A 
ATOM     13  C   LIG    1        0.006  -0.686  -1.201  0.00  0.00    +0.004 A 
ATOM     14  C   LIG    1        0.025  -2.067  -1.214  0.00  0.00    +0.010 A 
ATOM     15  C   LIG    1        0.041  -2.772  -0.013  0.00  0.00    +0.003 A 
ATOM     16  C   LIG    1        0.037  -2.080   1.196  0.00  0.00    +0.010 A 
ATOM     17  C   LIG    1        0.023  -0.700   1.198  0.00  0.00    +0.004 A 
ENDBRANCH   1  15
BRANCH   9  18
ATOM     18  C   LIG    1        2.873  -4.126   1.633  0.00  0.00    -0.034 A 
ATOM     19  C   LIG    1        3.724  -4.903   0.869  0.00  0.00    +0.006 A 
ATOM     20  C   LIG    1        4.935  -4.392   0.444  0.00  0.00    +0.023 A 
ATOM     21  C   LIG    1        5.298  -3.095   0.787  0.00  0.00    +0.029 A 
ATOM     22  C   LIG    1        4.441  -2.318   1.555  0.00  0.00    +0.023 A 
ATOM     23  C   LIG    1        3.229  -2.833   1.972  0.00  0.00    +0.006 A 
BRANCH  21  24
ATOM     24  N   LIG    1        6.522  -2.575   0.360  0.00  0.00    -0.336 N 
ATOM     25  C   LIG    1        6.903  -1.208   0.722  0.00  0.00    +0.129 C 
ATOM     26  C   LIG    1        7.424  -3.397  -0.450  0.00  0.00    +0.129 C 
ENDBRANCH  21  24
ENDBRANCH   9  18
BRANCH   5  27
ATOM     27  N   LIG    1        1.763  -8.231   3.300  0.00  0.00    -0.328 N 
ATOM     28  H   LIG    1        2.130  -8.079   4.185  0.00  0.00    +0.145 HD
ATOM     29  H   LIG    1        1.573  -9.134   3.001  0.00  0.00    +0.145 HD
ENDBRANCH   5  27
BRANCH   6  30
ATOM     30  C   LIG    1        2.325  -5.777   4.245  0.00  0.00    +0.101 C 
ATOM     31  N   LIG    1        2.750  -5.661   5.292  0.00  0.00    -0.191 NA
ENDBRANCH   6  30
TORSDOF 5
