REMARK  Name = ZINC00730736
REMARK                            x       y       z     vdW  Elec       q    Type
REMARK                         _______ _______ _______ _____ _____    ______ ____
ROOT
ATOM      1  C   LIG    1        0.002  -0.004   0.002  0.00  0.00    +0.013 A 
ATOM      2  C   LIG    1       -0.016   1.361   0.009  0.00  0.00    +0.023 A 
ATOM      3  C   LIG    1        1.179   2.076   0.002  0.00  0.00    +0.025 A 
ATOM      4  C   LIG    1        2.398   1.402  -0.013  0.00  0.00    +0.023 A 
ATOM      5  C   LIG    1        2.426   0.037  -0.021  0.00  0.00    +0.013 A 
ATOM      6  C   LIG    1        1.226  -0.686  -0.013  0.00  0.00    +0.019 A 
ENDROOT
BRANCH   3   7
ATOM      7  N   LIG    1        1.156   3.465   0.010  0.00  0.00    -0.358 N 
ATOM      8  H   LIG    1        1.987   3.964   0.004  0.00  0.00    +0.142 HD
ATOM      9  H   LIG    1        0.308   3.936   0.020  0.00  0.00    +0.142 HD
ENDBRANCH   3   7
BRANCH   6  10
ATOM     10  C   LIG    1        1.251  -2.153  -0.021  0.00  0.00    +0.183 C 
ATOM     11  O   LIG    1        0.211  -2.777  -0.014  0.00  0.00    -0.290 OA
BRANCH  10  12
ATOM     12  C   LIG    1        2.568  -2.885  -0.038  0.00  0.00    +0.202 C 
BRANCH  12  13
ATOM     13  N   LIG    1        2.325  -4.329  -0.043  0.00  0.00    -0.329 N 
ATOM     14  C   LIG    1        2.179  -5.125  -1.147  0.00  0.00    +0.107 A 
ATOM     15  C   LIG    1        1.973  -6.378  -0.700  0.00  0.00    +0.130 A 
ATOM     16  N   LIG    1        1.992  -6.349   0.641  0.00  0.00    -0.244 NA
ATOM     17  C   LIG    1        2.208  -5.126   1.042  0.00  0.00    +0.199 A 
ENDBRANCH  12  13
ENDBRANCH  10  12
ENDBRANCH   6  10
TORSDOF 4
