REMARK  Name = ZINC01249069
REMARK                            x       y       z     vdW  Elec       q    Type
REMARK                         _______ _______ _______ _____ _____    ______ ____
ROOT
ATOM      1  C   LIG    1        3.697  -0.687  -0.037  0.00  0.00    +0.075 C 
ATOM      2  N   LIG    1        4.776   0.013  -0.139  0.00  0.00    -0.273 NA
ATOM      3  C   LIG    1        6.093  -0.621  -0.181  0.00  0.00    +0.237 C 
ATOM      4  C   LIG    1        6.173  -1.487  -1.407  0.00  0.00    +0.210 C 
ATOM      5  N   LIG    1        5.432  -2.519  -1.570  0.00  0.00    -0.215 NA
ATOM      6  C   LIG    1        4.519  -2.986  -0.676  0.00  0.00    +0.077 A 
ATOM      7  C   LIG    1        4.437  -4.376  -0.504  0.00  0.00    +0.030 A 
ATOM      8  C   LIG    1        3.527  -4.918   0.388  0.00  0.00    +0.022 A 
ATOM      9  C   LIG    1        2.679  -4.093   1.110  0.00  0.00    +0.042 A 
ATOM     10 CL   LIG    1        1.530  -4.783   2.212  0.00  0.00    -0.084 Cl
ATOM     11  C   LIG    1        2.747  -2.726   0.955  0.00  0.00    +0.032 A 
ATOM     12  C   LIG    1        3.670  -2.154   0.068  0.00  0.00    +0.027 A 
ENDROOT
BRANCH   1  16
ATOM     13  C   LIG    1       -0.017   1.379   0.011  0.00  0.00    +0.000 A 
ATOM     14  C   LIG    1        0.029   0.053  -0.382  0.00  0.00    +0.001 A 
ATOM     15  C   LIG    1        1.232  -0.623  -0.400  0.00  0.00    +0.010 A 
ATOM     16  C   LIG    1        2.403   0.033  -0.021  0.00  0.00    +0.001 A 
ATOM     17  C   LIG    1        2.350   1.370   0.375  0.00  0.00    +0.010 A 
ATOM     18  C   LIG    1        1.141   2.035   0.389  0.00  0.00    +0.001 A 
ENDBRANCH   1  16
BRANCH   4  19
ATOM     19  O   LIG    1        7.058  -1.165  -2.372  0.00  0.00    -0.494 OA
ATOM     20  H   LIG    1        7.051  -1.767  -3.129  0.00  0.00    +0.293 HD
ENDBRANCH   4  19
TORSDOF 2
