REMARK  Name = ZINC01208717
REMARK                            x       y       z     vdW  Elec       q    Type
REMARK                         _______ _______ _______ _____ _____    ______ ____
ROOT
ATOM      1  C   LIG    1       -0.875   1.795   3.583  0.00  0.00    +0.034 A 
ATOM      2  C   LIG    1       -2.015   2.575   3.420  0.00  0.00    +0.024 A 
ATOM      3  C   LIG    1       -2.646   3.114   4.519  0.00  0.00    +0.015 A 
ATOM      4  C   LIG    1       -2.133   2.884   5.798  0.00  0.00    +0.037 A 
ATOM      5  C   LIG    1       -0.985   2.105   5.958  0.00  0.00    +0.015 A 
ATOM      6  C   LIG    1       -0.362   1.565   4.854  0.00  0.00    +0.024 A 
ENDROOT
BRANCH   4   7
ATOM      7  C   LIG    1       -2.804   3.464   6.980  0.00  0.00    +0.228 A 
ATOM      8  N   LIG    1       -2.411   3.307   8.219  0.00  0.00    -0.209 NA
ATOM      9  C   LIG    1       -3.261   3.981   9.035  0.00  0.00    +0.111 A 
ATOM     10  C   LIG    1       -3.329   4.162  10.419  0.00  0.00    +0.051 A 
ATOM     11  C   LIG    1       -4.345   4.919  10.960  0.00  0.00    +0.043 A 
ATOM     12 CL   LIG    1       -4.431   5.145  12.679  0.00  0.00    -0.083 Cl
ATOM     13  C   LIG    1       -5.301   5.501  10.138  0.00  0.00    +0.024 A 
ATOM     14  C   LIG    1       -5.246   5.330   8.770  0.00  0.00    +0.050 A 
ATOM     15  C   LIG    1       -4.230   4.572   8.209  0.00  0.00    +0.156 A 
ATOM     16  O   LIG    1       -3.912   4.228   6.941  0.00  0.00    -0.435 OA
ENDBRANCH   4   7
BRANCH   1  18
ATOM     17  C   LIG    1       -0.970   0.861   1.399  0.00  0.00    +0.255 C 
ATOM     18  N   LIG    1       -0.242   1.246   2.466  0.00  0.00    -0.283 N 
ATOM     19  H   LIG    1        0.723   1.142   2.458  0.00  0.00    +0.155 HD
ATOM     20  O   LIG    1       -2.181   0.902   1.445  0.00  0.00    -0.272 OA
BRANCH  17  21
ATOM     21  C   LIG    1       -0.279   0.380   0.149  0.00  0.00    +0.324 C 
BRANCH  21  22
ATOM     22  O   LIG    1       -1.258   0.032  -0.833  0.00  0.00    -0.483 OA
BRANCH  22  26
ATOM     23  C   LIG    1        0.137  -1.352  -4.460  0.00  0.00    +0.000 A 
ATOM     24  C   LIG    1       -1.224  -1.243  -4.240  0.00  0.00    +0.004 A 
ATOM     25  C   LIG    1       -1.693  -0.779  -3.026  0.00  0.00    +0.045 A 
ATOM     26  C   LIG    1       -0.798  -0.424  -2.027  0.00  0.00    +0.121 A 
ATOM     27  C   LIG    1        0.567  -0.529  -2.253  0.00  0.00    +0.045 A 
ATOM     28  C   LIG    1        1.031  -0.998  -3.466  0.00  0.00    +0.004 A 
ENDBRANCH  22  26
ENDBRANCH  21  22
ENDBRANCH  17  21
ENDBRANCH   1  18
TORSDOF 5
