REMARK  Name = ZINC01040623
REMARK                            x       y       z     vdW  Elec       q    Type
REMARK                         _______ _______ _______ _____ _____    ______ ____
ROOT
ATOM      1  N   LIG    1        3.579  -3.769  -6.261  0.00  0.00    -0.216 N 
ATOM      2  H   LIG    1        3.073  -3.894  -7.096  0.00  0.00    +0.174 HD
ENDROOT
BRANCH   1   6
ATOM      3  C   LIG    1        1.586  -2.744  -2.752  0.00  0.00    +0.088 A 
ATOM      4  C   LIG    1        0.874  -2.920  -3.924  0.00  0.00    +0.029 A 
ATOM      5  C   LIG    1        1.531  -3.259  -5.090  0.00  0.00    +0.026 A 
ATOM      6  C   LIG    1        2.910  -3.425  -5.084  0.00  0.00    +0.048 A 
ATOM      7  C   LIG    1        3.623  -3.248  -3.905  0.00  0.00    +0.026 A 
ATOM      8  C   LIG    1        2.960  -2.903  -2.744  0.00  0.00    +0.029 A 
BRANCH   3   9
ATOM      9  S   LIG    1        0.743  -2.311  -1.267  0.00  0.00    -0.003 S 
ATOM     10  O   LIG    1       -0.574  -2.818  -1.437  0.00  0.00    -0.169 OA
ATOM     11  O   LIG    1        1.576  -2.795  -0.222  0.00  0.00    -0.169 OA
BRANCH   9  12
ATOM     12  C   LIG    1        0.718  -0.497  -1.257  0.00  0.00    +0.171 C 
BRANCH  12  14
ATOM     13  C   LIG    1       -0.019   1.526   0.010  0.00  0.00    +0.005 C 
ATOM     14  C   LIG    1        0.002  -0.004   0.002  0.00  0.00    +0.020 C 
ENDBRANCH  12  14
ENDBRANCH   9  12
ENDBRANCH   3   9
ENDBRANCH   1   6
BRANCH   1  15
ATOM     15  S   LIG    1        5.223  -3.966  -6.253  0.00  0.00    +0.079 S 
ATOM     16  O   LIG    1        5.492  -5.103  -5.443  0.00  0.00    -0.149 OA
ATOM     17  O   LIG    1        5.784  -2.689  -5.982  0.00  0.00    -0.149 OA
BRANCH  15  18
ATOM     18  C   LIG    1        5.706  -4.391  -7.893  0.00  0.00    +0.150 A 
ATOM     19  C   LIG    1        6.938  -4.649  -8.355  0.00  0.00    -0.009 A 
ATOM     20  C   LIG    1        8.125  -4.593  -7.429  0.00  0.00    +0.047 C 
ATOM     21  C   LIG    1        7.116  -4.983  -9.761  0.00  0.00    -0.005 A 
ATOM     22  C   LIG    1        8.312  -5.287 -10.454  0.00  0.00    +0.029 A 
ATOM     23  C   LIG    1        8.291  -5.579 -11.782  0.00  0.00    +0.042 A 
ATOM     24 CL   LIG    1        9.780  -5.946 -12.594  0.00  0.00    -0.084 Cl
ATOM     25  C   LIG    1        7.103  -5.589 -12.504  0.00  0.00    +0.021 A 
ATOM     26  C   LIG    1        5.916  -5.298 -11.863  0.00  0.00    +0.017 A 
ATOM     27  C   LIG    1        5.925  -5.001 -10.517  0.00  0.00    +0.022 A 
ATOM     28  S   LIG    1        4.671  -4.588  -9.332  0.00  0.00    -0.068 S 
ENDBRANCH  15  18
ENDBRANCH   1  15
TORSDOF 6
