REMARK  Name = ZINC01033024
REMARK                            x       y       z     vdW  Elec       q    Type
REMARK                         _______ _______ _______ _____ _____    ______ ____
ROOT
ATOM      1  C   LIG    1        1.268  -2.088   0.129  0.00  0.00    +0.044 C 
ATOM      2  C   LIG    1        1.227  -0.582   0.098  0.00  0.00    -0.050 A 
ATOM      3  C   LIG    1        2.404   0.137  -0.045  0.00  0.00    +0.005 A 
ATOM      4  C   LIG    1        2.381   1.516  -0.075  0.00  0.00    +0.024 A 
ATOM      5  C   LIG    1        1.174   2.195   0.037  0.00  0.00    +0.046 A 
ATOM      6  C   LIG    1       -0.019   1.470   0.181  0.00  0.00    +0.058 A 
ATOM      7  C   LIG    1        0.021   0.074   0.210  0.00  0.00    +0.018 A 
ENDROOT
BRANCH   5   8
ATOM      8  N   LIG    1        1.148   3.586   0.005  0.00  0.00    -0.280 N 
ATOM      9  H   LIG    1        0.505   4.071   0.546  0.00  0.00    +0.155 HD
ATOM     10  C   LIG    1        2.017   4.258  -0.775  0.00  0.00    +0.256 C 
ATOM     11  O   LIG    1        2.758   3.651  -1.525  0.00  0.00    -0.269 OA
BRANCH  10  12
ATOM     12  C   LIG    1        2.069   5.724  -0.721  0.00  0.00    +0.094 A 
ATOM     13  C   LIG    1        2.873   6.571  -1.421  0.00  0.00    +0.068 A 
ATOM     14 CL   LIG    1        4.026   5.938  -2.554  0.00  0.00    -0.082 Cl
ATOM     15  C   LIG    1        2.765   7.961  -1.226  0.00  0.00    +0.008 A 
ATOM     16  C   LIG    1        3.504   8.995  -1.857  0.00  0.00    +0.010 A 
ATOM     17  C   LIG    1        3.278  10.298  -1.547  0.00  0.00    +0.001 A 
ATOM     18  C   LIG    1        2.322  10.668  -0.608  0.00  0.00    +0.001 A 
ATOM     19  C   LIG    1        1.581   9.694   0.028  0.00  0.00    +0.016 A 
ATOM     20  C   LIG    1        1.800   8.367  -0.276  0.00  0.00    +0.021 A 
ATOM     21  S   LIG    1        1.099   6.835   0.284  0.00  0.00    -0.082 S 
ENDBRANCH  10  12
ENDBRANCH   5   8
BRANCH   6  22
ATOM     22  C   LIG    1       -1.308   2.178   0.295  0.00  0.00    +0.250 C 
ATOM     23  N   LIG    1       -2.460   1.480   0.326  0.00  0.00    -0.281 N 
ATOM     24  H   LIG    1       -2.447   0.518   0.205  0.00  0.00    +0.155 HD
ATOM     25  O   LIG    1       -1.330   3.393   0.360  0.00  0.00    -0.270 OA
BRANCH  23  26
ATOM     26  C   LIG    1       -3.675   2.143   0.533  0.00  0.00    +0.034 A 
ATOM     27  C   LIG    1       -4.689   1.528   1.256  0.00  0.00    +0.026 A 
ATOM     28  C   LIG    1       -5.885   2.186   1.464  0.00  0.00    +0.040 A 
ATOM     29  C   LIG    1       -6.077   3.455   0.942  0.00  0.00    +0.124 A 
ATOM     30  F   LIG    1       -7.250   4.095   1.142  0.00  0.00    -0.205 F 
ATOM     31  C   LIG    1       -5.070   4.068   0.217  0.00  0.00    +0.040 A 
ATOM     32  C   LIG    1       -3.870   3.415   0.012  0.00  0.00    +0.026 A 
ENDBRANCH  23  26
ENDBRANCH   6  22
TORSDOF 4
