REMARK  Name = ZINC01276363
REMARK                            x       y       z     vdW  Elec       q    Type
REMARK                         _______ _______ _______ _____ _____    ______ ____
ROOT
ATOM      1  C   LIG    1        1.212   1.747  -0.000  0.00  0.00    +0.169 A 
ATOM      2  N   LIG    1       -0.015   1.281   0.009  0.00  0.00    -0.128 NA
ATOM      3  N   LIG    1        0.002  -0.004   0.002  0.00  0.00    -0.122 NA
ATOM      4  C   LIG    1        1.242  -0.440  -0.012  0.00  0.00    +0.197 A 
ATOM      5  N   LIG    1        2.057   0.659  -0.014  0.00  0.00    -0.270 N 
ENDROOT
BRANCH   1  10
ATOM      6  C   LIG    1        2.768   7.287   0.016  0.00  0.00    +0.044 C 
ATOM      7  C   LIG    1        2.361   5.836   0.012  0.00  0.00    -0.050 A 
ATOM      8  C   LIG    1        1.062   5.484   0.333  0.00  0.00    +0.004 A 
ATOM      9  C   LIG    1        0.682   4.158   0.331  0.00  0.00    +0.012 A 
ATOM     10  C   LIG    1        1.612   3.170   0.004  0.00  0.00    +0.020 A 
ATOM     11  C   LIG    1        2.922   3.531  -0.314  0.00  0.00    +0.012 A 
ATOM     12  C   LIG    1        3.288   4.861  -0.313  0.00  0.00    +0.004 A 
ENDBRANCH   1  10
BRANCH   5  13
ATOM     13  C   LIG    1        3.460   0.674  -0.027  0.00  0.00    +0.051 A 
ATOM     14  C   LIG    1        4.159   1.190   1.056  0.00  0.00    +0.030 A 
ATOM     15  C   LIG    1        5.540   1.200   1.045  0.00  0.00    +0.047 A 
ATOM     16  C   LIG    1        6.228   0.705  -0.053  0.00  0.00    +0.120 A 
ATOM     17  C   LIG    1        5.530   0.195  -1.139  0.00  0.00    +0.047 A 
ATOM     18  C   LIG    1        4.150   0.180  -1.126  0.00  0.00    +0.030 A 
BRANCH  16  19
ATOM     19  O   LIG    1        7.588   0.720  -0.066  0.00  0.00    -0.495 OA
ATOM     20  C   LIG    1        8.242   1.259   1.084  0.00  0.00    +0.277 C 
ENDBRANCH  16  19
ENDBRANCH   5  13
BRANCH   4  21
ATOM     21  S   LIG    1        1.759  -2.124  -0.027  0.00  0.00    -0.078 S 
BRANCH  21  22
ATOM     22  C   LIG    1        0.147  -2.947  -0.016  0.00  0.00    +0.157 C 
BRANCH  22  23
ATOM     23  C   LIG    1        0.345  -4.441  -0.027  0.00  0.00    +0.173 C 
ATOM     24  O   LIG    1        1.466  -4.904  -0.040  0.00  0.00    -0.291 OA
BRANCH  23  25
ATOM     25  C   LIG    1       -0.819  -5.337  -0.021  0.00  0.00    +0.022 A 
ATOM     26  C   LIG    1       -2.114  -4.805   0.001  0.00  0.00    +0.015 A 
ATOM     27  C   LIG    1       -3.203  -5.646  -0.000  0.00  0.00    +0.050 A 
ATOM     28  C   LIG    1       -3.022  -7.024  -0.009  0.00  0.00    +0.158 A 
ATOM     29  C   LIG    1       -1.735  -7.561  -0.025  0.00  0.00    +0.159 A 
ATOM     30  C   LIG    1       -0.637  -6.725  -0.030  0.00  0.00    +0.060 A 
BRANCH  28  31
ATOM     31  O   LIG    1       -4.100  -7.848  -0.004  0.00  0.00    -0.503 OA
ATOM     32  H   LIG    1       -4.404  -8.093   0.881  0.00  0.00    +0.292 HD
ENDBRANCH  28  31
BRANCH  29  33
ATOM     33  O   LIG    1       -1.562  -8.910  -0.034  0.00  0.00    -0.503 OA
ATOM     34  H   LIG    1       -1.503  -9.306   0.846  0.00  0.00    +0.292 HD
ENDBRANCH  29  33
ENDBRANCH  23  25
ENDBRANCH  22  23
ENDBRANCH  21  22
ENDBRANCH   4  21
TORSDOF 9
