REMARK  Name = ZINC01210352
REMARK                            x       y       z     vdW  Elec       q    Type
REMARK                         _______ _______ _______ _____ _____    ______ ____
ROOT
ATOM      1  C   LIG    1        3.960  -0.087   1.001  0.00  0.00    +0.005 A 
ATOM      2  C   LIG    1        2.656   0.362   0.919  0.00  0.00    +0.024 A 
ATOM      3  C   LIG    1        2.393   1.662   0.506  0.00  0.00    +0.048 A 
ATOM      4  C   LIG    1        3.442   2.512   0.186  0.00  0.00    +0.070 A 
ATOM      5  C   LIG    1        4.750   2.059   0.274  0.00  0.00    +0.130 A 
ATOM      6  C   LIG    1        5.006   0.757   0.683  0.00  0.00    +0.046 A 
ENDROOT
BRANCH   3   7
ATOM      7  N   LIG    1        1.071   2.116   0.418  0.00  0.00    -0.202 N 
ATOM      8  C   LIG    1        0.716   3.356   0.034  0.00  0.00    +0.258 C 
ATOM      9  C   LIG    1       -0.761   3.454   0.067  0.00  0.00    +0.050 A 
ATOM     10  C   LIG    1       -1.667   4.463  -0.219  0.00  0.00    +0.014 A 
ATOM     11  C   LIG    1       -3.025   4.231  -0.084  0.00  0.00    +0.016 A 
ATOM     12  C   LIG    1       -3.487   2.984   0.339  0.00  0.00    +0.060 A 
ATOM     13  C   LIG    1       -2.579   1.960   0.629  0.00  0.00    +0.028 A 
ATOM     14  C   LIG    1       -1.222   2.190   0.488  0.00  0.00    +0.051 A 
ATOM     15  O   LIG    1        1.479   4.244  -0.286  0.00  0.00    -0.269 OA
ATOM     16  C   LIG    1       -0.011   1.370   0.707  0.00  0.00    +0.258 C 
ATOM     17  O   LIG    1        0.005   0.214   1.079  0.00  0.00    -0.269 OA
BRANCH  12  18
ATOM     18  C   LIG    1       -4.939   2.744   0.480  0.00  0.00    +0.337 C 
ATOM     19  O   LIG    1       -5.343   1.659   0.848  0.00  0.00    -0.245 OA
BRANCH  18  20
ATOM     20  O   LIG    1       -5.815   3.729   0.201  0.00  0.00    -0.477 OA
ATOM     21  H   LIG    1       -5.503   4.566  -0.083  0.00  0.00    +0.295 HD
ENDBRANCH  18  20
ENDBRANCH  12  18
ENDBRANCH   3   7
BRANCH   5  22
ATOM     22  O   LIG    1        5.779   2.889  -0.038  0.00  0.00    -0.456 OA
BRANCH  22  23
ATOM     23  C   LIG    1        7.043   2.399   0.052  0.00  0.00    +0.129 A 
ATOM     24  C   LIG    1        7.750   2.512   1.240  0.00  0.00    +0.048 A 
ATOM     25  C   LIG    1        9.033   2.008   1.330  0.00  0.00    +0.036 A 
ATOM     26  C   LIG    1        9.617   1.401   0.234  0.00  0.00    +0.122 A 
ATOM     27  C   LIG    1        8.917   1.291  -0.953  0.00  0.00    +0.036 A 
ATOM     28  C   LIG    1        7.632   1.789  -1.047  0.00  0.00    +0.048 A 
BRANCH  26  29
ATOM     29  N   LIG    1       10.994   0.867   0.332  0.00  0.00    +0.006 N 
ATOM     30  O   LIG    1       11.510   0.331  -0.633  0.00  0.00    -0.130 OA
BRANCH  29  31
ATOM     31  O   LIG    1       11.612   0.962   1.377  0.00  0.00    -0.396 OA
ATOM     32  H   LIG    1       11.215   1.374   2.120  0.00  0.00    +0.329 HD
ENDBRANCH  29  31
ENDBRANCH  26  29
ENDBRANCH  22  23
ENDBRANCH   5  22
TORSDOF 7
