REMARK  Name = ZINC01103943
REMARK                            x       y       z     vdW  Elec       q    Type
REMARK                         _______ _______ _______ _____ _____    ______ ____
ROOT
ATOM      1  N   LIG    1        1.161   3.487   0.009  0.00  0.00    -0.285 N 
ATOM      2  H   LIG    1        0.318   3.962  -0.058  0.00  0.00    +0.155 HD
ATOM      3  C   LIG    1        2.317   4.173   0.104  0.00  0.00    +0.222 C 
ATOM      4  O   LIG    1        3.376   3.583   0.091  0.00  0.00    -0.275 OA
ENDROOT
BRANCH   1   6
ATOM      5  C   LIG    1        2.132   1.402   0.746  0.00  0.00    +0.043 A 
ATOM      6  C   LIG    1        1.177   2.087   0.008  0.00  0.00    +0.036 A 
ATOM      7  C   LIG    1        0.236   1.382  -0.732  0.00  0.00    +0.043 A 
ATOM      8  C   LIG    1        0.254  -0.000  -0.731  0.00  0.00    +0.044 A 
ATOM      9 CL   LIG    1       -0.921  -0.883  -1.655  0.00  0.00    -0.083 Cl
ATOM     10  C   LIG    1        1.207  -0.681   0.006  0.00  0.00    +0.040 A 
ATOM     11  C   LIG    1        2.145   0.020   0.744  0.00  0.00    +0.044 A 
ATOM     12 CL   LIG    1        3.340  -0.838   1.666  0.00  0.00    -0.083 Cl
ENDBRANCH   1   6
BRANCH   3  13
ATOM     13  C   LIG    1        2.293   5.675   0.225  0.00  0.00    +0.101 C 
ATOM     14  C   LIG    1        1.619   6.113   1.546  0.00  0.00    +0.110 C 
ATOM     15  C   LIG    1        2.770   6.266   2.516  0.00  0.00    +0.217 C 
ATOM     16  N   LIG    1        3.934   6.328   1.847  0.00  0.00    -0.298 N 
ATOM     17  O   LIG    1        2.659   6.323   3.723  0.00  0.00    -0.276 OA
ATOM     18  C   LIG    1        3.721   6.239   0.396  0.00  0.00    +0.121 C 
BRANCH  16  19
ATOM     19  C   LIG    1        5.247   6.467   2.482  0.00  0.00    +0.076 C 
ATOM     20  C   LIG    1        5.491   5.278   3.413  0.00  0.00    +0.022 C 
ATOM     21  C   LIG    1        6.862   5.423   4.077  0.00  0.00    +0.002 C 
ATOM     22  C   LIG    1        6.902   6.721   4.886  0.00  0.00    +0.000 C 
ATOM     23  C   LIG    1        6.658   7.910   3.955  0.00  0.00    +0.002 C 
ATOM     24  C   LIG    1        5.287   7.765   3.291  0.00  0.00    +0.022 C 
ENDBRANCH  16  19
ENDBRANCH   3  13
TORSDOF 3
