REMARK  Name = ZINC01207720
REMARK                            x       y       z     vdW  Elec       q    Type
REMARK                         _______ _______ _______ _____ _____    ______ ____
ROOT
ATOM      1  C   LIG    1        9.563   1.654  -0.573  0.00  0.00    +0.255 C 
ATOM      2  N   LIG    1        8.867   2.692  -0.068  0.00  0.00    -0.283 N 
ATOM      3  H   LIG    1        9.336   3.466   0.283  0.00  0.00    +0.155 HD
ATOM      4  O   LIG    1        8.979   0.730  -1.097  0.00  0.00    -0.272 OA
ENDROOT
BRANCH   2   5
ATOM      5  C   LIG    1        7.472   2.654  -0.050  0.00  0.00    +0.034 A 
ATOM      6  C   LIG    1        6.813   1.443   0.134  0.00  0.00    +0.024 A 
ATOM      7  C   LIG    1        5.436   1.403   0.153  0.00  0.00    +0.015 A 
ATOM      8  C   LIG    1        4.702   2.579  -0.013  0.00  0.00    +0.037 A 
ATOM      9  C   LIG    1        5.367   3.793  -0.204  0.00  0.00    +0.015 A 
ATOM     10  C   LIG    1        6.744   3.827  -0.216  0.00  0.00    +0.024 A 
BRANCH   8  11
ATOM     11  C   LIG    1        3.225   2.539   0.006  0.00  0.00    +0.228 A 
ATOM     12  N   LIG    1        2.444   3.580  -0.139  0.00  0.00    -0.209 NA
ATOM     13  C   LIG    1        1.152   3.169  -0.067  0.00  0.00    +0.111 A 
ATOM     14  C   LIG    1       -0.076   3.830  -0.153  0.00  0.00    +0.051 A 
ATOM     15  C   LIG    1       -1.247   3.113  -0.036  0.00  0.00    +0.043 A 
ATOM     16 CL   LIG    1       -2.774   3.932  -0.142  0.00  0.00    -0.083 Cl
ATOM     17  C   LIG    1       -1.213   1.739   0.159  0.00  0.00    +0.024 A 
ATOM     18  C   LIG    1       -0.007   1.075   0.251  0.00  0.00    +0.050 A 
ATOM     19  C   LIG    1        1.181   1.780   0.136  0.00  0.00    +0.156 A 
ATOM     20  O   LIG    1        2.485   1.427   0.176  0.00  0.00    -0.435 OA
ENDBRANCH   8  11
ENDBRANCH   2   5
BRANCH   1  21
ATOM     21  C   LIG    1       11.068   1.641  -0.484  0.00  0.00    +0.325 C 
BRANCH  21  22
ATOM     22  O   LIG    1       11.570   0.445  -1.085  0.00  0.00    -0.480 OA
BRANCH  22  26
ATOM     23  C   LIG    1       15.663  -0.067  -1.099  0.00  0.00    +0.002 A 
ATOM     24  C   LIG    1       15.111   1.069  -0.534  0.00  0.00    +0.004 A 
ATOM     25  C   LIG    1       13.742   1.245  -0.532  0.00  0.00    +0.048 A 
ATOM     26  C   LIG    1       12.918   0.277  -1.089  0.00  0.00    +0.151 A 
ATOM     27  C   LIG    1       13.474  -0.861  -1.655  0.00  0.00    +0.163 A 
ATOM     28  C   LIG    1       14.845  -1.030  -1.658  0.00  0.00    +0.036 A 
BRANCH  27  29
ATOM     29  N   LIG    1       12.599  -1.893  -2.255  0.00  0.00    +0.010 N 
ATOM     30  O   LIG    1       13.088  -2.892  -2.752  0.00  0.00    -0.130 OA
BRANCH  29  31
ATOM     31  O   LIG    1       11.390  -1.743  -2.252  0.00  0.00    -0.396 OA
ATOM     32  H   LIG    1       11.014  -0.975  -1.870  0.00  0.00    +0.329 HD
ENDBRANCH  29  31
ENDBRANCH  27  29
ENDBRANCH  22  26
ENDBRANCH  21  22
ENDBRANCH   1  21
TORSDOF 7
