REMARK  Name = ZINC00968301
REMARK                            x       y       z     vdW  Elec       q    Type
REMARK                         _______ _______ _______ _____ _____    ______ ____
ROOT
ATOM      1  C   LIG    1        5.244  -1.829   2.417  0.00  0.00    +0.190 C 
ENDROOT
BRANCH   1   2
ATOM      2  C   LIG    1        5.806  -3.176   2.790  0.00  0.00    -0.005 A 
ATOM      3  C   LIG    1        6.747  -3.781   1.979  0.00  0.00    +0.007 A 
ATOM      4  C   LIG    1        7.263  -5.017   2.321  0.00  0.00    +0.000 A 
ATOM      5  C   LIG    1        6.837  -5.648   3.475  0.00  0.00    +0.000 A 
ATOM      6  C   LIG    1        5.896  -5.043   4.287  0.00  0.00    +0.000 A 
ATOM      7  C   LIG    1        5.384  -3.805   3.947  0.00  0.00    +0.007 A 
ENDBRANCH   1   2
BRANCH   1   8
ATOM      8  C   LIG    1        6.293  -1.039   1.631  0.00  0.00    +0.036 C 
ATOM      9  C   LIG    1        7.502  -0.685   2.531  0.00  0.00    +0.007 C 
ATOM     10  C   LIG    1        8.127   0.553   1.856  0.00  0.00    +0.000 C 
ATOM     11  C   LIG    1        7.010   1.214   1.030  0.00  0.00    +0.000 C 
ATOM     12  C   LIG    1        5.745   0.354   1.232  0.00  0.00    +0.007 C 
ENDBRANCH   1   8
BRANCH   1  13
ATOM     13  C   LIG    1        4.014  -2.015   1.567  0.00  0.00    +0.344 C 
ATOM     14  O   LIG    1        3.873  -3.027   0.922  0.00  0.00    -0.247 OA
BRANCH  13  15
ATOM     15  O   LIG    1        3.075  -1.057   1.526  0.00  0.00    -0.461 OA
BRANCH  15  21
ATOM     16  C   LIG    1       -0.018   1.465   0.010  0.00  0.00    -0.092 C 
ATOM     17  N   LIG    1        0.002  -0.004   0.002  0.00  0.00    +0.379 N 
ATOM     18  C   LIG    1       -1.374  -0.518   0.000  0.00  0.00    -0.092 C 
ATOM     19  C   LIG    1        0.712  -0.485  -1.202  0.00  0.00    -0.072 C 
ATOM     20  C   LIG    1        2.164  -0.742  -0.730  0.00  0.00    +0.025 C 
ATOM     21  C   LIG    1        1.935  -1.301   0.699  0.00  0.00    +0.159 C 
ATOM     22  C   LIG    1        0.714  -0.497   1.195  0.00  0.00    -0.031 C 
ENDBRANCH  15  21
ENDBRANCH  13  15
ENDBRANCH   1  13
BRANCH   1  23
ATOM     23  O   LIG    1        4.899  -1.111   3.604  0.00  0.00    -0.373 OA
ATOM     24  H   LIG    1        4.237  -1.554   4.153  0.00  0.00    +0.211 HD
ENDBRANCH   1  23
TORSDOF 6
