REMARK  Name = ZINC01410328
REMARK                            x       y       z     vdW  Elec       q    Type
REMARK                         _______ _______ _______ _____ _____    ______ ____
ROOT
ATOM      1  C   LIG    1        0.611   6.050   0.026  0.00  0.00    +0.001 A 
ATOM      2  C   LIG    1       -0.771   6.031   0.039  0.00  0.00    +0.001 A 
ATOM      3  C   LIG    1       -1.457   4.827   0.040  0.00  0.00    +0.014 A 
ATOM      4  C   LIG    1       -0.752   3.634   0.027  0.00  0.00    +0.049 A 
ATOM      5  C   LIG    1        0.657   3.653   0.015  0.00  0.00    +0.049 A 
ATOM      6  C   LIG    1        1.081   2.237   0.004  0.00  0.00    +0.254 C 
ATOM      7  N   LIG    1       -0.018   1.461   0.010  0.00  0.00    -0.222 N 
ATOM      8  O   LIG    1        2.229   1.841  -0.008  0.00  0.00    -0.270 OA
ATOM      9  C   LIG    1       -1.137   2.207   0.019  0.00  0.00    +0.254 C 
ATOM     10  O   LIG    1       -2.274   1.779   0.022  0.00  0.00    -0.270 OA
ATOM     11  C   LIG    1        1.330   4.864   0.014  0.00  0.00    +0.014 A 
ENDROOT
BRANCH   7  12
ATOM     12  C   LIG    1        0.002  -0.004   0.002  0.00  0.00    +0.170 C 
ATOM     13  C   LIG    1       -0.692  -0.529   1.262  0.00  0.00    +0.034 C 
ATOM     14  C   LIG    1       -0.904  -2.039   1.104  0.00  0.00    +0.021 C 
ATOM     15  C   LIG    1       -1.927  -2.276  -0.008  0.00  0.00    +0.104 C 
ATOM     16  N   LIG    1       -1.556  -1.538  -1.209  0.00  0.00    -0.314 N 
ATOM     17  H   LIG    1       -1.947  -1.814  -2.052  0.00  0.00    +0.149 HD
ATOM     18  C   LIG    1       -0.711  -0.506  -1.221  0.00  0.00    +0.234 C 
ATOM     19  O   LIG    1       -0.508   0.058  -2.275  0.00  0.00    -0.274 OA
ENDBRANCH   7  12
TORSDOF 1
