REMARK  Name = ZINC00756260
REMARK                            x       y       z     vdW  Elec       q    Type
REMARK                         _______ _______ _______ _____ _____    ______ ____
ROOT
ATOM      1  C   LIG    1       -0.040   1.078   2.340  0.00  0.00    +0.068 C 
ATOM      2  C   LIG    1        1.278   1.431   2.588  0.00  0.00    +0.035 C 
ATOM      3  C   LIG    1        1.895   1.037   3.760  0.00  0.00    +0.083 C 
ATOM      4  N   LIG    1        1.279   0.290   4.716  0.00  0.00    -0.304 NA
ATOM      5  H   LIG    1        1.758   0.004   5.578  0.00  0.00    +0.123 HD
ATOM      6  C   LIG    1       -0.009  -0.053   4.459  0.00  0.00    +0.127 C 
ATOM      7  S   LIG    1       -1.160  -1.003   5.422  0.00  0.00    -0.099 S 
ATOM      8  C   LIG    1       -2.557  -0.938   4.332  0.00  0.00    +0.096 A 
ATOM      9  C   LIG    1       -3.857  -1.453   4.386  0.00  0.00    +0.272 A 
ATOM     10  N   LIG    1       -4.685  -1.202   3.345  0.00  0.00    -0.267 N 
ATOM     11  C   LIG    1       -4.229  -0.466   2.296  0.00  0.00    +0.207 A 
ATOM     12  N   LIG    1       -3.026   0.014   2.242  0.00  0.00    -0.240 NA
ATOM     13  O   LIG    1       -4.233  -2.110   5.343  0.00  0.00    -0.266 OA
ATOM     14  C   LIG    1       -2.121  -0.187   3.242  0.00  0.00    +0.068 A 
ATOM     15  C   LIG    1       -0.733   0.297   3.306  0.00  0.00    +0.084 C 
ENDROOT
BRANCH  10  16
ATOM     16  C   LIG    1       -5.997  -1.694   3.348  0.00  0.00    +0.051 A 
ATOM     17  C   LIG    1       -6.228  -3.060   3.256  0.00  0.00    +0.028 A 
ATOM     18  C   LIG    1       -7.521  -3.542   3.263  0.00  0.00    +0.022 A 
ATOM     19  C   LIG    1       -8.588  -2.665   3.353  0.00  0.00    +0.041 A 
ATOM     20 CL   LIG    1      -10.213  -3.275   3.357  0.00  0.00    -0.084 Cl
ATOM     21  C   LIG    1       -8.361  -1.303   3.440  0.00  0.00    +0.022 A 
ATOM     22  C   LIG    1       -7.069  -0.815   3.438  0.00  0.00    +0.028 A 
ENDBRANCH  10  16
BRANCH   1  24
ATOM     23  C   LIG    1        0.037   0.954  -0.010  0.00  0.00    +0.104 C 
ATOM     24  N   LIG    1       -0.669   1.475   1.168  0.00  0.00    -0.305 NA
ATOM     25  C   LIG    1       -0.790   2.937   1.105  0.00  0.00    +0.104 C 
ENDBRANCH   1  24
TORSDOF 2
