REMARK  Name = ZINC01046144
REMARK                            x       y       z     vdW  Elec       q    Type
REMARK                         _______ _______ _______ _____ _____    ______ ____
ROOT
ATOM      1  C   LIG    1       -2.554   3.867   0.047  0.00  0.00    +0.070 C 
ENDROOT
BRANCH   1   7
ATOM      2  C   LIG    1       -1.218   1.751   0.017  0.00  0.00    +0.006 A 
ATOM      3  C   LIG    1       -0.013   1.076   0.008  0.00  0.00    +0.024 A 
ATOM      4  C   LIG    1        1.180   1.787   0.000  0.00  0.00    +0.044 A 
ATOM      5  C   LIG    1        1.157   3.175   0.008  0.00  0.00    +0.024 A 
ATOM      6  C   LIG    1       -0.051   3.844   0.023  0.00  0.00    +0.006 A 
ATOM      7  C   LIG    1       -1.237   3.133   0.031  0.00  0.00    -0.043 A 
BRANCH   4   8
ATOM      8  N   LIG    1        2.404   1.105  -0.015  0.00  0.00    -0.203 N 
ATOM      9  C   LIG    1        2.547  -0.233  -0.019  0.00  0.00    +0.250 C 
ATOM     10  C   LIG    1        3.992  -0.549  -0.039  0.00  0.00    +0.073 C 
ATOM     11  C   LIG    1        4.646   0.625  -0.039  0.00  0.00    +0.073 C 
ATOM     12  O   LIG    1        1.643  -1.043  -0.008  0.00  0.00    -0.270 OA
ATOM     13  C   LIG    1        3.616   1.688  -0.024  0.00  0.00    +0.250 C 
ATOM     14  O   LIG    1        3.830   2.883  -0.020  0.00  0.00    -0.270 OA
ENDBRANCH   4   8
ENDBRANCH   1   7
BRANCH   1  15
ATOM     15  C   LIG    1       -3.006   4.119  -1.368  0.00  0.00    -0.043 A 
ATOM     16  C   LIG    1       -2.635   5.284  -2.014  0.00  0.00    +0.006 A 
ATOM     17  C   LIG    1       -3.043   5.515  -3.313  0.00  0.00    +0.024 A 
ATOM     18  C   LIG    1       -3.836   4.582  -3.966  0.00  0.00    +0.044 A 
ATOM     19  C   LIG    1       -4.212   3.416  -3.313  0.00  0.00    +0.024 A 
ATOM     20  C   LIG    1       -3.796   3.188  -2.016  0.00  0.00    +0.006 A 
BRANCH  18  21
ATOM     21  N   LIG    1       -4.257   4.816  -5.282  0.00  0.00    -0.203 N 
ATOM     22  C   LIG    1       -5.020   3.983  -6.013  0.00  0.00    +0.250 C 
ATOM     23  C   LIG    1       -5.241   4.595  -7.341  0.00  0.00    +0.073 C 
ATOM     24  C   LIG    1       -4.587   5.769  -7.341  0.00  0.00    +0.073 C 
ATOM     25  O   LIG    1       -5.455   2.911  -5.644  0.00  0.00    -0.270 OA
ATOM     26  C   LIG    1       -3.955   5.906  -6.011  0.00  0.00    +0.250 C 
ATOM     27  O   LIG    1       -3.279   6.843  -5.639  0.00  0.00    -0.270 OA
ENDBRANCH  18  21
ENDBRANCH   1  15
TORSDOF 4
