REMARK  Name = ZINC01420707
REMARK                            x       y       z     vdW  Elec       q    Type
REMARK                         _______ _______ _______ _____ _____    ______ ____
ROOT
ATOM      1  C   LIG    1       -0.017   1.378   0.010  0.00  0.00    +0.030 A 
ATOM      2  C   LIG    1        1.169   2.087   0.002  0.00  0.00    +0.026 A 
ATOM      3  C   LIG    1        2.381   1.410  -0.013  0.00  0.00    +0.043 A 
ATOM      4  C   LIG    1        2.397   0.020  -0.021  0.00  0.00    +0.063 A 
ATOM      5 CL   LIG    1        3.909  -0.832  -0.040  0.00  0.00    -0.082 Cl
ATOM      6  C   LIG    1        1.207  -0.683  -0.013  0.00  0.00    +0.050 A 
ATOM      7  C   LIG    1        0.002  -0.004   0.002  0.00  0.00    +0.107 A 
ENDROOT
BRANCH   3   8
ATOM      8  N   LIG    1        3.582   2.124  -0.021  0.00  0.00    -0.357 N 
ATOM      9  H   LIG    1        4.428   1.650  -0.032  0.00  0.00    +0.142 HD
ATOM     10  H   LIG    1        3.570   3.094  -0.016  0.00  0.00    +0.142 HD
ENDBRANCH   3   8
BRANCH   7  11
ATOM     11  S   LIG    1       -1.513  -0.904   0.012  0.00  0.00    +0.056 S 
ATOM     12  O   LIG    1       -2.493  -0.043   0.576  0.00  0.00    -0.153 OA
ATOM     13  O   LIG    1       -1.221  -2.185   0.553  0.00  0.00    -0.153 OA
BRANCH  11  14
ATOM     14  N   LIG    1       -1.949  -1.145  -1.568  0.00  0.00    -0.204 NA
ATOM     15  H   LIG    1       -2.764  -1.627  -1.777  0.00  0.00    +0.144 HD
ATOM     16  H   LIG    1       -1.389  -0.805  -2.283  0.00  0.00    +0.144 HD
ENDBRANCH  11  14
ENDBRANCH   7  11
TORSDOF 3
