REMARK  Name = ZINC00968696
REMARK                            x       y       z     vdW  Elec       q    Type
REMARK                         _______ _______ _______ _____ _____    ______ ____
ROOT
ATOM      1  C   LIG    1        1.067   5.942   0.023  0.00  0.00    +0.122 A 
ATOM      2  C   LIG    1        2.292   5.268   0.007  0.00  0.00    +0.046 A 
ATOM      3  C   LIG    1        2.342   3.909   0.000  0.00  0.00    +0.012 A 
ATOM      4  C   LIG    1        1.148   3.167   0.008  0.00  0.00    -0.018 A 
ATOM      5  C   LIG    1        1.163   1.762   0.000  0.00  0.00    +0.008 A 
ATOM      6  C   LIG    1       -0.013   1.076   0.008  0.00  0.00    +0.001 A 
ATOM      7  C   LIG    1       -1.235   1.746   0.018  0.00  0.00    +0.001 A 
ATOM      8  C   LIG    1       -1.288   3.105   0.031  0.00  0.00    +0.008 A 
ATOM      9  C   LIG    1       -0.095   3.849   0.024  0.00  0.00    -0.014 A 
ATOM     10  C   LIG    1       -0.112   5.253   0.032  0.00  0.00    +0.054 A 
ENDROOT
BRANCH   1  11
ATOM     11  O   LIG    1        1.050   7.301   0.031  0.00  0.00    -0.487 OA
BRANCH  11  12
ATOM     12  C   LIG    1        2.315   7.966   0.023  0.00  0.00    +0.264 C 
BRANCH  12  16
ATOM     13  C   LIG    1        1.701  12.193   0.053  0.00  0.00    +0.000 A 
ATOM     14  C   LIG    1        1.812  11.502   1.245  0.00  0.00    +0.000 A 
ATOM     15  C   LIG    1        2.010  10.134   1.236  0.00  0.00    +0.007 A 
ATOM     16  C   LIG    1        2.098   9.457   0.034  0.00  0.00    -0.010 A 
ATOM     17  C   LIG    1        1.993  10.149  -1.159  0.00  0.00    +0.007 A 
ATOM     18  C   LIG    1        1.789  11.516  -1.149  0.00  0.00    +0.000 A 
ENDBRANCH  12  16
ENDBRANCH  11  12
ENDBRANCH   1  11
TORSDOF 3
