REMARK  Name = ZINC01199658
REMARK                            x       y       z     vdW  Elec       q    Type
REMARK                         _______ _______ _______ _____ _____    ______ ____
ROOT
ATOM      1  N   LIG    1       -0.924   5.028   0.036  0.00  0.00    -0.285 N 
ATOM      2  H   LIG    1       -0.290   5.762   0.035  0.00  0.00    +0.152 HD
ENDROOT
BRANCH   1   3
ATOM      3  C   LIG    1       -2.363   5.303   0.051  0.00  0.00    +0.298 C 
ATOM      4  C   LIG    1       -2.647   6.535   0.873  0.00  0.00    +0.029 A 
ATOM      5  C   LIG    1       -2.435   6.858   2.191  0.00  0.00    +0.013 A 
ATOM      6  C   LIG    1       -2.811   8.103   2.672  0.00  0.00    +0.050 A 
ATOM      7  C   LIG    1       -3.404   9.027   1.829  0.00  0.00    +0.162 A 
ATOM      8  C   LIG    1       -3.624   8.713   0.491  0.00  0.00    +0.176 A 
ATOM      9  C   LIG    1       -3.244   7.456   0.004  0.00  0.00    +0.112 A 
ATOM     10  C   LIG    1       -3.339   6.835  -1.326  0.00  0.00    +0.345 C 
ATOM     11  O   LIG    1       -3.810   7.369  -2.310  0.00  0.00    -0.245 OA
ATOM     12  O   LIG    1       -2.830   5.592  -1.296  0.00  0.00    -0.435 OA
BRANCH   7  13
ATOM     13  O   LIG    1       -3.771  10.246   2.309  0.00  0.00    -0.491 OA
ATOM     14  C   LIG    1       -3.514  10.503   3.691  0.00  0.00    +0.277 C 
ENDBRANCH   7  13
BRANCH   8  15
ATOM     15  O   LIG    1       -4.205   9.619  -0.336  0.00  0.00    -0.491 OA
ATOM     16  C   LIG    1       -3.335  10.515  -1.030  0.00  0.00    +0.277 C 
ENDBRANCH   8  15
ENDBRANCH   1   3
BRANCH   1  20
ATOM     17  C   LIG    1        1.028   1.961   0.003  0.00  0.00    +0.080 A 
ATOM     18  C   LIG    1       -0.013   1.076   0.008  0.00  0.00    +0.076 A 
ATOM     19  S   LIG    1       -1.405   2.197   0.019  0.00  0.00    -0.060 S 
ATOM     20  C   LIG    1       -0.469   3.720   0.025  0.00  0.00    +0.162 A 
ATOM     21  N   LIG    1        0.771   3.267   0.011  0.00  0.00    -0.225 NA
BRANCH  17  25
ATOM     22  C   LIG    1        5.043   0.558  -0.041  0.00  0.00    +0.120 A 
ATOM     23  C   LIG    1        4.786   1.922  -0.032  0.00  0.00    +0.046 A 
ATOM     24  C   LIG    1        3.485   2.380  -0.018  0.00  0.00    +0.013 A 
ATOM     25  C   LIG    1        2.428   1.472  -0.013  0.00  0.00    +0.001 A 
ATOM     26  C   LIG    1        2.689   0.102  -0.017  0.00  0.00    +0.013 A 
ATOM     27  C   LIG    1        3.992  -0.349  -0.036  0.00  0.00    +0.046 A 
BRANCH  22  29
ATOM     28  C   LIG    1        6.518  -1.306  -0.064  0.00  0.00    +0.277 C 
ATOM     29  O   LIG    1        6.326   0.110  -0.055  0.00  0.00    -0.495 OA
ENDBRANCH  22  29
ENDBRANCH  17  25
ENDBRANCH   1  20
TORSDOF 6
