REMARK  Name = ZINC00898642
REMARK                            x       y       z     vdW  Elec       q    Type
REMARK                         _______ _______ _______ _____ _____    ______ ____
ROOT
ATOM      1  C   LIG    1       -0.332   0.131  -4.219  0.00  0.00    -0.002 A 
ATOM      2  C   LIG    1       -1.226   0.738  -3.358  0.00  0.00    +0.011 A 
ATOM      3  C   LIG    1       -1.088   2.079  -3.049  0.00  0.00    -0.047 A 
ATOM      4  C   LIG    1       -0.059   2.816  -3.604  0.00  0.00    +0.007 A 
ATOM      5  C   LIG    1        0.842   2.212  -4.460  0.00  0.00    +0.046 A 
ATOM      6  C   LIG    1        0.705   0.868  -4.772  0.00  0.00    +0.120 A 
ENDROOT
BRANCH   6   7
ATOM      7  O   LIG    1        1.586   0.273  -5.619  0.00  0.00    -0.506 OA
ATOM      8  H   LIG    1        1.326   0.311  -6.549  0.00  0.00    +0.292 HD
ENDBRANCH   6   7
BRANCH   1   9
ATOM      9  C   LIG    1       -0.483  -1.330  -4.556  0.00  0.00    +0.066 C 
BRANCH   9  13
ATOM     10  C   LIG    1       -2.714  -3.029  -4.856  0.00  0.00    +0.038 C 
ATOM     11  C   LIG    1       -2.227  -2.208  -6.021  0.00  0.00    -0.079 C 
ATOM     12  C   LIG    1       -2.976  -2.236  -7.329  0.00  0.00    +0.038 C 
ATOM     13  C   LIG    1       -1.152  -1.470  -5.899  0.00  0.00    -0.023 C 
ENDBRANCH   9  13
ENDBRANCH   1   9
BRANCH   3  14
ATOM     14  C   LIG    1       -2.065   2.738  -2.110  0.00  0.00    +0.035 C 
BRANCH  14  15
ATOM     15  C   LIG    1       -1.553   2.616  -0.673  0.00  0.00    +0.009 C 
BRANCH  15  16
ATOM     16  C   LIG    1       -2.545   3.286   0.280  0.00  0.00    +0.039 C 
BRANCH  16  17
ATOM     17  C   LIG    1       -2.041   3.166   1.695  0.00  0.00    -0.006 A 
ATOM     18  C   LIG    1       -2.477   2.129   2.498  0.00  0.00    +0.011 A 
ATOM     19  C   LIG    1       -2.017   2.016   3.796  0.00  0.00    +0.046 A 
ATOM     20  C   LIG    1       -1.115   2.944   4.296  0.00  0.00    +0.120 A 
ATOM     21  C   LIG    1       -0.676   3.985   3.493  0.00  0.00    +0.091 A 
ATOM     22  C   LIG    1       -1.135   4.093   2.190  0.00  0.00    +0.123 A 
BRANCH  20  23
ATOM     23  O   LIG    1       -0.662   2.832   5.573  0.00  0.00    -0.507 OA
ATOM     24  H   LIG    1        0.141   2.299   5.660  0.00  0.00    +0.292 HD
ENDBRANCH  20  23
BRANCH  22  25
ATOM     25  O   LIG    1       -0.703   5.110   1.398  0.00  0.00    -0.506 OA
ATOM     26  H   LIG    1       -1.247   5.908   1.450  0.00  0.00    +0.292 HD
ENDBRANCH  22  25
ENDBRANCH  16  17
ENDBRANCH  15  16
ENDBRANCH  14  15
ENDBRANCH   3  14
TORSDOF 9
