REMARK  Name = ZINC00897320
REMARK                            x       y       z     vdW  Elec       q    Type
REMARK                         _______ _______ _______ _____ _____    ______ ____
ROOT
ATOM      1  C   LIG    1       -0.017   1.383   0.010  0.00  0.00    +0.024 A 
ATOM      2  C   LIG    1        1.164   2.099   0.002  0.00  0.00    +0.050 A 
ATOM      3  C   LIG    1        2.377   1.430  -0.013  0.00  0.00    +0.159 A 
ATOM      4  C   LIG    1        2.401   0.027  -0.021  0.00  0.00    +0.114 A 
ATOM      5  N   LIG    1        3.712  -0.339  -0.035  0.00  0.00    -0.175 NA
ATOM      6  C   LIG    1        4.449   0.739  -0.036  0.00  0.00    +0.394 A 
ATOM      7  C   LIG    1        1.201  -0.685  -0.013  0.00  0.00    +0.051 A 
ATOM      8  O   LIG    1        3.668   1.833  -0.023  0.00  0.00    -0.409 OA
ATOM      9  C   LIG    1        0.002  -0.004   0.002  0.00  0.00    +0.043 A 
ATOM     10 CL   LIG    1       -1.492  -0.888   0.012  0.00  0.00    -0.083 Cl
ENDROOT
BRANCH   6  11
ATOM     11  O   LIG    1        5.801   0.753  -0.049  0.00  0.00    -0.465 OA
ATOM     12  H   LIG    1        6.277  -0.053  -0.058  0.00  0.00    +0.297 HD
ENDBRANCH   6  11
TORSDOF 1
