REMARK  Name = ZINC00896042
REMARK                            x       y       z     vdW  Elec       q    Type
REMARK                         _______ _______ _______ _____ _____    ______ ____
ROOT
ATOM      1  C   LIG    1       -1.201  -0.638   0.010  0.00  0.00    +0.162 A 
ATOM      2  C   LIG    1       -2.374   0.097   0.019  0.00  0.00    +0.053 A 
ATOM      3  C   LIG    1       -3.602  -0.546   0.027  0.00  0.00    -0.044 A 
ATOM      4  C   LIG    1       -3.661  -1.924   0.022  0.00  0.00    -0.054 A 
ATOM      5  C   LIG    1       -4.975  -2.660   0.021  0.00  0.00    -0.036 C 
ATOM      6  N   LIG    1       -6.060  -1.781   0.464  0.00  0.00    +0.384 N 
ATOM      7  H   LIG    1       -5.920  -1.534   1.432  0.00  0.00    -0.085 HD
ATOM      8  H   LIG    1       -6.944  -2.256   0.359  0.00  0.00    -0.085 HD
ATOM      9  C   LIG    1       -6.056  -0.563  -0.361  0.00  0.00    -0.077 C 
ATOM     10  C   LIG    1       -2.488  -2.664   0.015  0.00  0.00    +0.051 A 
ATOM     11  C   LIG    1       -4.855   0.294   0.041  0.00  0.00    +0.016 C 
ATOM     12  C   LIG    1       -1.259  -2.028   0.003  0.00  0.00    +0.159 A 
ENDROOT
BRANCH   1  14
ATOM     13  C   LIG    1       -0.017   1.425   0.010  0.00  0.00    +0.277 C 
ATOM     14  O   LIG    1        0.002  -0.004   0.002  0.00  0.00    -0.491 OA
ENDBRANCH   1  14
BRANCH  12  15
ATOM     15  O   LIG    1       -0.112  -2.759  -0.010  0.00  0.00    -0.503 OA
ATOM     16  H   LIG    1        0.227  -2.975   0.870  0.00  0.00    +0.292 HD
ENDBRANCH  12  15
BRANCH   5  17
ATOM     17  C   LIG    1       -4.881  -3.860   0.966  0.00  0.00    +0.024 C 
BRANCH  17  18
ATOM     18  C   LIG    1       -6.149  -4.670   0.875  0.00  0.00    -0.048 A 
ATOM     19  C   LIG    1       -7.213  -4.383   1.710  0.00  0.00    +0.007 A 
ATOM     20  C   LIG    1       -8.376  -5.124   1.629  0.00  0.00    +0.045 A 
ATOM     21  C   LIG    1       -8.476  -6.158   0.710  0.00  0.00    +0.117 A 
ATOM     22  C   LIG    1       -7.407  -6.444  -0.127  0.00  0.00    +0.045 A 
ATOM     23  C   LIG    1       -6.248  -5.697  -0.046  0.00  0.00    +0.007 A 
BRANCH  21  24
ATOM     24  O   LIG    1       -9.618  -6.889   0.629  0.00  0.00    -0.507 OA
ATOM     25  H   LIG    1      -10.268  -6.536   0.005  0.00  0.00    +0.292 HD
ENDBRANCH  21  24
ENDBRANCH  17  18
ENDBRANCH   5  17
TORSDOF 5
