REMARK  Name = ZINC00752433
REMARK                            x       y       z     vdW  Elec       q    Type
REMARK                         _______ _______ _______ _____ _____    ______ ____
ROOT
ATOM      1  C   LIG    1        6.218   1.944   3.470  0.00  0.00    +0.034 C 
ATOM      2  C   LIG    1        6.208   0.689   2.596  0.00  0.00    +0.083 C 
ATOM      3  C   LIG    1        5.479   0.974   1.304  0.00  0.00    +0.115 C 
ATOM      4  C   LIG    1        4.469   1.863   1.268  0.00  0.00    +0.046 C 
ATOM      5  C   LIG    1        4.069   2.564   2.422  0.00  0.00    +0.164 C 
ATOM      6  O   LIG    1        3.142   3.346   2.353  0.00  0.00    -0.292 OA
ATOM      7  C   LIG    1        3.733   2.137  -0.021  0.00  0.00    +0.102 C 
ATOM      8  C   LIG    1        4.556   1.678  -1.193  0.00  0.00    +0.098 C 
ATOM      9  C   LIG    1        5.571   0.798  -1.014  0.00  0.00    +0.198 C 
ATOM     10  O   LIG    1        5.867   0.309   0.200  0.00  0.00    -0.445 OA
ATOM     11  C   LIG    1        4.768   2.361   3.738  0.00  0.00    +0.088 C 
ENDROOT
BRANCH   7  12
ATOM     12  C   LIG    1        2.419   1.399  -0.013  0.00  0.00    -0.027 A 
ATOM     13  C   LIG    1        2.391   0.054   0.194  0.00  0.00    +0.005 A 
ATOM     14  C   LIG    1        1.186  -0.645   0.205  0.00  0.00    +0.001 A 
ATOM     15  C   LIG    1        0.002  -0.003   0.009  0.00  0.00    +0.008 A 
ATOM     16  C   LIG    1       -0.009   1.385  -0.208  0.00  0.00    -0.018 A 
ATOM     17  C   LIG    1       -1.212   2.081  -0.419  0.00  0.00    +0.008 A 
ATOM     18  C   LIG    1       -1.184   3.426  -0.621  0.00  0.00    +0.001 A 
ATOM     19  C   LIG    1        0.022   4.126  -0.633  0.00  0.00    +0.001 A 
ATOM     20  C   LIG    1        1.206   3.485  -0.437  0.00  0.00    +0.009 A 
ATOM     21  C   LIG    1        1.217   2.096  -0.219  0.00  0.00    -0.014 A 
ENDBRANCH   7  12
BRANCH   1  25
ATOM     22  C   LIG    1        8.178   1.104   7.171  0.00  0.00    +0.000 A 
ATOM     23  C   LIG    1        8.675   2.085   6.333  0.00  0.00    +0.000 A 
ATOM     24  C   LIG    1        8.040   2.357   5.136  0.00  0.00    +0.004 A 
ATOM     25  C   LIG    1        6.910   1.648   4.775  0.00  0.00    -0.043 A 
ATOM     26  C   LIG    1        6.411   0.669   5.615  0.00  0.00    +0.004 A 
ATOM     27  C   LIG    1        7.048   0.394   6.811  0.00  0.00    +0.000 A 
ENDBRANCH   1  25
BRANCH   9  28
ATOM     28  N   LIG    1        6.313   0.399  -2.098  0.00  0.00    -0.328 N 
ATOM     29  H   LIG    1        7.042  -0.230  -1.982  0.00  0.00    +0.145 HD
ATOM     30  H   LIG    1        6.108   0.747  -2.980  0.00  0.00    +0.145 HD
ENDBRANCH   9  28
BRANCH   8  31
ATOM     31  C   LIG    1        4.266   2.173  -2.505  0.00  0.00    +0.101 C 
ATOM     32  N   LIG    1        4.035   2.566  -3.545  0.00  0.00    -0.191 NA
ENDBRANCH   8  31
TORSDOF 4
