REMARK  Name = ZINC01349181
REMARK                            x       y       z     vdW  Elec       q    Type
REMARK                         _______ _______ _______ _____ _____    ______ ____
ROOT
ATOM      1  N   LIG    1        1.507  -1.988  -0.023  0.00  0.00    -0.222 N 
ATOM      2  C   LIG    1        1.155  -0.667  -0.013  0.00  0.00    +0.184 A 
ATOM      3  C   LIG    1        2.361   0.056  -0.020  0.00  0.00    +0.171 A 
ATOM      4  N   LIG    1        3.372  -0.829  -0.035  0.00  0.00    -0.124 NA
ATOM      5  C   LIG    1        2.288   1.464  -0.012  0.00  0.00    +0.152 A 
ATOM      6  N   LIG    1        1.089   2.035   0.003  0.00  0.00    -0.219 NA
ATOM      7  C   LIG    1       -0.016   1.311   0.009  0.00  0.00    +0.225 A 
ATOM      8  N   LIG    1        0.002  -0.004   0.002  0.00  0.00    -0.215 NA
ATOM      9  N   LIG    1        2.909  -2.030  -0.037  0.00  0.00    -0.063 NA
ENDROOT
BRANCH   5  10
ATOM     10  N   LIG    1        3.436   2.232  -0.019  0.00  0.00    -0.327 N 
ATOM     11  H   LIG    1        4.306   1.803  -0.030  0.00  0.00    +0.148 HD
BRANCH  10  12
ATOM     12  C   LIG    1        3.341   3.693  -0.011  0.00  0.00    +0.106 C 
BRANCH  12  13
ATOM     13  C   LIG    1        4.747   4.297  -0.021  0.00  0.00    +0.006 C 
ATOM     14  C   LIG    1        5.469   3.931   1.277  0.00  0.00    +0.005 C 
ATOM     15  C   LIG    1        6.875   4.534   1.266  0.00  0.00    +0.000 C 
ATOM     16  C   LIG    1        6.776   6.056   1.149  0.00  0.00    +0.000 C 
ATOM     17  C   LIG    1        6.054   6.422  -0.149  0.00  0.00    +0.000 C 
ATOM     18  C   LIG    1        4.648   5.819  -0.138  0.00  0.00    +0.005 C 
ENDBRANCH  12  13
ENDBRANCH  10  12
ENDBRANCH   5  10
BRANCH   1  19
ATOM     19  C   LIG    1        0.597  -3.136  -0.021  0.00  0.00    +0.184 C 
BRANCH  19  25
ATOM     20  C   LIG    1        0.626  -4.939  -3.337  0.00  0.00    +0.000 A 
ATOM     21  C   LIG    1       -0.327  -4.230  -4.046  0.00  0.00    +0.001 A 
ATOM     22  C   LIG    1       -0.981  -3.167  -3.453  0.00  0.00    +0.020 A 
ATOM     23  C   LIG    1       -0.686  -2.816  -2.147  0.00  0.00    +0.046 A 
ATOM     24 CL   LIG    1       -1.512  -1.485  -1.399  0.00  0.00    -0.083 Cl
ATOM     25  C   LIG    1        0.271  -3.522  -1.440  0.00  0.00    -0.008 A 
ATOM     26  C   LIG    1        0.924  -4.585  -2.035  0.00  0.00    +0.007 A 
ENDBRANCH  19  25
ENDBRANCH   1  19
TORSDOF 5
