REMARK  Name = ZINC01094958
REMARK                            x       y       z     vdW  Elec       q    Type
REMARK                         _______ _______ _______ _____ _____    ______ ____
ROOT
ATOM      1  C   LIG    1        5.786  -1.866   1.477  0.00  0.00    +0.066 C 
ATOM      2  C   LIG    1        6.518  -2.281   2.596  0.00  0.00    +0.133 C 
ATOM      3  C   LIG    1        7.749  -2.950   2.476  0.00  0.00    +0.257 C 
ATOM      4  N   LIG    1        8.500  -3.012   1.380  0.00  0.00    -0.295 N 
ATOM      5  H   LIG    1        9.272  -3.598   1.388  0.00  0.00    +0.150 HD
ATOM      6  C   LIG    1        8.227  -2.246   0.165  0.00  0.00    +0.170 C 
ATOM      7  O   LIG    1        8.165  -3.524   3.466  0.00  0.00    -0.269 OA
ATOM      8  S   LIG    1        6.430  -2.228  -0.130  0.00  0.00    -0.090 S 
ENDROOT
BRANCH   6   9
ATOM      9  C   LIG    1        8.731  -0.835   0.333  0.00  0.00    +0.025 A 
ATOM     10  C   LIG    1        9.607  -0.532   1.357  0.00  0.00    +0.010 A 
ATOM     11  C   LIG    1       10.069   0.761   1.513  0.00  0.00    +0.001 A 
ATOM     12  C   LIG    1        9.656   1.755   0.644  0.00  0.00    +0.004 A 
ATOM     13  C   LIG    1        8.780   1.457  -0.382  0.00  0.00    +0.046 A 
ATOM     14  C   LIG    1        8.319   0.158  -0.543  0.00  0.00    +0.123 A 
BRANCH  14  15
ATOM     15  O   LIG    1        7.462  -0.139  -1.555  0.00  0.00    -0.506 OA
ATOM     16  H   LIG    1        6.529  -0.043  -1.320  0.00  0.00    +0.292 HD
ENDBRANCH  14  15
ENDBRANCH   6   9
BRANCH   2  17
ATOM     17  C   LIG    1        5.997  -2.017   3.903  0.00  0.00    +0.106 C 
ATOM     18  N   LIG    1        5.583  -1.807   4.940  0.00  0.00    -0.191 NA
ENDBRANCH   2  17
BRANCH   1  19
ATOM     19  S   LIG    1        4.257  -1.011   1.666  0.00  0.00    -0.112 S 
BRANCH  19  20
ATOM     20  C   LIG    1        3.711  -0.707  -0.038  0.00  0.00    +0.110 C 
BRANCH  20  24
ATOM     21  C   LIG    1       -0.017   1.378   0.010  0.00  0.00    +0.000 A 
ATOM     22  C   LIG    1        1.171   2.086   0.002  0.00  0.00    +0.000 A 
ATOM     23  C   LIG    1        2.377   1.411  -0.013  0.00  0.00    +0.004 A 
ATOM     24  C   LIG    1        2.396   0.029  -0.020  0.00  0.00    -0.037 A 
ATOM     25  C   LIG    1        1.208  -0.679  -0.012  0.00  0.00    +0.004 A 
ATOM     26  C   LIG    1        0.002  -0.004   0.002  0.00  0.00    +0.000 A 
ENDBRANCH  20  24
ENDBRANCH  19  20
ENDBRANCH   1  19
TORSDOF 6
