REMARK  Name = ZINC00781556
REMARK                            x       y       z     vdW  Elec       q    Type
REMARK                         _______ _______ _______ _____ _____    ______ ____
ROOT
ATOM      1  C   LIG    1        4.921   0.265  -0.087  0.00  0.00    +0.029 A 
ATOM      2  C   LIG    1        5.532   0.581   1.126  0.00  0.00    +0.036 A 
ATOM      3  C   LIG    1        6.758   1.226   1.133  0.00  0.00    +0.049 A 
ATOM      4  C   LIG    1        7.378   1.557  -0.066  0.00  0.00    +0.028 A 
ATOM      5  C   LIG    1        6.777   1.246  -1.270  0.00  0.00    +0.048 A 
ATOM      6  C   LIG    1        5.554   0.596  -1.290  0.00  0.00    +0.125 A 
ENDROOT
BRANCH   1  15
ATOM      7  C   LIG    1        0.029   1.745  -0.126  0.00  0.00    +0.001 A 
ATOM      8  C   LIG    1        1.251   2.414  -0.112  0.00  0.00    +0.001 A 
ATOM      9  C   LIG    1        2.426   1.725  -0.104  0.00  0.00    +0.009 A 
ATOM     10  C   LIG    1        2.410   0.323  -0.110  0.00  0.00    -0.007 A 
ATOM     11  C   LIG    1        1.168  -0.359  -0.124  0.00  0.00    -0.017 A 
ATOM     12  C   LIG    1        1.148  -1.765  -0.129  0.00  0.00    +0.012 A 
ATOM     13  C   LIG    1        2.315  -2.465  -0.120  0.00  0.00    +0.046 A 
ATOM     14  C   LIG    1        3.547  -1.812  -0.105  0.00  0.00    +0.125 A 
ATOM     15  C   LIG    1        3.611  -0.424  -0.101  0.00  0.00    +0.035 A 
ATOM     16  C   LIG    1       -0.025   0.384  -0.133  0.00  0.00    +0.008 A 
BRANCH  14  17
ATOM     17  O   LIG    1        4.695  -2.539  -0.096  0.00  0.00    -0.506 OA
ATOM     18  H   LIG    1        5.036  -2.746  -0.977  0.00  0.00    +0.292 HD
ENDBRANCH  14  17
ENDBRANCH   1  15
BRANCH   3  19
ATOM     19  N   LIG    1        7.373   1.545   2.349  0.00  0.00    -0.216 N 
ATOM     20  H   LIG    1        6.858   1.956   3.060  0.00  0.00    +0.174 HD
BRANCH  19  21
ATOM     21  S   LIG    1        8.982   1.220   2.574  0.00  0.00    +0.072 S 
ATOM     22  O   LIG    1        9.279   1.555   3.922  0.00  0.00    -0.150 OA
ATOM     23  O   LIG    1        9.671   1.800   1.474  0.00  0.00    -0.150 OA
BRANCH  21  24
ATOM     24  C   LIG    1        9.185  -0.525   2.431  0.00  0.00    +0.109 A 
ATOM     25  C   LIG    1        8.967  -1.337   3.528  0.00  0.00    +0.031 A 
ATOM     26  C   LIG    1        9.126  -2.706   3.417  0.00  0.00    +0.040 A 
ATOM     27  C   LIG    1        9.504  -3.263   2.208  0.00  0.00    +0.124 A 
ATOM     28  F   LIG    1        9.661  -4.600   2.099  0.00  0.00    -0.205 F 
ATOM     29  C   LIG    1        9.723  -2.448   1.110  0.00  0.00    +0.040 A 
ATOM     30  C   LIG    1        9.558  -1.080   1.221  0.00  0.00    +0.031 A 
ENDBRANCH  21  24
ENDBRANCH  19  21
ENDBRANCH   3  19
BRANCH   6  31
ATOM     31  O   LIG    1        4.966   0.286  -2.476  0.00  0.00    -0.506 OA
ATOM     32  H   LIG    1        4.385   0.978  -2.820  0.00  0.00    +0.292 HD
ENDBRANCH   6  31
TORSDOF 6
