REMARK  Name = ZINC01065955
REMARK                            x       y       z     vdW  Elec       q    Type
REMARK                         _______ _______ _______ _____ _____    ______ ____
ROOT
ATOM      1  C   LIG    1        1.109   3.595   0.012  0.00  0.00    +0.137 C 
ENDROOT
BRANCH   1   2
ATOM      2  C   LIG    1        0.868   2.107  -0.028  0.00  0.00    +0.021 A 
ATOM      3  C   LIG    1        0.495   1.505  -1.226  0.00  0.00    +0.010 A 
ATOM      4  C   LIG    1        0.270   0.164  -1.296  0.00  0.00    +0.010 A 
ATOM      5  C   LIG    1        0.415  -0.627  -0.144  0.00  0.00    +0.004 A 
ATOM      6  C   LIG    1        0.190  -2.016  -0.176  0.00  0.00    +0.011 A 
ATOM      7  C   LIG    1        0.347  -2.721   0.983  0.00  0.00    +0.020 A 
ATOM      8  C   LIG    1        0.722  -2.062   2.152  0.00  0.00    +0.111 A 
ATOM      9  N   LIG    1        0.931  -0.769   2.178  0.00  0.00    -0.251 NA
ATOM     10  C   LIG    1        0.794  -0.021   1.079  0.00  0.00    +0.113 A 
ATOM     11  C   LIG    1        1.019   1.371   1.113  0.00  0.00    +0.148 A 
BRANCH  11  12
ATOM     12  O   LIG    1        1.383   1.976   2.273  0.00  0.00    -0.504 OA
ATOM     13  H   LIG    1        2.334   1.951   2.448  0.00  0.00    +0.292 HD
ENDBRANCH  11  12
ENDBRANCH   1   2
BRANCH   1  19
ATOM     14  C   LIG    1        0.309   5.154  -3.332  0.00  0.00    +0.001 A 
ATOM     15  C   LIG    1        1.531   5.076  -3.974  0.00  0.00    +0.003 A 
ATOM     16  C   LIG    1        2.618   4.518  -3.328  0.00  0.00    +0.039 A 
ATOM     17  C   LIG    1        2.482   4.038  -2.036  0.00  0.00    +0.129 A 
ATOM     18  F   LIG    1        3.544   3.493  -1.403  0.00  0.00    -0.205 F 
ATOM     19  C   LIG    1        1.258   4.117  -1.394  0.00  0.00    +0.012 A 
ATOM     20  C   LIG    1        0.171   4.670  -2.045  0.00  0.00    +0.008 A 
ENDBRANCH   1  19
BRANCH   1  21
ATOM     21  N   LIG    1       -0.025   4.256   0.661  0.00  0.00    -0.332 N 
ATOM     22  H   LIG    1       -0.900   3.837   0.654  0.00  0.00    +0.147 HD
BRANCH  21  23
ATOM     23  C   LIG    1        0.152   5.491   1.290  0.00  0.00    +0.046 A 
ATOM     24  C   LIG    1       -0.919   6.129   1.910  0.00  0.00    +0.026 A 
ATOM     25  C   LIG    1       -0.693   7.351   2.521  0.00  0.00    +0.021 A 
ATOM     26  C   LIG    1        0.578   7.894   2.495  0.00  0.00    +0.111 A 
ATOM     27  N   LIG    1        1.572   7.265   1.899  0.00  0.00    -0.261 NA
ATOM     28  C   LIG    1        1.401   6.098   1.311  0.00  0.00    +0.133 A 
ENDBRANCH  21  23
ENDBRANCH   1  21
TORSDOF 5
