REMARK  Name = ZINC00862376
REMARK                            x       y       z     vdW  Elec       q    Type
REMARK                         _______ _______ _______ _____ _____    ______ ____
ROOT
ATOM      1  C   LIG    1       -0.109   1.432   0.049  0.00  0.00    +0.044 A 
ATOM      2  C   LIG    1        1.062   2.193   0.021  0.00  0.00    +0.057 A 
ATOM      3  C   LIG    1        2.301   1.555  -0.079  0.00  0.00    +0.055 A 
ATOM      4 CL   LIG    1        3.762   2.491  -0.115  0.00  0.00    -0.083 Cl
ATOM      5  C   LIG    1        2.359   0.177  -0.151  0.00  0.00    +0.042 A 
ATOM      6  C   LIG    1        1.195  -0.570  -0.123  0.00  0.00    +0.069 A 
ATOM      7 CL   LIG    1        1.276  -2.302  -0.214  0.00  0.00    -0.081 Cl
ATOM      8  C   LIG    1       -0.037   0.058  -0.023  0.00  0.00    +0.124 A 
ENDROOT
BRANCH   2   9
ATOM      9  C   LIG    1        0.991   3.666   0.097  0.00  0.00    +0.250 C 
ATOM     10  N   LIG    1       -0.206   4.279   0.194  0.00  0.00    -0.275 N 
ATOM     11  H   LIG    1       -1.020   3.752   0.213  0.00  0.00    +0.156 HD
ATOM     12  O   LIG    1        2.011   4.326   0.073  0.00  0.00    -0.270 OA
BRANCH  10  13
ATOM     13  C   LIG    1       -0.273   5.662   0.265  0.00  0.00    +0.090 A 
ATOM     14  C   LIG    1       -1.403   6.456   0.373  0.00  0.00    +0.084 A 
ATOM     15  C   LIG    1       -1.203   7.893   0.431  0.00  0.00    -0.018 A 
ATOM     16  C   LIG    1        0.092   8.273   0.371  0.00  0.00    -0.004 A 
ATOM     17  C   LIG    1        0.621   9.674   0.406  0.00  0.00    +0.043 C 
ATOM     18  C   LIG    1       -0.546  10.636   0.141  0.00  0.00    +0.005 C 
ATOM     19  C   LIG    1       -1.727  10.241   1.032  0.00  0.00    +0.005 C 
ATOM     20  C   LIG    1       -2.323   8.916   0.550  0.00  0.00    +0.037 C 
ATOM     21  S   LIG    1        0.999   6.760   0.249  0.00  0.00    -0.077 S 
BRANCH  14  22
ATOM     22  C   LIG    1       -2.715   5.883   0.424  0.00  0.00    +0.102 C 
ATOM     23  N   LIG    1       -3.755   5.429   0.464  0.00  0.00    -0.191 NA
ENDBRANCH  14  22
ENDBRANCH  10  13
ENDBRANCH   2   9
BRANCH   8  24
ATOM     24  S   LIG    1       -1.513  -0.903   0.012  0.00  0.00    +0.062 S 
ATOM     25  O   LIG    1       -2.591   0.013   0.144  0.00  0.00    -0.153 OA
ATOM     26  O   LIG    1       -1.290  -1.956   0.940  0.00  0.00    -0.153 OA
BRANCH  24  27
ATOM     27  N   LIG    1       -1.673  -1.611  -1.477  0.00  0.00    -0.172 NA
ATOM     28  C   LIG    1       -2.251  -0.870  -2.609  0.00  0.00    +0.137 C 
ATOM     29  C   LIG    1       -1.304  -1.000  -3.807  0.00  0.00    +0.177 C 
ATOM     30  O   LIG    1       -1.017  -2.383  -4.032  0.00  0.00    -0.377 OA
ATOM     31  C   LIG    1       -0.341  -3.025  -2.948  0.00  0.00    +0.177 C 
ATOM     32  C   LIG    1       -1.234  -2.996  -1.708  0.00  0.00    +0.137 C 
ENDBRANCH  24  27
ENDBRANCH   8  24
TORSDOF 5
