REMARK  Name = ZINC00966740
REMARK                            x       y       z     vdW  Elec       q    Type
REMARK                         _______ _______ _______ _____ _____    ______ ____
ROOT
ATOM      1  C   LIG    1        2.619   1.664  -0.228  0.00  0.00    +0.028 C 
ATOM      2  C   LIG    1        1.315   1.969  -0.448  0.00  0.00    +0.077 C 
ATOM      3  C   LIG    1        0.146   1.073  -0.570  0.00  0.00    +0.263 C 
ATOM      4  N   LIG    1       -1.022   1.652  -0.792  0.00  0.00    -0.224 N 
ATOM      5  C   LIG    1       -1.138   2.992  -0.889  0.00  0.00    +0.125 C 
ATOM      6  S   LIG    1       -2.550   3.920  -1.165  0.00  0.00    -0.027 S 
ATOM      7  O   LIG    1        0.254  -0.135  -0.477  0.00  0.00    -0.269 OA
ATOM      8  S   LIG    1        0.539   3.564  -0.668  0.00  0.00    -0.061 S 
ENDROOT
BRANCH   1  15
ATOM      9  C   LIG    1        3.308   3.988  -0.782  0.00  0.00    +0.011 A 
ATOM     10  C   LIG    1        4.271   4.971  -0.846  0.00  0.00    +0.039 A 
ATOM     11  C   LIG    1        5.572   4.699  -0.449  0.00  0.00    +0.123 A 
ATOM     12  F   LIG    1        6.513   5.666  -0.519  0.00  0.00    -0.205 F 
ATOM     13  C   LIG    1        5.911   3.439   0.021  0.00  0.00    +0.039 A 
ATOM     14  C   LIG    1        4.957   2.448   0.095  0.00  0.00    +0.011 A 
ATOM     15  C   LIG    1        3.642   2.716  -0.304  0.00  0.00    -0.024 A 
ENDBRANCH   1  15
BRANCH   4  16
ATOM     16  C   LIG    1       -2.163   0.857  -0.922  0.00  0.00    +0.043 A 
ATOM     17  C   LIG    1       -2.778   0.724  -2.163  0.00  0.00    +0.025 A 
ATOM     18  C   LIG    1       -3.900  -0.063  -2.296  0.00  0.00    +0.017 A 
ATOM     19  C   LIG    1       -4.427  -0.720  -1.181  0.00  0.00    +0.059 A 
ATOM     20  C   LIG    1       -3.809  -0.580   0.066  0.00  0.00    +0.017 A 
ATOM     21  C   LIG    1       -2.685   0.204   0.190  0.00  0.00    +0.025 A 
BRANCH  19  22
ATOM     22  C   LIG    1       -5.631  -1.560  -1.319  0.00  0.00    +0.337 C 
ATOM     23  O   LIG    1       -6.088  -2.132  -0.348  0.00  0.00    -0.245 OA
BRANCH  22  24
ATOM     24  O   LIG    1       -6.225  -1.694  -2.521  0.00  0.00    -0.477 OA
ATOM     25  H   LIG    1       -5.873  -1.254  -3.269  0.00  0.00    +0.295 HD
ENDBRANCH  22  24
ENDBRANCH  19  22
ENDBRANCH   4  16
TORSDOF 4
