REMARK  Name = ZINC01065023
REMARK                            x       y       z     vdW  Elec       q    Type
REMARK                         _______ _______ _______ _____ _____    ______ ____
ROOT
ATOM      1  C   LIG    1       -1.299   3.542  -0.065  0.00  0.00    +0.135 C 
ENDROOT
BRANCH   1   7
ATOM      2  C   LIG    1        2.015   6.153   4.795  0.00  0.00    +0.020 A 
ATOM      3  C   LIG    1        2.075   4.875   4.317  0.00  0.00    +0.011 A 
ATOM      4  C   LIG    1        1.245   4.532   3.233  0.00  0.00    +0.004 A 
ATOM      5  C   LIG    1        1.253   3.237   2.688  0.00  0.00    +0.010 A 
ATOM      6  C   LIG    1        0.436   2.941   1.639  0.00  0.00    +0.010 A 
ATOM      7  C   LIG    1       -0.409   3.905   1.096  0.00  0.00    +0.021 A 
ATOM      8  C   LIG    1       -0.441   5.176   1.597  0.00  0.00    +0.148 A 
ATOM      9  C   LIG    1        0.387   5.517   2.686  0.00  0.00    +0.113 A 
ATOM     10  N   LIG    1        0.376   6.750   3.201  0.00  0.00    -0.251 NA
ATOM     11  C   LIG    1        1.148   7.073   4.210  0.00  0.00    +0.111 A 
BRANCH   8  12
ATOM     12  O   LIG    1       -1.269   6.104   1.051  0.00  0.00    -0.504 OA
ATOM     13  H   LIG    1       -2.147   6.135   1.456  0.00  0.00    +0.292 HD
ENDBRANCH   8  12
ENDBRANCH   1   7
BRANCH   1  14
ATOM     14  C   LIG    1       -0.616   3.912  -1.356  0.00  0.00    -0.023 A 
ATOM     15  C   LIG    1        0.437   3.149  -1.824  0.00  0.00    +0.006 A 
ATOM     16  C   LIG    1        1.061   3.486  -3.011  0.00  0.00    +0.013 A 
ATOM     17  C   LIG    1        0.637   4.591  -3.725  0.00  0.00    +0.055 A 
ATOM     18  C   LIG    1       -0.412   5.357  -3.254  0.00  0.00    +0.013 A 
ATOM     19  C   LIG    1       -1.039   5.018  -2.070  0.00  0.00    +0.006 A 
BRANCH  17  20
ATOM     20  C   LIG    1        1.320   4.961  -5.016  0.00  0.00    +0.417 C 
ATOM     21  F   LIG    1        0.404   5.590  -5.865  0.00  0.00    -0.166 F 
ATOM     22  F   LIG    1        1.809   3.804  -5.633  0.00  0.00    -0.166 F 
ATOM     23  F   LIG    1        2.383   5.832  -4.749  0.00  0.00    -0.166 F 
ENDBRANCH  17  20
ENDBRANCH   1  14
BRANCH   1  24
ATOM     24  N   LIG    1       -1.562   2.101  -0.046  0.00  0.00    -0.332 N 
ATOM     25  H   LIG    1       -1.006   1.500  -0.566  0.00  0.00    +0.147 HD
BRANCH  24  26
ATOM     26  C   LIG    1       -2.615   1.593   0.719  0.00  0.00    +0.046 A 
ATOM     27  C   LIG    1       -2.945   0.241   0.657  0.00  0.00    +0.026 A 
ATOM     28  C   LIG    1       -3.993  -0.217   1.438  0.00  0.00    +0.021 A 
ATOM     29  C   LIG    1       -4.671   0.675   2.248  0.00  0.00    +0.111 A 
ATOM     30  N   LIG    1       -4.335   1.949   2.284  0.00  0.00    -0.261 NA
ATOM     31  C   LIG    1       -3.344   2.426   1.556  0.00  0.00    +0.133 A 
ENDBRANCH  24  26
ENDBRANCH   1  24
TORSDOF 6
