REMARK  Name = ZINC00832319
REMARK                            x       y       z     vdW  Elec       q    Type
REMARK                         _______ _______ _______ _____ _____    ______ ____
ROOT
ATOM      1  C   LIG    1       -1.747   7.484   3.070  0.00  0.00    +0.061 C 
ATOM      2  C   LIG    1       -1.431   6.994   1.680  0.00  0.00    +0.021 C 
ATOM      3  C   LIG    1       -0.315   6.262   1.472  0.00  0.00    +0.078 C 
ATOM      4  C   LIG    1       -0.035   5.790   0.060  0.00  0.00    +0.143 C 
ATOM      5  N   LIG    1       -1.009   6.171  -0.977  0.00  0.00    -0.288 N 
ATOM      6  H   LIG    1       -0.884   5.899  -1.899  0.00  0.00    +0.151 HD
ATOM      7  C   LIG    1       -2.077   6.907  -0.613  0.00  0.00    +0.304 C 
ATOM      8  O   LIG    1       -2.887   7.226  -1.461  0.00  0.00    -0.252 OA
ATOM      9  N   LIG    1       -2.276   7.298   0.652  0.00  0.00    -0.273 N 
ATOM     10  H   LIG    1       -3.065   7.827   0.849  0.00  0.00    +0.156 HD
ENDROOT
BRANCH   4  11
ATOM     11  C   LIG    1        0.056   4.286   0.082  0.00  0.00    -0.022 A 
ATOM     12  C   LIG    1        1.292   3.668   0.094  0.00  0.00    +0.008 A 
ATOM     13  C   LIG    1        1.375   2.288   0.114  0.00  0.00    +0.033 A 
ATOM     14  C   LIG    1        0.221   1.526   0.123  0.00  0.00    +0.122 A 
ATOM     15  C   LIG    1       -1.015   2.144   0.107  0.00  0.00    +0.033 A 
ATOM     16  C   LIG    1       -1.098   3.524   0.092  0.00  0.00    +0.008 A 
BRANCH  14  17
ATOM     17  N   LIG    1        0.309   0.049   0.145  0.00  0.00    +0.006 N 
ATOM     18  O   LIG    1        1.399  -0.496   0.155  0.00  0.00    -0.130 OA
BRANCH  17  19
ATOM     19  O   LIG    1       -0.707  -0.622   0.153  0.00  0.00    -0.396 OA
ATOM     20  H   LIG    1       -1.545  -0.203   0.145  0.00  0.00    +0.329 HD
ENDBRANCH  17  19
ENDBRANCH  14  17
ENDBRANCH   4  11
BRANCH   3  21
ATOM     21  C   LIG    1        0.562   5.947   2.537  0.00  0.00    +0.339 C 
ATOM     22  O   LIG    1        0.370   6.417   3.642  0.00  0.00    -0.245 OA
BRANCH  21  23
ATOM     23  O   LIG    1        1.610   5.123   2.326  0.00  0.00    -0.458 OA
BRANCH  23  24
ATOM     24  C   LIG    1        2.454   4.848   3.445  0.00  0.00    +0.177 C 
ATOM     25  C   LIG    1        3.561   5.920   3.513  0.00  0.00    +0.044 C 
ATOM     26  C   LIG    1        4.112   5.950   4.913  0.00  0.00    +0.004 C 
ATOM     27  C   LIG    1        5.362   5.063   5.072  0.00  0.00    +0.000 C 
ATOM     28  C   LIG    1        5.231   3.712   4.344  0.00  0.00    +0.000 C 
ATOM     29  C   LIG    1        3.869   3.096   4.512  0.00  0.00    +0.004 C 
ATOM     30  C   LIG    1        2.995   3.503   3.309  0.00  0.00    +0.044 C 
ENDBRANCH  23  24
ENDBRANCH  21  23
ENDBRANCH   3  21
TORSDOF 6
