REMARK  Name = ZINC00822424
REMARK                            x       y       z     vdW  Elec       q    Type
REMARK                         _______ _______ _______ _____ _____    ______ ____
ROOT
ATOM      1  N   LIG    1       -0.353  -4.754   0.092  0.00  0.00    -0.189 N 
ATOM      2  C   LIG    1        0.484  -5.225  -0.929  0.00  0.00    +0.073 A 
ATOM      3  C   LIG    1        0.037  -5.312  -2.236  0.00  0.00    +0.026 A 
ATOM      4  C   LIG    1        0.889  -5.777  -3.222  0.00  0.00    +0.002 A 
ATOM      5  C   LIG    1        2.181  -6.152  -2.905  0.00  0.00    +0.002 A 
ATOM      6  C   LIG    1        2.633  -6.069  -1.601  0.00  0.00    +0.025 A 
ATOM      7  C   LIG    1        1.787  -5.606  -0.606  0.00  0.00    +0.056 A 
ATOM      8  N   LIG    1        2.221  -5.524   0.723  0.00  0.00    -0.282 N 
ATOM      9  H   LIG    1        3.038  -5.974   0.989  0.00  0.00    +0.155 HD
ATOM     10  C   LIG    1        1.516  -4.827   1.634  0.00  0.00    +0.240 C 
ATOM     11  O   LIG    1        1.887  -4.804   2.789  0.00  0.00    -0.273 OA
ATOM     12  C   LIG    1        0.272  -4.069   1.233  0.00  0.00    +0.192 C 
ENDROOT
BRANCH   1  13
ATOM     13  S   LIG    1       -1.995  -4.956   0.012  0.00  0.00    +0.076 S 
ATOM     14  O   LIG    1       -2.574  -3.838   0.671  0.00  0.00    -0.150 OA
ATOM     15  O   LIG    1       -2.298  -5.287  -1.336  0.00  0.00    -0.150 OA
BRANCH  13  21
ATOM     16  C   LIG    1       -3.355  -9.809   3.328  0.00  0.00    +0.044 C 
ATOM     17  C   LIG    1       -3.016  -8.597   2.500  0.00  0.00    -0.050 A 
ATOM     18  C   LIG    1       -2.575  -8.751   1.199  0.00  0.00    +0.008 A 
ATOM     19  C   LIG    1       -2.264  -7.639   0.439  0.00  0.00    -0.023 A 
ATOM     20  C   LIG    1       -1.783  -7.806  -0.980  0.00  0.00    +0.046 C 
ATOM     21  C   LIG    1       -2.393  -6.373   0.980  0.00  0.00    +0.115 A 
ATOM     22  C   LIG    1       -2.834  -6.220   2.281  0.00  0.00    -0.023 A 
ATOM     23  C   LIG    1       -2.975  -4.840   2.871  0.00  0.00    +0.046 C 
ATOM     24  C   LIG    1       -3.150  -7.332   3.039  0.00  0.00    +0.008 A 
ENDBRANCH  13  21
ENDBRANCH   1  13
BRANCH  12  25
ATOM     25  C   LIG    1        0.644  -2.640   0.832  0.00  0.00    +0.129 C 
BRANCH  25  26
ATOM     26  C   LIG    1        1.119  -1.885   2.047  0.00  0.00    +0.220 C 
ATOM     27  N   LIG    1        1.522  -0.605   1.929  0.00  0.00    -0.283 N 
ATOM     28  H   LIG    1        1.429  -0.143   1.081  0.00  0.00    +0.155 HD
ATOM     29  O   LIG    1        1.140  -2.431   3.130  0.00  0.00    -0.275 OA
BRANCH  27  30
ATOM     30  C   LIG    1        2.073   0.061   3.032  0.00  0.00    +0.076 A 
ATOM     31  C   LIG    1        2.619  -0.665   4.080  0.00  0.00    +0.027 A 
ATOM     32  C   LIG    1        3.163  -0.007   5.167  0.00  0.00    +0.002 A 
ATOM     33  C   LIG    1        3.163   1.375   5.213  0.00  0.00    +0.004 A 
ATOM     34  C   LIG    1        2.621   2.106   4.172  0.00  0.00    +0.047 A 
ATOM     35  C   LIG    1        2.079   1.453   3.077  0.00  0.00    +0.141 A 
BRANCH  35  36
ATOM     36  O   LIG    1        1.550   2.170   2.049  0.00  0.00    -0.493 OA
ATOM     37  C   LIG    1        1.591   3.594   2.163  0.00  0.00    +0.277 C 
ENDBRANCH  35  36
ENDBRANCH  27  30
ENDBRANCH  25  26
ENDBRANCH  12  25
TORSDOF 6
