REMARK  Name = ZINC01382382
REMARK                            x       y       z     vdW  Elec       q    Type
REMARK                         _______ _______ _______ _____ _____    ______ ____
ROOT
ATOM      1  C   LIG    1       -0.483   8.010   0.046  0.00  0.00    +0.001 A 
ATOM      2  C   LIG    1        0.868   8.299   0.035  0.00  0.00    +0.001 A 
ATOM      3  C   LIG    1        1.800   7.274   0.022  0.00  0.00    +0.012 A 
ATOM      4  C   LIG    1        1.375   5.951   0.019  0.00  0.00    +0.032 A 
ATOM      5  C   LIG    1        0.001   5.656   0.031  0.00  0.00    +0.014 A 
ATOM      6  C   LIG    1       -0.172   4.181   0.025  0.00  0.00    +0.105 A 
ATOM      7  C   LIG    1        1.103   3.584   0.010  0.00  0.00    +0.052 A 
ATOM      8  C   LIG    1        1.187   2.199   0.003  0.00  0.00    +0.044 A 
ATOM      9  C   LIG    1       -0.018   1.478   0.010  0.00  0.00    +0.094 A 
ATOM     10  N   LIG    1       -1.174   2.128   0.019  0.00  0.00    -0.149 NA
ATOM     11  N   LIG    1       -1.249   3.409   0.031  0.00  0.00    -0.148 NA
ATOM     12  C   LIG    1        2.115   4.666   0.006  0.00  0.00    +0.196 C 
ATOM     13  O   LIG    1        3.321   4.528  -0.006  0.00  0.00    -0.287 OA
ATOM     14  C   LIG    1       -0.921   6.695   0.044  0.00  0.00    +0.011 A 
ENDROOT
BRANCH   9  15
ATOM     15  C   LIG    1        0.002  -0.004   0.002  0.00  0.00    +0.002 A 
ATOM     16  C   LIG    1        1.218  -0.687  -0.019  0.00  0.00    +0.011 A 
ATOM     17  C   LIG    1        1.230  -2.067  -0.023  0.00  0.00    +0.016 A 
ATOM     18  C   LIG    1        0.040  -2.773  -0.015  0.00  0.00    +0.018 A 
ATOM     19 BR   LIG    1        0.065  -4.664  -0.026  0.00  0.00    -0.050 Br
ATOM     20  C   LIG    1       -1.170  -2.100   0.002  0.00  0.00    +0.016 A 
ATOM     21  C   LIG    1       -1.194  -0.720   0.010  0.00  0.00    +0.011 A 
ENDBRANCH   9  15
TORSDOF 1
