REMARK  Name = ZINC00839515
REMARK                            x       y       z     vdW  Elec       q    Type
REMARK                         _______ _______ _______ _____ _____    ______ ____
ROOT
ATOM      1  C   LIG    1       -1.191   6.103  -2.102  0.00  0.00    +0.172 A 
ATOM      2  N   LIG    1       -0.816   6.534  -3.290  0.00  0.00    -0.204 NA
ATOM      3  C   LIG    1        0.515   6.573  -3.361  0.00  0.00    +0.169 A 
ATOM      4  C   LIG    1        1.014   6.144  -2.135  0.00  0.00    +0.152 A 
ATOM      5  C   LIG    1        2.405   6.083  -1.944  0.00  0.00    +0.280 A 
ATOM      6  N   LIG    1        3.227   6.452  -2.948  0.00  0.00    -0.273 N 
ATOM      7  C   LIG    1        2.735   6.871  -4.127  0.00  0.00    +0.331 A 
ATOM      8  O   LIG    1        3.506   7.196  -5.010  0.00  0.00    -0.246 OA
ATOM      9  H   LIG    1        4.217   6.414  -2.814  0.00  0.00    +0.173 HD
ATOM     10  O   LIG    1        2.865   5.706  -0.880  0.00  0.00    -0.265 OA
ATOM     11  N   LIG    1        1.410   6.939  -4.354  0.00  0.00    -0.280 N 
ATOM     12  C   LIG    1        0.913   7.401  -5.653  0.00  0.00    +0.155 C 
ATOM     13  N   LIG    1       -0.089   5.843  -1.348  0.00  0.00    -0.309 N 
ENDROOT
BRANCH   1  14
ATOM     14  S   LIG    1       -2.859   5.897  -1.574  0.00  0.00    -0.076 S 
BRANCH  14  15
ATOM     15  C   LIG    1       -3.731   6.426  -3.069  0.00  0.00    +0.197 C 
BRANCH  15  16
ATOM     16  C   LIG    1       -5.218   6.331  -2.845  0.00  0.00    +0.317 C 
ATOM     17  O   LIG    1       -5.645   5.945  -1.782  0.00  0.00    -0.250 OA
BRANCH  16  18
ATOM     18  O   LIG    1       -6.068   6.675  -3.825  0.00  0.00    -0.464 OA
BRANCH  18  20
ATOM     19  C   LIG    1       -8.292   6.991  -4.765  0.00  0.00    +0.048 C 
ATOM     20  C   LIG    1       -7.486   6.558  -3.538  0.00  0.00    +0.229 C 
ENDBRANCH  18  20
ENDBRANCH  16  18
ENDBRANCH  15  16
ENDBRANCH  14  15
ENDBRANCH   1  14
BRANCH  13  21
ATOM     21  C   LIG    1       -0.070   5.347   0.031  0.00  0.00    +0.159 C 
BRANCH  21  22
ATOM     22  C   LIG    1       -0.050   3.840   0.022  0.00  0.00    -0.027 A 
ATOM     23  C   LIG    1        1.157   3.165   0.008  0.00  0.00    +0.005 A 
ATOM     24  C   LIG    1        1.175   1.783   0.000  0.00  0.00    +0.001 A 
ATOM     25  C   LIG    1       -0.013   1.076   0.008  0.00  0.00    +0.003 A 
ATOM     26  C   LIG    1       -1.219   1.750   0.017  0.00  0.00    -0.050 A 
ATOM     27  C   LIG    1       -2.514   0.979   0.019  0.00  0.00    +0.044 C 
ATOM     28  C   LIG    1       -1.238   3.133   0.029  0.00  0.00    +0.008 A 
ENDBRANCH  21  22
ENDBRANCH  13  21
TORSDOF 7
