REMARK  Name = ZINC00777985
REMARK                            x       y       z     vdW  Elec       q    Type
REMARK                         _______ _______ _______ _____ _____    ______ ____
ROOT
ATOM      1  C   LIG    1        1.266  -2.145  -0.022  0.00  0.00    +0.268 C 
ATOM      2  N   LIG    1        2.450  -2.789  -0.037  0.00  0.00    -0.259 N 
ATOM      3  H   LIG    1        3.278  -2.283  -0.042  0.00  0.00    +0.157 HD
ATOM      4  O   LIG    1        0.230  -2.779  -0.016  0.00  0.00    -0.268 OA
ENDROOT
BRANCH   1   9
ATOM      5  C   LIG    1       -0.017   1.381   0.010  0.00  0.00    +0.004 A 
ATOM      6  C   LIG    1        1.193   2.059   0.002  0.00  0.00    +0.020 A 
ATOM      7  C   LIG    1        2.376   1.338  -0.013  0.00  0.00    +0.111 A 
ATOM      8  N   LIG    1        2.365   0.023  -0.020  0.00  0.00    -0.250 NA
ATOM      9  C   LIG    1        1.229  -0.664  -0.013  0.00  0.00    +0.126 A 
ATOM     10  C   LIG    1        0.002  -0.004   0.002  0.00  0.00    +0.033 A 
ENDBRANCH   1   9
BRANCH   2  11
ATOM     11  C   LIG    1        2.485  -4.177  -0.045  0.00  0.00    +0.165 A 
ATOM     12  N   LIG    1        1.475  -5.021  -0.046  0.00  0.00    -0.233 NA
ATOM     13  C   LIG    1        1.676  -6.325  -0.055  0.00  0.00    +0.120 A 
ATOM     14  C   LIG    1        2.963  -6.751  -0.063  0.00  0.00    +0.068 A 
ATOM     15  S   LIG    1        3.830  -5.189  -0.064  0.00  0.00    -0.061 S 
ENDBRANCH   2  11
TORSDOF 2
