REMARK  Name = ZINC00706102
REMARK                            x       y       z     vdW  Elec       q    Type
REMARK                         _______ _______ _______ _____ _____    ______ ____
ROOT
ATOM      1  C   LIG    1       -5.157   1.662  -3.338  0.00  0.00    +0.034 C 
ATOM      2  C   LIG    1       -5.136   2.838  -2.370  0.00  0.00    +0.083 C 
ATOM      3  C   LIG    1       -4.346   2.471  -1.136  0.00  0.00    +0.115 C 
ATOM      4  C   LIG    1       -3.317   1.612  -1.210  0.00  0.00    +0.046 C 
ATOM      5  C   LIG    1       -2.950   1.019  -2.434  0.00  0.00    +0.164 C 
ATOM      6  O   LIG    1       -2.003   0.259  -2.468  0.00  0.00    -0.292 OA
ATOM      7  C   LIG    1       -2.519   1.253   0.020  0.00  0.00    +0.104 C 
ATOM      8  C   LIG    1       -3.302   1.596   1.257  0.00  0.00    +0.098 C 
ATOM      9  C   LIG    1       -4.344   2.460   1.191  0.00  0.00    +0.198 C 
ATOM     10  O   LIG    1       -4.703   3.036   0.033  0.00  0.00    -0.445 OA
ATOM     11  C   LIG    1       -3.710   1.309  -3.699  0.00  0.00    +0.088 C 
ENDROOT
BRANCH   7  12
ATOM     12  C   LIG    1       -1.224   2.023   0.019  0.00  0.00    +0.001 A 
ATOM     13  C   LIG    1       -1.242   3.405   0.032  0.00  0.00    +0.007 A 
ATOM     14  C   LIG    1       -0.054   4.112   0.025  0.00  0.00    +0.000 A 
ATOM     15  C   LIG    1        1.153   3.438   0.010  0.00  0.00    +0.003 A 
ATOM     16  C   LIG    1        1.173   2.056   0.002  0.00  0.00    +0.038 A 
ATOM     17  C   LIG    1       -0.016   1.347   0.009  0.00  0.00    +0.127 A 
ATOM     18  F   LIG    1        0.002  -0.004   0.002  0.00  0.00    -0.205 F 
ENDBRANCH   7  12
BRANCH   1  22
ATOM     19  C   LIG    1       -7.296   2.749  -6.872  0.00  0.00    +0.000 A 
ATOM     20  C   LIG    1       -7.719   1.675  -6.111  0.00  0.00    +0.000 A 
ATOM     21  C   LIG    1       -7.027   1.324  -4.967  0.00  0.00    +0.004 A 
ATOM     22  C   LIG    1       -5.912   2.046  -4.585  0.00  0.00    -0.043 A 
ATOM     23  C   LIG    1       -5.492   3.123  -5.343  0.00  0.00    +0.004 A 
ATOM     24  C   LIG    1       -6.181   3.472  -6.489  0.00  0.00    +0.000 A 
ENDBRANCH   1  22
BRANCH   9  25
ATOM     25  N   LIG    1       -5.046   2.753   2.333  0.00  0.00    -0.328 N 
ATOM     26  H   LIG    1       -5.794   3.371   2.298  0.00  0.00    +0.145 HD
ATOM     27  H   LIG    1       -4.796   2.344   3.176  0.00  0.00    +0.145 HD
ENDBRANCH   9  25
BRANCH   8  28
ATOM     28  C   LIG    1       -2.945   1.006   2.512  0.00  0.00    +0.101 C 
ATOM     29  N   LIG    1       -2.661   0.538   3.508  0.00  0.00    -0.191 NA
ENDBRANCH   8  28
TORSDOF 4
