REMARK  Name = ZINC01410743
REMARK                            x       y       z     vdW  Elec       q    Type
REMARK                         _______ _______ _______ _____ _____    ______ ____
ROOT
ATOM      1  C   LIG    1        5.287  -1.589  -1.585  0.00  0.00    +0.130 A 
ATOM      2  C   LIG    1        6.039  -2.003  -0.498  0.00  0.00    +0.047 A 
ATOM      3  C   LIG    1        7.231  -2.675  -0.695  0.00  0.00    +0.019 A 
ATOM      4  C   LIG    1        7.687  -2.930  -1.977  0.00  0.00    +0.019 A 
ATOM      5 BR   LIG    1        9.322  -3.845  -2.231  0.00  0.00    -0.050 Br
ATOM      6  C   LIG    1        6.952  -2.520  -3.071  0.00  0.00    +0.028 A 
ATOM      7  C   LIG    1        5.744  -1.845  -2.884  0.00  0.00    +0.039 A 
ENDROOT
BRANCH   7   8
ATOM      8  C   LIG    1        4.954  -1.404  -4.048  0.00  0.00    +0.160 C 
ATOM      9  N   LIG    1        3.831  -0.777  -3.870  0.00  0.00    -0.119 NA
BRANCH   9  10
ATOM     10  N   LIG    1        3.080  -0.358  -4.976  0.00  0.00    -0.158 N 
ATOM     11  H   LIG    1        3.442  -0.561  -5.995  0.00  0.00    +0.292 HD
BRANCH  10  12
ATOM     12  C   LIG    1        1.890   0.306  -4.788  0.00  0.00    +0.365 C 
ATOM     13  N   LIG    1        1.462   0.546  -3.580  0.00  0.00    -0.290 N 
ATOM     14  H   LIG    1        2.051   0.217  -2.712  0.00  0.00    +0.255 HD
ATOM     15  H   LIG    1        0.510   1.077  -3.429  0.00  0.00    +0.255 HD
BRANCH  12  16
ATOM     16  N   LIG    1        1.153   0.718  -5.874  0.00  0.00    -0.290 N 
ATOM     17  H   LIG    1        1.514   0.515  -6.893  0.00  0.00    +0.255 HD
ATOM     18  H   LIG    1        0.201   1.249  -5.723  0.00  0.00    +0.255 HD
ENDBRANCH  12  16
ENDBRANCH  10  12
ENDBRANCH   9  10
ENDBRANCH   7   8
BRANCH   1  19
ATOM     19  O   LIG    1        4.113  -0.932  -1.391  0.00  0.00    -0.487 OA
BRANCH  19  20
ATOM     20  C   LIG    1        3.711  -0.707  -0.039  0.00  0.00    +0.264 C 
BRANCH  20  24
ATOM     21  C   LIG    1       -0.017   1.378   0.010  0.00  0.00    +0.000 A 
ATOM     22  C   LIG    1        1.171   2.086   0.002  0.00  0.00    +0.000 A 
ATOM     23  C   LIG    1        2.377   1.411  -0.014  0.00  0.00    +0.007 A 
ATOM     24  C   LIG    1        2.396   0.029  -0.022  0.00  0.00    -0.010 A 
ATOM     25  C   LIG    1        1.208  -0.679  -0.014  0.00  0.00    +0.007 A 
ATOM     26  C   LIG    1        0.002  -0.004   0.002  0.00  0.00    +0.000 A 
ENDBRANCH  20  24
ENDBRANCH  19  20
ENDBRANCH   1  19
TORSDOF 7
