REMARK  Name = ZINC00836095
REMARK                            x       y       z     vdW  Elec       q    Type
REMARK                         _______ _______ _______ _____ _____    ______ ____
ROOT
ATOM      1  C   LIG    1        5.848  -0.832   1.188  0.00  0.00    +0.107 C 
ENDROOT
BRANCH   1   2
ATOM      2  C   LIG    1        6.339  -1.933   2.093  0.00  0.00    +0.241 C 
ATOM      3  N   LIG    1        6.867  -3.054   1.565  0.00  0.00    -0.197 N 
ATOM      4  H   LIG    1        6.999  -3.124   0.607  0.00  0.00    +0.182 HD
ATOM      5  O   LIG    1        6.258  -1.809   3.297  0.00  0.00    -0.273 OA
BRANCH   3   6
ATOM      6  O   LIG    1        7.231  -4.132   2.409  0.00  0.00    -0.295 OA
ATOM      7  H   LIG    1        7.601  -4.892   1.940  0.00  0.00    +0.241 HD
ENDBRANCH   3   6
ENDBRANCH   1   2
BRANCH   1   8
ATOM      8  C   LIG    1        6.904   0.272   1.109  0.00  0.00    +0.131 C 
BRANCH   8  13
ATOM      9  C   LIG    1       10.467  -2.665   0.243  0.00  0.00    +0.041 C 
ATOM     10  C   LIG    1       10.186  -1.165   0.130  0.00  0.00    +0.109 C 
ATOM     11  C   LIG    1       11.483  -0.365   0.263  0.00  0.00    +0.041 C 
ATOM     12  C   LIG    1        9.180  -0.727   1.176  0.00  0.00    +0.246 C 
ATOM     13  N   LIG    1        8.120  -0.259   0.487  0.00  0.00    -0.223 N 
ATOM     14  C   LIG    1        8.318  -0.334  -0.834  0.00  0.00    +0.312 C 
ATOM     15  O   LIG    1        7.505   0.032  -1.660  0.00  0.00    -0.252 OA
ATOM     16  O   LIG    1        9.303  -0.785   2.380  0.00  0.00    -0.273 OA
ATOM     17  N   LIG    1        9.516  -0.859  -1.145  0.00  0.00    -0.274 N 
ATOM     18  C   LIG    1       10.051  -1.082  -2.491  0.00  0.00    +0.134 C 
ENDBRANCH   8  13
ENDBRANCH   1   8
BRANCH   1  19
ATOM     19  C   LIG    1        4.547  -0.254   1.747  0.00  0.00    +0.089 C 
BRANCH  19  20
ATOM     20  C   LIG    1        3.507  -1.342   1.825  0.00  0.00    +0.219 C 
ATOM     21  N   LIG    1        2.979  -1.685   3.016  0.00  0.00    -0.301 N 
ATOM     22  C   LIG    1        1.889  -2.667   3.097  0.00  0.00    +0.108 C 
ATOM     23  C   LIG    1        0.726  -2.050   3.881  0.00  0.00    +0.019 C 
ATOM     24  C   LIG    1        1.235  -1.563   5.240  0.00  0.00    +0.003 C 
ATOM     25  C   LIG    1        2.302  -0.486   5.030  0.00  0.00    +0.019 C 
ATOM     26  C   LIG    1        3.482  -1.085   4.259  0.00  0.00    +0.108 C 
ATOM     27  O   LIG    1        3.144  -1.908   0.815  0.00  0.00    -0.275 OA
ENDBRANCH  19  20
BRANCH  19  28
ATOM     28  C   LIG    1        4.049   0.863   0.828  0.00  0.00    +0.017 C 
BRANCH  28  29
ATOM     29  C   LIG    1        2.846   1.556   1.472  0.00  0.00    -0.010 C 
ATOM     30  C   LIG    1        1.631   0.606   1.479  0.00  0.00    +0.003 C 
ATOM     31  C   LIG    1        0.422   1.536   1.205  0.00  0.00    +0.000 C 
ATOM     32  C   LIG    1        0.991   2.541   0.173  0.00  0.00    +0.000 C 
ATOM     33  C   LIG    1        2.439   2.786   0.643  0.00  0.00    +0.003 C 
ENDBRANCH  28  29
ENDBRANCH  19  28
ENDBRANCH   1  19
TORSDOF 8
