REMARK  Name = ZINC00752432
REMARK                            x       y       z     vdW  Elec       q    Type
REMARK                         _______ _______ _______ _____ _____    ______ ____
ROOT
ATOM      1  C   LIG    1        3.608  -1.219  -1.975  0.00  0.00    +0.034 C 
ATOM      2  C   LIG    1        3.779  -0.160  -0.885  0.00  0.00    +0.083 C 
ATOM      3  C   LIG    1        2.423   0.327  -0.431  0.00  0.00    +0.115 C 
ATOM      4  C   LIG    1        1.355  -0.492  -0.456  0.00  0.00    +0.046 C 
ATOM      5  C   LIG    1        1.463  -1.821  -0.909  0.00  0.00    +0.164 C 
ATOM      6  O   LIG    1        0.481  -2.536  -0.897  0.00  0.00    -0.292 OA
ATOM      7  C   LIG    1        0.002  -0.004   0.002  0.00  0.00    +0.102 C 
ATOM      8  C   LIG    1       -0.030   1.499   0.008  0.00  0.00    +0.098 C 
ATOM      9  C   LIG    1        1.125   2.209   0.003  0.00  0.00    +0.198 C 
ATOM     10  O   LIG    1        2.320   1.599  -0.002  0.00  0.00    -0.445 OA
ATOM     11  C   LIG    1        2.772  -2.371  -1.406  0.00  0.00    +0.088 C 
ENDROOT
BRANCH   7  12
ATOM     12  C   LIG    1       -0.269  -0.515   1.394  0.00  0.00    -0.027 A 
ATOM     13  C   LIG    1        0.616  -0.267   2.398  0.00  0.00    +0.005 A 
ATOM     14  C   LIG    1        0.381  -0.727   3.692  0.00  0.00    +0.001 A 
ATOM     15  C   LIG    1       -0.736  -1.447   3.987  0.00  0.00    +0.008 A 
ATOM     16  C   LIG    1       -1.669  -1.728   2.975  0.00  0.00    -0.018 A 
ATOM     17  C   LIG    1       -2.834  -2.469   3.242  0.00  0.00    +0.008 A 
ATOM     18  C   LIG    1       -3.716  -2.721   2.237  0.00  0.00    +0.001 A 
ATOM     19  C   LIG    1       -3.483  -2.256   0.944  0.00  0.00    +0.001 A 
ATOM     20  C   LIG    1       -2.366  -1.537   0.648  0.00  0.00    +0.009 A 
ATOM     21  C   LIG    1       -1.432  -1.256   1.660  0.00  0.00    -0.014 A 
ENDBRANCH   7  12
BRANCH   1  25
ATOM     22  C   LIG    1        7.439  -2.680  -3.172  0.00  0.00    +0.000 A 
ATOM     23  C   LIG    1        6.603  -2.092  -4.102  0.00  0.00    +0.000 A 
ATOM     24  C   LIG    1        5.363  -1.619  -3.715  0.00  0.00    +0.004 A 
ATOM     25  C   LIG    1        4.959  -1.735  -2.398  0.00  0.00    -0.043 A 
ATOM     26  C   LIG    1        5.798  -2.318  -1.467  0.00  0.00    +0.004 A 
ATOM     27  C   LIG    1        7.036  -2.795  -1.855  0.00  0.00    +0.000 A 
ENDBRANCH   1  25
BRANCH   9  28
ATOM     28  N   LIG    1        1.070   3.580   0.003  0.00  0.00    -0.328 N 
ATOM     29  H   LIG    1        1.890   4.099  -0.001  0.00  0.00    +0.145 HD
ATOM     30  H   LIG    1        0.211   4.032   0.006  0.00  0.00    +0.145 HD
ENDBRANCH   9  28
BRANCH   8  31
ATOM     31  C   LIG    1       -1.287   2.184   0.013  0.00  0.00    +0.101 C 
ATOM     32  N   LIG    1       -2.284   2.728   0.017  0.00  0.00    -0.191 NA
ENDBRANCH   8  31
TORSDOF 4
