REMARK  Name = ZINC01144265
REMARK                            x       y       z     vdW  Elec       q    Type
REMARK                         _______ _______ _______ _____ _____    ______ ____
ROOT
ATOM      1  C   LIG    1        0.157   0.365   7.159  0.00  0.00    +0.034 A 
ATOM      2  C   LIG    1        0.125   1.750   7.042  0.00  0.00    +0.024 A 
ATOM      3  C   LIG    1        0.214   2.540   8.166  0.00  0.00    +0.015 A 
ATOM      4  C   LIG    1        0.336   1.949   9.426  0.00  0.00    +0.037 A 
ATOM      5  C   LIG    1        0.367   0.557   9.540  0.00  0.00    +0.015 A 
ATOM      6  C   LIG    1        0.272  -0.228   8.412  0.00  0.00    +0.024 A 
ENDROOT
BRANCH   4   7
ATOM      7  C   LIG    1        0.431   2.793  10.634  0.00  0.00    +0.228 A 
ATOM      8  N   LIG    1        0.407   4.102  10.639  0.00  0.00    -0.209 NA
ATOM      9  C   LIG    1        0.517   4.536  11.921  0.00  0.00    +0.113 A 
ATOM     10  C   LIG    1        0.547   5.802  12.511  0.00  0.00    +0.051 A 
ATOM     11  C   LIG    1        0.670   5.916  13.879  0.00  0.00    +0.045 A 
ATOM     12 CL   LIG    1        0.709   7.488  14.613  0.00  0.00    -0.083 Cl
ATOM     13  C   LIG    1        0.765   4.781  14.672  0.00  0.00    +0.043 A 
ATOM     14  C   LIG    1        0.737   3.524  14.103  0.00  0.00    +0.087 A 
ATOM     15 CL   LIG    1        0.858   2.112  15.105  0.00  0.00    -0.080 Cl
ATOM     16  C   LIG    1        0.613   3.391  12.727  0.00  0.00    +0.174 A 
ATOM     17  O   LIG    1        0.551   2.329  11.892  0.00  0.00    -0.434 OA
ENDBRANCH   4   7
BRANCH   1  19
ATOM     18  C   LIG    1        0.635  -0.028   4.864  0.00  0.00    +0.255 C 
ATOM     19  N   LIG    1        0.066  -0.433   6.017  0.00  0.00    -0.283 N 
ATOM     20  H   LIG    1       -0.406  -1.280   6.053  0.00  0.00    +0.155 HD
ATOM     21  O   LIG    1        1.153   1.067   4.796  0.00  0.00    -0.272 OA
BRANCH  18  22
ATOM     22  C   LIG    1        0.628  -0.934   3.660  0.00  0.00    +0.324 C 
BRANCH  22  23
ATOM     23  O   LIG    1        1.286  -0.285   2.571  0.00  0.00    -0.483 OA
BRANCH  23  30
ATOM     24  C   LIG    1        2.583   0.982   0.405  0.00  0.00    +0.047 C 
ATOM     25  C   LIG    1        1.992  -0.401   0.302  0.00  0.00    -0.009 A 
ATOM     26  C   LIG    1        2.078  -1.103  -0.884  0.00  0.00    +0.007 A 
ATOM     27  C   LIG    1        1.536  -2.371  -0.979  0.00  0.00    +0.000 A 
ATOM     28  C   LIG    1        0.907  -2.940   0.113  0.00  0.00    +0.004 A 
ATOM     29  C   LIG    1        0.819  -2.242   1.302  0.00  0.00    +0.046 A 
ATOM     30  C   LIG    1        1.367  -0.971   1.401  0.00  0.00    +0.124 A 
ENDBRANCH  23  30
ENDBRANCH  22  23
ENDBRANCH  18  22
ENDBRANCH   1  19
TORSDOF 5
