REMARK  Name = ZINC00781683
REMARK                            x       y       z     vdW  Elec       q    Type
REMARK                         _______ _______ _______ _____ _____    ______ ____
ROOT
ATOM      1  C   LIG    1        1.050   0.634  -4.776  0.00  0.00    +0.061 C 
ATOM      2  C   LIG    1       -0.259   1.380  -4.726  0.00  0.00    +0.016 C 
ATOM      3  C   LIG    1       -0.942   1.451  -3.571  0.00  0.00    +0.066 C 
ATOM      4  C   LIG    1       -2.242   2.196  -3.480  0.00  0.00    +0.099 C 
ATOM      5  C   LIG    1       -2.833   2.422  -4.849  0.00  0.00    +0.024 C 
ATOM      6  C   LIG    1       -2.069   2.310  -5.956  0.00  0.00    +0.016 C 
ATOM      7  C   LIG    1       -2.650   2.546  -7.328  0.00  0.00    +0.060 C 
ATOM      8  C   LIG    1       -4.128   2.150  -7.335  0.00  0.00    +0.039 C 
ATOM      9  C   LIG    1       -4.858   2.975  -6.270  0.00  0.00    +0.088 C 
ATOM     10  C   LIG    1       -4.197   2.750  -4.938  0.00  0.00    +0.162 C 
ATOM     11  O   LIG    1       -4.854   2.853  -3.921  0.00  0.00    -0.292 OA
ATOM     12  N   LIG    1       -0.745   1.975  -5.856  0.00  0.00    -0.321 N 
ATOM     13  H   LIG    1       -0.071   2.190  -6.698  0.00  0.00    +0.152 HD
ENDROOT
BRANCH   4  14
ATOM     14  C   LIG    1       -2.003   3.529  -2.818  0.00  0.00    +0.002 A 
ATOM     15  C   LIG    1       -2.542   4.025  -1.677  0.00  0.00    +0.012 A 
ATOM     16  C   LIG    1       -2.169   5.286  -1.253  0.00  0.00    +0.008 A 
ATOM     17  C   LIG    1       -1.283   5.995  -1.995  0.00  0.00    +0.045 A 
ATOM     18  S   LIG    1       -0.942   4.868  -3.337  0.00  0.00    -0.101 S 
ENDBRANCH   4  14
BRANCH   8  19
ATOM     19  C   LIG    1       -4.722   2.434  -8.691  0.00  0.00    -0.006 A 
ATOM     20  C   LIG    1       -5.314   1.579  -9.560  0.00  0.00    +0.011 A 
ATOM     21  C   LIG    1       -5.793   2.068 -10.761  0.00  0.00    +0.008 A 
ATOM     22  C   LIG    1       -5.656   3.389 -11.034  0.00  0.00    +0.045 A 
ATOM     23  S   LIG    1       -4.835   3.987  -9.566  0.00  0.00    -0.101 S 
ENDBRANCH   8  19
BRANCH   3  24
ATOM     24  C   LIG    1       -0.424   0.817  -2.417  0.00  0.00    +0.338 C 
ATOM     25  O   LIG    1        0.565   0.113  -2.503  0.00  0.00    -0.245 OA
BRANCH  24  26
ATOM     26  O   LIG    1       -1.026   0.993  -1.222  0.00  0.00    -0.457 OA
BRANCH  26  27
ATOM     27  C   LIG    1       -0.449   0.322  -0.100  0.00  0.00    +0.268 C 
BRANCH  27  28
ATOM     28  C   LIG    1       -1.250   0.634   1.137  0.00  0.00    -0.010 A 
ATOM     29  C   LIG    1       -0.917   1.725   1.918  0.00  0.00    +0.010 A 
ATOM     30  C   LIG    1       -1.653   2.016   3.050  0.00  0.00    +0.046 A 
ATOM     31  C   LIG    1       -2.720   1.206   3.410  0.00  0.00    +0.120 A 
ATOM     32  C   LIG    1       -3.049   0.108   2.628  0.00  0.00    +0.046 A 
ATOM     33  C   LIG    1       -2.313  -0.176   1.494  0.00  0.00    +0.010 A 
BRANCH  31  34
ATOM     34  O   LIG    1       -3.443   1.487   4.526  0.00  0.00    -0.495 OA
ATOM     35  C   LIG    1       -3.048   2.633   5.283  0.00  0.00    +0.277 C 
ENDBRANCH  31  34
ENDBRANCH  27  28
ENDBRANCH  26  27
ENDBRANCH  24  26
ENDBRANCH   3  24
TORSDOF 7
