REMARK  Name = ZINC01176209
REMARK                            x       y       z     vdW  Elec       q    Type
REMARK                         _______ _______ _______ _____ _____    ______ ____
ROOT
ATOM      1  C   LIG    1       -5.123   3.410   3.449  0.00  0.00    +0.040 C 
ATOM      2  C   LIG    1       -5.088   2.224   2.484  0.00  0.00    +0.084 C 
ATOM      3  C   LIG    1       -4.327   2.607   1.236  0.00  0.00    +0.115 C 
ATOM      4  C   LIG    1       -3.320   3.497   1.292  0.00  0.00    +0.046 C 
ATOM      5  C   LIG    1       -2.950   4.109   2.505  0.00  0.00    +0.164 C 
ATOM      6  O   LIG    1       -2.024   4.895   2.518  0.00  0.00    -0.292 OA
ATOM      7  C   LIG    1       -2.553   3.869   0.045  0.00  0.00    +0.101 C 
ATOM      8  C   LIG    1       -3.345   3.499  -1.177  0.00  0.00    +0.098 C 
ATOM      9  C   LIG    1       -4.362   2.607  -1.091  0.00  0.00    +0.198 C 
ATOM     10  O   LIG    1       -4.687   2.027   0.075  0.00  0.00    -0.445 OA
ATOM     11  C   LIG    1       -3.681   3.807   3.784  0.00  0.00    +0.088 C 
ENDROOT
BRANCH   7  12
ATOM     12  C   LIG    1       -1.238   3.133   0.030  0.00  0.00    -0.034 A 
ATOM     13  C   LIG    1       -1.219   1.751   0.017  0.00  0.00    +0.007 A 
ATOM     14  C   LIG    1       -0.013   1.076   0.008  0.00  0.00    +0.033 A 
ATOM     15  C   LIG    1        1.175   1.783   0.000  0.00  0.00    +0.122 A 
ATOM     16  C   LIG    1        1.156   3.165   0.008  0.00  0.00    +0.033 A 
ATOM     17  C   LIG    1       -0.050   3.840   0.022  0.00  0.00    +0.007 A 
BRANCH  15  18
ATOM     18  N   LIG    1        2.467   1.061  -0.016  0.00  0.00    +0.006 N 
ATOM     19  O   LIG    1        2.483  -0.157  -0.023  0.00  0.00    -0.130 OA
BRANCH  18  20
ATOM     20  O   LIG    1        3.513   1.684  -0.022  0.00  0.00    -0.396 OA
ATOM     21  H   LIG    1        3.500   2.621  -0.017  0.00  0.00    +0.329 HD
ENDBRANCH  18  20
ENDBRANCH  15  18
ENDBRANCH   7  12
BRANCH   1  24
ATOM     22  C   LIG    1       -7.467   3.022   6.427  0.00  0.00    +0.008 A 
ATOM     23  C   LIG    1       -6.972   3.551   5.250  0.00  0.00    +0.011 A 
ATOM     24  C   LIG    1       -5.850   3.016   4.709  0.00  0.00    -0.006 A 
ATOM     25  S   LIG    1       -5.463   1.718   5.872  0.00  0.00    -0.101 S 
ATOM     26  C   LIG    1       -6.816   1.982   7.005  0.00  0.00    +0.045 A 
ENDBRANCH   1  24
BRANCH   9  27
ATOM     27  N   LIG    1       -5.075   2.290  -2.220  0.00  0.00    -0.328 N 
ATOM     28  H   LIG    1       -5.805   1.653  -2.170  0.00  0.00    +0.145 HD
ATOM     29  H   LIG    1       -4.849   2.703  -3.068  0.00  0.00    +0.145 HD
ENDBRANCH   9  27
BRANCH   8  30
ATOM     30  C   LIG    1       -3.025   4.093  -2.440  0.00  0.00    +0.101 C 
ATOM     31  N   LIG    1       -2.770   4.564  -3.442  0.00  0.00    -0.191 NA
ENDBRANCH   8  30
TORSDOF 6
