REMARK  Name = ZINC00895186
REMARK                            x       y       z     vdW  Elec       q    Type
REMARK                         _______ _______ _______ _____ _____    ______ ____
ROOT
ATOM      1  C   LIG    1        1.541  -2.132  -0.045  0.00  0.00    +0.164 C 
ATOM      2  O   LIG    1        2.654  -2.610   0.028  0.00  0.00    -0.292 OA
ENDROOT
BRANCH   1   7
ATOM      3  C   LIG    1       -0.076   1.247   0.031  0.00  0.00    +0.001 A 
ATOM      4  C   LIG    1        1.032   2.080   0.013  0.00  0.00    +0.002 A 
ATOM      5  C   LIG    1        2.305   1.551  -0.023  0.00  0.00    +0.023 A 
ATOM      6  C   LIG    1        2.487   0.173  -0.043  0.00  0.00    +0.035 A 
ATOM      7  C   LIG    1        1.365  -0.676  -0.025  0.00  0.00    +0.038 A 
ATOM      8  C   LIG    1        0.080  -0.121   0.013  0.00  0.00    +0.013 A 
BRANCH   6   9
ATOM      9  N   LIG    1        3.766  -0.361  -0.080  0.00  0.00    -0.357 N 
ATOM     10  H   LIG    1        3.893  -1.321  -0.013  0.00  0.00    +0.142 HD
ATOM     11  H   LIG    1        4.534   0.224  -0.172  0.00  0.00    +0.142 HD
ENDBRANCH   6   9
ENDBRANCH   1   7
BRANCH   1  12
ATOM     12  C   LIG    1        0.339  -3.034  -0.157  0.00  0.00    +0.074 C 
BRANCH  12  13
ATOM     13  CA  LIG    1        0.796  -4.494  -0.156  0.00  0.00    +0.043 C 
BRANCH  13  14
ATOM     14  N   LIG    1        1.594  -4.758  -1.361  0.00  0.00    +0.387 N 
ATOM     15  H1  LIG    1        1.033  -4.582  -2.181  0.00  0.00    -0.089 HD
ATOM     16  H2  LIG    1        1.895  -5.721  -1.361  0.00  0.00    -0.089 HD
ATOM     17  H3  LIG    1        2.401  -4.153  -1.369  0.00  0.00    -0.089 HD
ENDBRANCH  13  14
BRANCH  13  18
ATOM     18  C   LIG    1       -0.410  -5.398  -0.145  0.00  0.00    +0.290 C 
ATOM     19  O   LIG    1       -0.906  -5.766  -1.196  0.00  0.00    -0.253 OA
BRANCH  18  20
ATOM     20  OXT LIG    1       -0.890  -5.760   0.916  0.00  0.00    -0.482 OA
ATOM     21  HXT LIG    1       -0.509  -5.477   1.724  0.00  0.00    +0.295 HD
ENDBRANCH  18  20
ENDBRANCH  13  18
ENDBRANCH  12  13
ENDBRANCH   1  12
TORSDOF 7
