REMARK  Name = ZINC01169970
REMARK                            x       y       z     vdW  Elec       q    Type
REMARK                         _______ _______ _______ _____ _____    ______ ____
ROOT
ATOM      1  C   LIG    1        1.248   1.716  -0.001  0.00  0.00    +0.137 C 
ENDROOT
BRANCH   1   2
ATOM      2  C   LIG    1        1.629   2.071   1.413  0.00  0.00    +0.022 A 
ATOM      3  C   LIG    1        1.162   1.290   2.467  0.00  0.00    +0.030 A 
ATOM      4  C   LIG    1        1.489   1.585   3.756  0.00  0.00    +0.051 A 
ATOM      5 CL   LIG    1        0.896   0.597   5.054  0.00  0.00    -0.083 Cl
ATOM      6  C   LIG    1        2.310   2.692   4.030  0.00  0.00    +0.022 A 
ATOM      7  C   LIG    1        2.670   3.029   5.349  0.00  0.00    +0.013 A 
ATOM      8  C   LIG    1        3.471   4.118   5.540  0.00  0.00    +0.020 A 
ATOM      9  C   LIG    1        3.907   4.861   4.445  0.00  0.00    +0.111 A 
ATOM     10  N   LIG    1        3.570   4.544   3.218  0.00  0.00    -0.251 NA
ATOM     11  C   LIG    1        2.789   3.491   2.963  0.00  0.00    +0.114 A 
ATOM     12  C   LIG    1        2.433   3.152   1.641  0.00  0.00    +0.148 A 
BRANCH  12  13
ATOM     13  O   LIG    1        2.884   3.899   0.599  0.00  0.00    -0.504 OA
ATOM     14  H   LIG    1        3.531   4.769   0.786  0.00  0.00    +0.292 HD
ENDBRANCH  12  13
ENDBRANCH   1   2
BRANCH   1  18
ATOM     15  C   LIG    1        4.324  -0.683  -1.745  0.00  0.00    +0.120 A 
ATOM     16  C   LIG    1        4.254   0.672  -2.030  0.00  0.00    +0.046 A 
ATOM     17  C   LIG    1        3.259   1.446  -1.466  0.00  0.00    +0.009 A 
ATOM     18  C   LIG    1        2.332   0.870  -0.616  0.00  0.00    -0.022 A 
ATOM     19  C   LIG    1        2.403  -0.480  -0.326  0.00  0.00    +0.009 A 
ATOM     20  C   LIG    1        3.393  -1.259  -0.893  0.00  0.00    +0.046 A 
BRANCH  15  22
ATOM     21  C   LIG    1        5.313  -2.834  -1.961  0.00  0.00    +0.277 C 
ATOM     22  O   LIG    1        5.303  -1.446  -2.300  0.00  0.00    -0.495 OA
ENDBRANCH  15  22
ENDBRANCH   1  18
BRANCH   1  23
ATOM     23  N   LIG    1       -0.011   0.966   0.007  0.00  0.00    -0.302 N 
ATOM     24  H   LIG    1        0.004  -0.134   0.006  0.00  0.00    +0.150 HD
ATOM     25  C   LIG    1       -1.187   1.624   0.017  0.00  0.00    +0.251 C 
ATOM     26  O   LIG    1       -1.204   2.837   0.023  0.00  0.00    -0.272 OA
BRANCH  25  27
ATOM     27  C   LIG    1       -2.482   0.853   0.018  0.00  0.00    +0.324 C 
BRANCH  27  28
ATOM     28  O   LIG    1       -3.581   1.766   0.029  0.00  0.00    -0.483 OA
BRANCH  28  29
ATOM     29  C   LIG    1       -4.829   1.230   0.032  0.00  0.00    +0.121 A 
ATOM     30  C   LIG    1       -4.994  -0.148   0.019  0.00  0.00    +0.045 A 
ATOM     31  C   LIG    1       -6.264  -0.690   0.029  0.00  0.00    +0.004 A 
ATOM     32  C   LIG    1       -7.371   0.138   0.038  0.00  0.00    +0.000 A 
ATOM     33  C   LIG    1       -7.210   1.511   0.044  0.00  0.00    +0.004 A 
ATOM     34  C   LIG    1       -5.942   2.059   0.041  0.00  0.00    +0.045 A 
ENDBRANCH  28  29
ENDBRANCH  27  28
ENDBRANCH  25  27
ENDBRANCH   1  23
TORSDOF 8
