REMARK  Name = ZINC01113226
REMARK                            x       y       z     vdW  Elec       q    Type
REMARK                         _______ _______ _______ _____ _____    ______ ____
ROOT
ATOM      1  C   LIG    1        3.601  -1.940   0.931  0.00  0.00    +0.101 A 
ATOM      2  C   LIG    1        4.121  -2.947   1.783  0.00  0.00    +0.013 A 
ATOM      3  C   LIG    1        3.366  -3.543   2.797  0.00  0.00    +0.011 A 
ATOM      4  C   LIG    1        3.934  -4.507   3.577  0.00  0.00    +0.001 A 
ATOM      5  C   LIG    1        5.254  -4.904   3.379  0.00  0.00    +0.001 A 
ATOM      6  C   LIG    1        6.018  -4.342   2.398  0.00  0.00    +0.012 A 
ATOM      7  C   LIG    1        5.464  -3.352   1.580  0.00  0.00    +0.026 A 
ATOM      8  C   LIG    1        6.192  -2.723   0.543  0.00  0.00    +0.152 A 
ATOM      9  N   LIG    1        5.596  -1.794  -0.186  0.00  0.00    -0.133 NA
ATOM     10  N   LIG    1        4.380  -1.431  -0.007  0.00  0.00    -0.147 NA
ENDROOT
BRANCH   8  11
ATOM     11  N   LIG    1        7.508  -3.073   0.295  0.00  0.00    -0.310 N 
ATOM     12  C   LIG    1        7.835  -4.073  -0.732  0.00  0.00    +0.125 C 
ATOM     13  C   LIG    1        8.826  -3.451  -1.723  0.00  0.00    +0.127 C 
ATOM     14  N   LIG    1        9.921  -2.830  -0.966  0.00  0.00    -0.294 N 
ATOM     15  C   LIG    1       11.202  -3.171  -1.207  0.00  0.00    +0.253 C 
ATOM     16  O   LIG    1       12.085  -2.785  -0.464  0.00  0.00    -0.269 OA
ATOM     17  C   LIG    1        9.594  -1.830   0.061  0.00  0.00    +0.127 C 
ATOM     18  C   LIG    1        8.604  -2.448   1.048  0.00  0.00    +0.125 C 
BRANCH  15  19
ATOM     19  C   LIG    1       11.532  -4.007  -2.365  0.00  0.00    +0.074 A 
ATOM     20  C   LIG    1       12.741  -4.598  -2.701  0.00  0.00    +0.021 A 
ATOM     21  C   LIG    1       12.744  -5.333  -3.862  0.00  0.00    +0.008 A 
ATOM     22  C   LIG    1       11.600  -5.431  -4.583  0.00  0.00    +0.046 A 
ATOM     23  S   LIG    1       10.482  -4.536  -3.705  0.00  0.00    -0.092 S 
ENDBRANCH  15  19
ENDBRANCH   8  11
BRANCH   1  27
ATOM     24  C   LIG    1       -0.404  -0.589   1.379  0.00  0.00    +0.000 A 
ATOM     25  C   LIG    1        0.431  -0.647   2.481  0.00  0.00    +0.001 A 
ATOM     26  C   LIG    1        1.732  -1.085   2.342  0.00  0.00    +0.010 A 
ATOM     27  C   LIG    1        2.205  -1.469   1.087  0.00  0.00    +0.003 A 
ATOM     28  C   LIG    1        1.359  -1.408  -0.020  0.00  0.00    +0.010 A 
ATOM     29  C   LIG    1        0.060  -0.968   0.132  0.00  0.00    +0.001 A 
ENDBRANCH   1  27
TORSDOF 3
