REMARK  Name = ZINC00815215
REMARK                            x       y       z     vdW  Elec       q    Type
REMARK                         _______ _______ _______ _____ _____    ______ ____
ROOT
ATOM      1  N   LIG    1       -0.110  -6.097  -1.690  0.00  0.00    -0.279 N 
ATOM      2  H   LIG    1       -0.293  -6.640  -0.907  0.00  0.00    +0.155 HD
ATOM      3  C   LIG    1       -0.048  -6.670  -2.908  0.00  0.00    +0.287 C 
ATOM      4  O   LIG    1        0.272  -6.008  -3.876  0.00  0.00    -0.266 OA
ENDROOT
BRANCH   3   5
ATOM      5  C   LIG    1       -0.371  -8.107  -3.068  0.00  0.00    +0.239 A 
ATOM      6  N   LIG    1       -0.739  -8.929  -2.083  0.00  0.00    -0.185 NA
ATOM      7  C   LIG    1       -0.953 -10.143  -2.569  0.00  0.00    +0.254 A 
ATOM      8  N   LIG    1       -1.331 -11.292  -1.994  0.00  0.00    -0.216 NA
ATOM      9  C   LIG    1       -1.477 -12.386  -2.705  0.00  0.00    +0.044 A 
ATOM     10  C   LIG    1       -1.903 -13.665  -2.032  0.00  0.00    +0.066 C 
ATOM     11  C   LIG    1       -1.238 -12.370  -4.086  0.00  0.00    +0.052 A 
ATOM     12  C   LIG    1       -0.855 -11.211  -4.679  0.00  0.00    +0.113 A 
ATOM     13  N   LIG    1       -0.712 -10.093  -3.916  0.00  0.00    -0.195 N 
ATOM     14  N   LIG    1       -0.345  -8.773  -4.207  0.00  0.00    -0.138 NA
BRANCH  12  15
ATOM     15  C   LIG    1       -0.591 -11.163  -6.162  0.00  0.00    +0.390 C 
ATOM     16  F   LIG    1       -1.456 -10.240  -6.760  0.00  0.00    -0.202 F 
ATOM     17  F   LIG    1       -0.806 -12.430  -6.716  0.00  0.00    -0.202 F 
ENDBRANCH  12  15
ENDBRANCH   3   5
BRANCH   1  21
ATOM     18  C   LIG    1        0.490  -1.995  -1.287  0.00  0.00    +0.014 A 
ATOM     19  C   LIG    1        0.920  -2.856  -0.294  0.00  0.00    +0.023 A 
ATOM     20  C   LIG    1        0.723  -4.216  -0.424  0.00  0.00    +0.025 A 
ATOM     21  C   LIG    1        0.091  -4.720  -1.554  0.00  0.00    +0.034 A 
ATOM     22  C   LIG    1       -0.340  -3.852  -2.550  0.00  0.00    +0.025 A 
ATOM     23  C   LIG    1       -0.144  -2.492  -2.410  0.00  0.00    +0.023 A 
BRANCH  18  24
ATOM     24  N   LIG    1        0.691  -0.618  -1.151  0.00  0.00    -0.394 NA
ATOM     25  H   LIG    1        0.316  -0.142  -1.958  0.00  0.00    +0.126 HD
BRANCH  24  27
ATOM     26  C   LIG    1       -1.498  -0.340  -0.090  0.00  0.00    +0.022 C 
ATOM     27  C   LIG    1        0.011  -0.140   0.060  0.00  0.00    +0.081 C 
ENDBRANCH  24  27
BRANCH  24  28
ATOM     28  C   LIG    1        2.130  -0.342  -1.046  0.00  0.00    +0.081 C 
ATOM     29  C   LIG    1        2.823  -0.738  -2.352  0.00  0.00    +0.022 C 
ENDBRANCH  24  28
ENDBRANCH  18  24
ENDBRANCH   1  21
TORSDOF 6
