REMARK  Name = ZINC00897385
REMARK                            x       y       z     vdW  Elec       q    Type
REMARK                         _______ _______ _______ _____ _____    ______ ____
ROOT
ATOM      1  C   LIG    1        3.671   2.185  -0.023  0.00  0.00    +0.170 C 
ENDROOT
BRANCH   1   4
ATOM      2  C   LIG    1       -0.017   1.379   0.010  0.00  0.00    +0.020 A 
ATOM      3  C   LIG    1        1.171   2.087   0.002  0.00  0.00    +0.009 A 
ATOM      4  C   LIG    1        2.377   1.413  -0.013  0.00  0.00    +0.001 A 
ATOM      5  C   LIG    1        2.397   0.029  -0.021  0.00  0.00    +0.048 A 
ATOM      6 CL   LIG    1        3.913  -0.817  -0.041  0.00  0.00    -0.083 Cl
ATOM      7  C   LIG    1        1.210  -0.679  -0.013  0.00  0.00    +0.040 A 
ATOM      8  C   LIG    1        0.002  -0.004   0.002  0.00  0.00    +0.042 A 
ATOM      9 CL   LIG    1       -1.489  -0.893   0.012  0.00  0.00    -0.083 Cl
ENDBRANCH   1   4
BRANCH   1  10
ATOM     10  O   LIG    1        3.449   3.481  -0.583  0.00  0.00    -0.366 OA
BRANCH  10  11
ATOM     11  C   LIG    1        4.586   4.026  -1.256  0.00  0.00    +0.198 C 
BRANCH  11  12
ATOM     12  C   LIG    1        4.240   5.386  -1.805  0.00  0.00    +0.004 A 
ATOM     13  C   LIG    1        2.979   5.920  -1.615  0.00  0.00    +0.015 A 
ATOM     14  C   LIG    1        2.701   7.146  -2.121  0.00  0.00    +0.047 A 
ATOM     15  S   LIG    1        4.248   7.586  -2.896  0.00  0.00    -0.085 S 
ATOM     16  C   LIG    1        5.163   6.108  -2.488  0.00  0.00    +0.083 A 
ATOM     17 CL   LIG    1        6.807   5.700  -2.870  0.00  0.00    -0.075 Cl
ENDBRANCH  11  12
ENDBRANCH  10  11
ENDBRANCH   1  10
BRANCH   1  18
ATOM     18  C   LIG    1        4.188   2.331   1.410  0.00  0.00    +0.159 C 
BRANCH  18  19
ATOM     19  N   LIG    1        5.503   2.977   1.391  0.00  0.00    -0.336 N 
ATOM     20  C   LIG    1        6.716   2.347   1.301  0.00  0.00    +0.104 A 
ATOM     21  C   LIG    1        7.657   3.310   1.317  0.00  0.00    +0.101 A 
ATOM     22  N   LIG    1        7.036   4.495   1.413  0.00  0.00    -0.352 N 
ATOM     23  H   LIG    1        7.477   5.359   1.445  0.00  0.00    +0.166 HD
ATOM     24  C   LIG    1        5.746   4.303   1.453  0.00  0.00    +0.173 A 
ENDBRANCH  18  19
ENDBRANCH   1  18
TORSDOF 6
