REMARK  Name = ZINC00967243
REMARK                            x       y       z     vdW  Elec       q    Type
REMARK                         _______ _______ _______ _____ _____    ______ ____
ROOT
ATOM      1  C   LIG    1       -0.024   1.887   0.012  0.00  0.00    +0.120 A 
ATOM      2 BR   LIG    1        0.002  -0.004   0.002  0.00  0.00    -0.041 Br
ATOM      3  C   LIG    1       -1.211   2.564   0.022  0.00  0.00    +0.117 A 
ATOM      4  N   LIG    1       -1.204   3.938   0.035  0.00  0.00    -0.295 N 
ATOM      5  C   LIG    1       -0.040   4.613   0.027  0.00  0.00    +0.328 A 
ATOM      6  N   LIG    1        1.138   3.962   0.013  0.00  0.00    -0.274 N 
ATOM      7  H   LIG    1        1.992   4.483   0.007  0.00  0.00    +0.173 HD
ATOM      8  O   LIG    1       -0.052   5.829   0.034  0.00  0.00    -0.247 OA
ATOM      9  H   LIG    1       -2.069   4.440   0.050  0.00  0.00    +0.172 HD
ATOM     10  C   LIG    1        1.177   2.615   0.005  0.00  0.00    +0.270 A 
ATOM     11  O   LIG    1        2.248   2.033  -0.008  0.00  0.00    -0.266 OA
ENDROOT
BRANCH   3  12
ATOM     12  N   LIG    1       -2.399   1.878   0.023  0.00  0.00    -0.343 N 
ATOM     13  H   LIG    1       -3.240   2.363   0.030  0.00  0.00    +0.144 HD
ATOM     14  H   LIG    1       -2.399   0.908   0.017  0.00  0.00    +0.144 HD
ENDBRANCH   3  12
TORSDOF 1
