REMARK  Name = ZINC00876714
REMARK                            x       y       z     vdW  Elec       q    Type
REMARK                         _______ _______ _______ _____ _____    ______ ____
ROOT
ATOM      1  N   LIG    1        1.434  -3.925   2.218  0.00  0.00    -0.322 N 
ATOM      2  H   LIG    1        1.802  -4.310   3.029  0.00  0.00    +0.169 HD
ATOM      3  C   LIG    1        0.743  -4.676   1.389  0.00  0.00    +0.212 A 
ATOM      4  C   LIG    1        0.595  -6.128   1.615  0.00  0.00    +0.098 A 
ATOM      5  C   LIG    1       -0.522  -6.748   1.073  0.00  0.00    +0.030 A 
ATOM      6  C   LIG    1       -1.425  -5.959   0.316  0.00  0.00    +0.018 A 
ATOM      7  C   LIG    1       -2.664  -6.484  -0.082  0.00  0.00    +0.015 A 
ATOM      8  C   LIG    1       -3.542  -5.703  -0.773  0.00  0.00    +0.046 A 
ATOM      9  C   LIG    1       -3.216  -4.386  -1.095  0.00  0.00    +0.120 A 
ATOM     10  C   LIG    1       -1.989  -3.856  -0.727  0.00  0.00    +0.092 A 
ATOM     11  C   LIG    1       -1.082  -4.638  -0.032  0.00  0.00    +0.141 A 
ATOM     12  O   LIG    1        0.134  -4.143   0.298  0.00  0.00    -0.438 OA
ENDROOT
BRANCH   1  17
ATOM     13  C   LIG    1        2.312  -0.875   0.403  0.00  0.00    +0.122 A 
ATOM     14  C   LIG    1        2.041   0.085   1.368  0.00  0.00    +0.049 A 
ATOM     15  C   LIG    1        1.569  -0.290   2.613  0.00  0.00    +0.051 A 
ATOM     16  C   LIG    1        1.364  -1.627   2.905  0.00  0.00    +0.144 A 
ATOM     17  C   LIG    1        1.635  -2.601   1.936  0.00  0.00    +0.088 A 
ATOM     18  C   LIG    1        2.106  -2.216   0.680  0.00  0.00    +0.075 A 
BRANCH  13  20
ATOM     19  C   LIG    1        2.965   0.902  -1.036  0.00  0.00    +0.277 C 
ATOM     20  O   LIG    1        2.776  -0.498  -0.818  0.00  0.00    -0.495 OA
ENDBRANCH  13  20
BRANCH  16  21
ATOM     21  O   LIG    1        0.900  -1.994   4.130  0.00  0.00    -0.493 OA
ATOM     22  C   LIG    1        0.646  -0.946   5.068  0.00  0.00    +0.277 C 
ENDBRANCH  16  21
ENDBRANCH   1  17
BRANCH   4  23
ATOM     23  C   LIG    1        1.594  -6.887   2.384  0.00  0.00    +0.254 C 
ATOM     24  N   LIG    1        2.722  -6.282   2.805  0.00  0.00    -0.266 N 
ATOM     25  H   LIG    1        2.890  -5.355   2.575  0.00  0.00    +0.157 HD
ATOM     26  O   LIG    1        1.401  -8.061   2.639  0.00  0.00    -0.270 OA
BRANCH  24  27
ATOM     27  C   LIG    1        3.647  -6.989   3.571  0.00  0.00    +0.125 A 
ATOM     28  C   LIG    1        3.635  -8.379   3.556  0.00  0.00    +0.044 A 
ATOM     29  C   LIG    1        4.559  -9.068   4.321  0.00  0.00    +0.005 A 
ATOM     30  C   LIG    1        5.466  -8.340   5.079  0.00  0.00    +0.020 A 
ATOM     31  C   LIG    1        5.421  -6.961   5.047  0.00  0.00    +0.113 A 
ATOM     32  N   LIG    1        4.532  -6.330   4.303  0.00  0.00    -0.240 NA
ENDBRANCH  24  27
ENDBRANCH   4  23
BRANCH   9  33
ATOM     33  O   LIG    1       -4.106  -3.618  -1.774  0.00  0.00    -0.507 OA
ATOM     34  H   LIG    1       -4.711  -3.122  -1.206  0.00  0.00    +0.292 HD
ENDBRANCH   9  33
TORSDOF 6
