REMARK  Name = ZINC01188809
REMARK                            x       y       z     vdW  Elec       q    Type
REMARK                         _______ _______ _______ _____ _____    ______ ____
ROOT
ATOM      1  C   LIG    1        2.475   1.183  -0.010  0.00  0.00    +0.069 A 
ATOM      2  C   LIG    1        3.566   2.148  -0.025  0.00  0.00    -0.023 A 
ATOM      3  C   LIG    1        3.181   3.442  -0.009  0.00  0.00    -0.004 A 
ATOM      4  C   LIG    1        4.056   4.657   0.007  0.00  0.00    +0.043 C 
ATOM      5  C   LIG    1        5.128   4.524  -1.083  0.00  0.00    +0.005 C 
ATOM      6  C   LIG    1        6.342   3.822  -0.482  0.00  0.00    +0.001 C 
ATOM      7  C   LIG    1        5.896   2.814   0.576  0.00  0.00    +0.005 C 
ATOM      8  S   LIG    1        1.410   3.391   0.007  0.00  0.00    -0.077 S 
ATOM      9  C   LIG    1        5.030   1.728  -0.055  0.00  0.00    +0.037 C 
ATOM     10  C   LIG    1        1.179   1.675  -0.000  0.00  0.00    +0.085 A 
ENDROOT
BRANCH  10  11
ATOM     11  N   LIG    1       -0.011   0.966   0.007  0.00  0.00    -0.275 N 
ATOM     12  H   LIG    1        0.002  -0.004   0.002  0.00  0.00    +0.156 HD
ATOM     13  C   LIG    1       -1.187   1.624   0.017  0.00  0.00    +0.255 C 
ATOM     14  O   LIG    1       -1.204   2.841   0.023  0.00  0.00    -0.269 OA
BRANCH  13  15
ATOM     15  C   LIG    1       -2.446   0.874   0.018  0.00  0.00    +0.074 A 
ATOM     16  C   LIG    1       -3.748   1.351   0.027  0.00  0.00    +0.021 A 
ATOM     17  C   LIG    1       -4.755   0.419   0.026  0.00  0.00    +0.008 A 
ATOM     18  C   LIG    1       -4.437  -0.902   0.017  0.00  0.00    +0.046 A 
ATOM     19  S   LIG    1       -2.704  -0.891   0.002  0.00  0.00    -0.092 S 
ENDBRANCH  13  15
ENDBRANCH  10  11
BRANCH   1  21
ATOM     20  N   LIG    1        2.869  -0.920   1.159  0.00  0.00    -0.298 N 
ATOM     21  C   LIG    1        2.739  -0.259  -0.009  0.00  0.00    +0.249 C 
ATOM     22  O   LIG    1        2.840  -0.860  -1.062  0.00  0.00    -0.270 OA
BRANCH  20  24
ATOM     23  C   LIG    1        1.285  -0.204   2.880  0.00  0.00    +0.024 C 
ATOM     24  C   LIG    1        2.747  -0.197   2.427  0.00  0.00    +0.104 C 
ENDBRANCH  20  24
BRANCH  20  25
ATOM     25  C   LIG    1        3.132  -2.361   1.160  0.00  0.00    +0.104 C 
ATOM     26  C   LIG    1        4.643  -2.603   1.149  0.00  0.00    +0.024 C 
ENDBRANCH  20  25
ENDBRANCH   1  21
TORSDOF 5
