REMARK  Name = ZINC00935566
REMARK                            x       y       z     vdW  Elec       q    Type
REMARK                         _______ _______ _______ _____ _____    ______ ____
ROOT
ATOM      1  N   LIG    1        4.168   8.053  -0.173  0.00  0.00    -0.302 N 
ATOM      2  C   LIG    1        5.543   8.015  -0.165  0.00  0.00    +0.166 A 
ATOM      3  N   LIG    1        5.893   6.769   0.053  0.00  0.00    -0.128 NA
ATOM      4  N   LIG    1        4.845   6.036   0.185  0.00  0.00    -0.122 NA
ATOM      5  C   LIG    1        3.762   6.770   0.060  0.00  0.00    +0.192 A 
ENDROOT
BRANCH   2   6
ATOM      6  C   LIG    1        6.455   9.161  -0.370  0.00  0.00    +0.037 A 
ATOM      7  C   LIG    1        5.996  10.474  -0.209  0.00  0.00    +0.014 A 
ATOM      8  C   LIG    1        6.890  11.510  -0.413  0.00  0.00    +0.020 A 
ATOM      9  C   LIG    1        8.196  11.219  -0.765  0.00  0.00    +0.111 A 
ATOM     10  N   LIG    1        8.600   9.972  -0.909  0.00  0.00    -0.263 NA
ATOM     11  C   LIG    1        7.789   8.951  -0.722  0.00  0.00    +0.122 A 
ENDBRANCH   2   6
BRANCH   1  13
ATOM     12  C   LIG    1        2.952   9.843   0.968  0.00  0.00    +0.027 C 
ATOM     13  C   LIG    1        3.316   9.226  -0.384  0.00  0.00    +0.122 C 
ENDBRANCH   1  13
BRANCH   5  14
ATOM     14  S   LIG    1        2.097   6.204   0.166  0.00  0.00    -0.078 S 
BRANCH  14  15
ATOM     15  C   LIG    1        2.383   4.443   0.475  0.00  0.00    +0.157 C 
BRANCH  15  16
ATOM     16  C   LIG    1        1.060   3.734   0.604  0.00  0.00    +0.173 C 
ATOM     17  O   LIG    1        0.025   4.357   0.498  0.00  0.00    -0.291 OA
BRANCH  16  18
ATOM     18  C   LIG    1        1.023   2.286   0.860  0.00  0.00    +0.018 A 
ATOM     19  C   LIG    1       -0.203   1.624   0.980  0.00  0.00    +0.013 A 
ATOM     20  C   LIG    1       -0.230   0.267   1.219  0.00  0.00    +0.020 A 
ATOM     21  C   LIG    1        0.955  -0.442   1.340  0.00  0.00    +0.041 A 
ATOM     22 CL   LIG    1        0.911  -2.151   1.641  0.00  0.00    -0.084 Cl
ATOM     23  C   LIG    1        2.173   0.207   1.221  0.00  0.00    +0.020 A 
ATOM     24  C   LIG    1        2.215   1.564   0.983  0.00  0.00    +0.013 A 
ENDBRANCH  16  18
ENDBRANCH  15  16
ENDBRANCH  14  15
ENDBRANCH   5  14
TORSDOF 6
