REMARK  Name = ZINC00722314
REMARK                            x       y       z     vdW  Elec       q    Type
REMARK                         _______ _______ _______ _____ _____    ______ ____
ROOT
ATOM      1  C   LIG    1        6.825  -2.442  -3.502  0.00  0.00    +0.091 A 
ATOM      2  C   LIG    1        6.999  -2.545  -4.942  0.00  0.00    -0.018 A 
ATOM      3  C   LIG    1        6.011  -1.992  -5.678  0.00  0.00    +0.013 A 
ATOM      4  C   LIG    1        5.922  -1.947  -7.174  0.00  0.00    +0.153 C 
ATOM      5  N   LIG    1        7.222  -2.409  -7.701  0.00  0.00    -0.262 N 
ATOM      6  C   LIG    1        7.813  -1.792  -8.743  0.00  0.00    +0.403 C 
ATOM      7  O   LIG    1        8.883  -2.192  -9.159  0.00  0.00    -0.226 OA
ATOM      8  C   LIG    1        7.846  -3.569  -7.047  0.00  0.00    +0.116 C 
ATOM      9  S   LIG    1        4.863  -1.351  -4.494  0.00  0.00    -0.076 S 
ATOM     10  C   LIG    1        8.200  -3.212  -5.601  0.00  0.00    +0.056 C 
ATOM     11  C   LIG    1        5.681  -1.809  -3.037  0.00  0.00    +0.086 A 
ENDROOT
BRANCH  11  12
ATOM     12  N   LIG    1        5.290  -1.590  -1.725  0.00  0.00    -0.279 N 
ATOM     13  H   LIG    1        5.847  -1.902  -0.995  0.00  0.00    +0.155 HD
ATOM     14  C   LIG    1        4.136  -0.945  -1.464  0.00  0.00    +0.222 C 
ATOM     15  O   LIG    1        3.439  -0.555  -2.377  0.00  0.00    -0.275 OA
BRANCH  14  16
ATOM     16  C   LIG    1        3.711  -0.707  -0.038  0.00  0.00    +0.131 C 
BRANCH  16  17
ATOM     17  C   LIG    1        2.396   0.029  -0.021  0.00  0.00    -0.039 A 
ATOM     18  C   LIG    1        1.208  -0.679  -0.014  0.00  0.00    +0.004 A 
ATOM     19  C   LIG    1        0.002  -0.004   0.002  0.00  0.00    +0.000 A 
ATOM     20  C   LIG    1       -0.017   1.378   0.010  0.00  0.00    +0.000 A 
ATOM     21  C   LIG    1        1.171   2.086   0.002  0.00  0.00    +0.000 A 
ATOM     22  C   LIG    1        2.377   1.411  -0.014  0.00  0.00    +0.004 A 
ENDBRANCH  16  17
ENDBRANCH  14  16
ENDBRANCH  11  12
BRANCH   1  23
ATOM     23  C   LIG    1        7.818  -2.991  -2.576  0.00  0.00    +0.342 C 
ATOM     24  O   LIG    1        7.721  -4.141  -2.192  0.00  0.00    -0.245 OA
BRANCH  23  25
ATOM     25  O   LIG    1        8.841  -2.222  -2.151  0.00  0.00    -0.461 OA
BRANCH  25  27
ATOM     26  C   LIG    1       10.869  -1.814  -0.865  0.00  0.00    +0.048 C 
ATOM     27  C   LIG    1        9.788  -2.832  -1.234  0.00  0.00    +0.229 C 
ENDBRANCH  25  27
ENDBRANCH  23  25
ENDBRANCH   1  23
BRANCH   6  28
ATOM     28  O   LIG    1        7.218  -0.733  -9.324  0.00  0.00    -0.451 OA
BRANCH  28  29
ATOM     29  C   LIG    1        7.912  -0.118 -10.441  0.00  0.00    +0.230 C 
ATOM     30  C   LIG    1        7.090   1.061 -10.967  0.00  0.00    +0.048 C 
ENDBRANCH  28  29
ENDBRANCH   6  28
TORSDOF 8
