REMARK  Name = ZINC00966930
REMARK                            x       y       z     vdW  Elec       q    Type
REMARK                         _______ _______ _______ _____ _____    ______ ____
ROOT
ATOM      1  C   LIG    1       -4.239  -1.551  -2.056  0.00  0.00    +0.029 C 
ATOM      2  C   LIG    1       -3.436  -1.119  -1.051  0.00  0.00    +0.077 C 
ATOM      3  C   LIG    1       -2.244  -0.247  -1.107  0.00  0.00    +0.258 C 
ATOM      4  N   LIG    1       -1.647   0.013   0.044  0.00  0.00    -0.255 N 
ATOM      5  C   LIG    1       -2.103  -0.496   1.206  0.00  0.00    +0.121 C 
ATOM      6  S   LIG    1       -1.470  -0.282   2.782  0.00  0.00    -0.027 S 
ATOM      7  O   LIG    1       -1.833   0.207  -2.158  0.00  0.00    -0.269 OA
ATOM      8  S   LIG    1       -3.528  -1.447   0.704  0.00  0.00    -0.061 S 
ENDROOT
BRANCH   1  11
ATOM      9  C   LIG    1       -2.213  -1.180  -5.188  0.00  0.00    +0.020 A 
ATOM     10  C   LIG    1       -2.546  -1.425  -3.873  0.00  0.00    +0.011 A 
ATOM     11  C   LIG    1       -3.874  -1.285  -3.454  0.00  0.00    -0.005 A 
ATOM     12  C   LIG    1       -4.853  -0.885  -4.373  0.00  0.00    +0.050 A 
ATOM     13 CL   LIG    1       -6.502  -0.700  -3.864  0.00  0.00    -0.083 Cl
ATOM     14  C   LIG    1       -4.501  -0.637  -5.684  0.00  0.00    +0.040 A 
ATOM     15  C   LIG    1       -3.186  -0.784  -6.091  0.00  0.00    +0.042 A 
ATOM     16 CL   LIG    1       -2.753  -0.470  -7.743  0.00  0.00    -0.083 Cl
ENDBRANCH   1  11
BRANCH   4  17
ATOM     17  C   LIG    1       -0.459   0.871   0.056  0.00  0.00    +0.126 C 
BRANCH  17  18
ATOM     18  C   LIG    1       -0.885   2.330   0.233  0.00  0.00    +0.140 C 
BRANCH  18  19
ATOM     19  C   LIG    1        0.337   3.212   0.245  0.00  0.00    +0.306 C 
ATOM     20  O   LIG    1        1.435   2.724   0.125  0.00  0.00    -0.251 OA
BRANCH  19  21
ATOM     21  O   LIG    1        0.204   4.540   0.390  0.00  0.00    -0.481 OA
ATOM     22  H   LIG    1       -0.648   4.918   0.483  0.00  0.00    +0.295 HD
ENDBRANCH  19  21
ENDBRANCH  18  19
ENDBRANCH  17  18
ENDBRANCH   4  17
TORSDOF 5
