REMARK  Name = ZINC00967961
REMARK                            x       y       z     vdW  Elec       q    Type
REMARK                         _______ _______ _______ _____ _____    ______ ____
ROOT
ATOM      1  C   LIG    1        0.478  -2.020   0.973  0.00  0.00    +0.129 C 
ATOM      2  N   LIG    1        0.830  -0.599   0.852  0.00  0.00    -0.326 N 
ATOM      3  C   LIG    1        0.630   0.067   2.055  0.00  0.00    +0.039 A 
ATOM      4  C   LIG    1       -0.209  -0.452   3.030  0.00  0.00    +0.024 A 
ATOM      5  C   LIG    1       -0.372   0.221   4.226  0.00  0.00    +0.002 A 
ATOM      6  C   LIG    1        0.297   1.411   4.460  0.00  0.00    +0.001 A 
ATOM      7  C   LIG    1        1.129   1.945   3.497  0.00  0.00    +0.012 A 
ATOM      8  C   LIG    1        1.295   1.281   2.284  0.00  0.00    +0.022 A 
ATOM      9  C   LIG    1        2.142   1.848   1.214  0.00  0.00    +0.077 C 
ATOM     10  N   LIG    1        1.654   1.932   0.003  0.00  0.00    -0.281 NA
ATOM     11  C   LIG    1        0.263   1.542  -0.236  0.00  0.00    +0.166 C 
ATOM     12  C   LIG    1        0.107   0.028  -0.254  0.00  0.00    +0.111 C 
ENDROOT
BRANCH   9  13
ATOM     13  C   LIG    1        3.517   2.312   1.507  0.00  0.00    +0.036 A 
ATOM     14  C   LIG    1        4.025   2.224   2.803  0.00  0.00    +0.013 A 
ATOM     15  C   LIG    1        5.309   2.652   3.069  0.00  0.00    +0.001 A 
ATOM     16  C   LIG    1        6.090   3.181   2.056  0.00  0.00    +0.003 A 
ATOM     17  C   LIG    1        5.593   3.278   0.770  0.00  0.00    +0.039 A 
ATOM     18  C   LIG    1        4.309   2.846   0.488  0.00  0.00    +0.133 A 
ATOM     19  F   LIG    1        3.823   2.942  -0.769  0.00  0.00    -0.205 F 
ENDBRANCH   9  13
BRANCH  12  20
ATOM     20  C   LIG    1       -1.378  -0.323  -0.143  0.00  0.00    +0.128 C 
BRANCH  20  21
ATOM     21  N   LIG    1       -2.088   0.180  -1.321  0.00  0.00    -0.309 N 
ATOM     22  H   LIG    1       -1.593   0.588  -2.049  0.00  0.00    +0.149 HD
ATOM     23  C   LIG    1       -3.430   0.077  -1.393  0.00  0.00    +0.245 C 
ATOM     24  O   LIG    1       -4.051  -0.433  -0.481  0.00  0.00    -0.270 OA
BRANCH  23  25
ATOM     25  C   LIG    1       -4.144   0.583  -2.577  0.00  0.00    +0.044 A 
ATOM     26  C   LIG    1       -5.578   0.484  -2.691  0.00  0.00    +0.020 A 
ATOM     27  C   LIG    1       -6.140   0.981  -3.810  0.00  0.00    +0.046 A 
ATOM     28  S   LIG    1       -4.739   1.577  -4.734  0.00  0.00    -0.104 S 
ATOM     29  C   LIG    1       -3.470   1.167  -3.630  0.00  0.00    +0.058 A 
ENDBRANCH  23  25
ENDBRANCH  20  21
ENDBRANCH  12  20
TORSDOF 4
