REMARK  Name = ZINC00896968
REMARK                            x       y       z     vdW  Elec       q    Type
REMARK                         _______ _______ _______ _____ _____    ______ ____
ROOT
ATOM      1  C   LIG    1        0.482  -4.301   4.239  0.00  0.00    +0.190 C 
ENDROOT
BRANCH   1   2
ATOM      2  C   LIG    1       -0.407  -5.302   4.931  0.00  0.00    -0.005 A 
ATOM      3  C   LIG    1       -1.004  -4.980   6.135  0.00  0.00    +0.007 A 
ATOM      4  C   LIG    1       -1.819  -5.898   6.770  0.00  0.00    +0.000 A 
ATOM      5  C   LIG    1       -2.037  -7.139   6.200  0.00  0.00    +0.000 A 
ATOM      6  C   LIG    1       -1.441  -7.460   4.995  0.00  0.00    +0.000 A 
ATOM      7  C   LIG    1       -0.629  -6.540   4.359  0.00  0.00    +0.007 A 
ENDBRANCH   1   2
BRANCH   1   8
ATOM      8  C   LIG    1        1.737  -4.064   5.081  0.00  0.00    +0.036 C 
ATOM      9  C   LIG    1        1.383  -3.332   6.399  0.00  0.00    +0.007 C 
ATOM     10  C   LIG    1        2.700  -2.642   6.814  0.00  0.00    +0.000 C 
ATOM     11  C   LIG    1        3.530  -2.472   5.529  0.00  0.00    +0.000 C 
ATOM     12  C   LIG    1        2.689  -3.065   4.380  0.00  0.00    +0.007 C 
ENDBRANCH   1   8
BRANCH   1  13
ATOM     13  C   LIG    1       -0.262  -3.001   4.071  0.00  0.00    +0.344 C 
ATOM     14  O   LIG    1       -1.168  -2.722   4.820  0.00  0.00    -0.247 OA
BRANCH  13  15
ATOM     15  O   LIG    1        0.082  -2.153   3.088  0.00  0.00    -0.461 OA
BRANCH  15  21
ATOM     16  C   LIG    1       -0.768   2.325   1.809  0.00  0.00    -0.092 C 
ATOM     17  N   LIG    1       -0.745   0.911   1.414  0.00  0.00    +0.379 N 
ATOM     18  C   LIG    1       -0.290   0.792   0.023  0.00  0.00    -0.092 C 
ATOM     19  C   LIG    1       -2.102   0.337   1.542  0.00  0.00    -0.072 C 
ATOM     20  C   LIG    1       -1.872  -1.117   2.027  0.00  0.00    +0.025 C 
ATOM     21  C   LIG    1       -0.666  -0.940   2.987  0.00  0.00    +0.159 C 
ATOM     22  C   LIG    1        0.166   0.163   2.300  0.00  0.00    -0.031 C 
ENDBRANCH  15  21
ENDBRANCH  13  15
ENDBRANCH   1  13
BRANCH   1  23
ATOM     23  O   LIG    1        0.857  -4.804   2.955  0.00  0.00    -0.373 OA
ATOM     24  H   LIG    1        0.110  -4.977   2.367  0.00  0.00    +0.211 HD
ENDBRANCH   1  23
TORSDOF 6
