REMARK  Name = ZINC00968274
REMARK                            x       y       z     vdW  Elec       q    Type
REMARK                         _______ _______ _______ _____ _____    ______ ____
ROOT
ATOM      1  C   LIG    1        3.711  -0.707  -0.038  0.00  0.00    +0.092 C 
ENDROOT
BRANCH   1   5
ATOM      2  C   LIG    1       -0.135   1.109  -0.430  0.00  0.00    +0.000 A 
ATOM      3  C   LIG    1        0.751   1.568   0.526  0.00  0.00    +0.000 A 
ATOM      4  C   LIG    1        1.996   0.980   0.653  0.00  0.00    +0.006 A 
ATOM      5  C   LIG    1        2.354  -0.067  -0.175  0.00  0.00    -0.016 A 
ATOM      6  C   LIG    1        1.467  -0.526  -1.131  0.00  0.00    +0.006 A 
ATOM      7  C   LIG    1        0.223   0.063  -1.259  0.00  0.00    +0.000 A 
ENDBRANCH   1   5
BRANCH   1   8
ATOM      8  C   LIG    1        3.588  -1.992   0.785  0.00  0.00    +0.025 C 
ATOM      9  C   LIG    1        2.685  -2.984   0.049  0.00  0.00    +0.007 C 
ATOM     10  C   LIG    1        2.562  -4.268   0.871  0.00  0.00    +0.000 C 
ATOM     11  C   LIG    1        1.955  -3.942   2.238  0.00  0.00    +0.000 C 
ATOM     12  C   LIG    1        2.858  -2.950   2.973  0.00  0.00    +0.000 C 
ATOM     13  C   LIG    1        2.981  -1.666   2.151  0.00  0.00    +0.007 C 
ENDBRANCH   1   8
BRANCH   1  14
ATOM     14  O   LIG    1        4.600   0.197   0.622  0.00  0.00    -0.384 OA
ATOM     15  H   LIG    1        4.725   1.035   0.155  0.00  0.00    +0.211 HD
ENDBRANCH   1  14
BRANCH   1  16
ATOM     16  C   LIG    1        4.261  -1.041  -1.426  0.00  0.00    +0.021 C 
BRANCH  16  17
ATOM     17  C   LIG    1        5.580  -1.802  -1.282  0.00  0.00    -0.076 C 
BRANCH  17  18
ATOM     18  N   LIG    1        6.108  -2.123  -2.615  0.00  0.00    +0.380 N 
ATOM     19  H   LIG    1        6.191  -1.275  -3.156  0.00  0.00    -0.082 HD
ATOM     20  C   LIG    1        5.190  -3.045  -3.295  0.00  0.00    -0.079 C 
ATOM     21  C   LIG    1        5.694  -3.319  -4.713  0.00  0.00    -0.019 C 
ATOM     22  C   LIG    1        7.089  -3.946  -4.642  0.00  0.00    -0.004 C 
ATOM     23  C   LIG    1        8.020  -3.009  -3.867  0.00  0.00    -0.019 C 
ATOM     24  C   LIG    1        7.430  -2.747  -2.479  0.00  0.00    -0.079 C 
ENDBRANCH  17  18
ENDBRANCH  16  17
ENDBRANCH   1  16
TORSDOF 6
