REMARK  Name = ZINC01199750
REMARK                            x       y       z     vdW  Elec       q    Type
REMARK                         _______ _______ _______ _____ _____    ______ ____
ROOT
ATOM      1  C   LIG    1        1.435   2.302   0.213  0.00  0.00    +0.122 A 
ATOM      2  C   LIG    1        0.289   1.727   0.747  0.00  0.00    +0.046 A 
ATOM      3  C   LIG    1        0.252   0.372   1.025  0.00  0.00    +0.004 A 
ATOM      4  C   LIG    1        1.353  -0.418   0.773  0.00  0.00    +0.008 A 
ATOM      5  C   LIG    1        2.513   0.151   0.234  0.00  0.00    -0.020 A 
ATOM      6  C   LIG    1        2.547   1.521  -0.045  0.00  0.00    +0.053 A 
ENDROOT
BRANCH   5   7
ATOM      7  C   LIG    1        3.690  -0.688  -0.036  0.00  0.00    +0.028 C 
ATOM      8  C   LIG    1        4.745  -0.176  -0.717  0.00  0.00    +0.077 C 
ATOM      9  C   LIG    1        6.083  -0.757  -0.957  0.00  0.00    +0.256 C 
ATOM     10  N   LIG    1        6.927  -0.025  -1.665  0.00  0.00    -0.270 N 
ATOM     11  H   LIG    1        7.816  -0.369  -1.846  0.00  0.00    +0.156 HD
ATOM     12  C   LIG    1        6.581   1.188  -2.142  0.00  0.00    +0.118 C 
ATOM     13  S   LIG    1        7.524   2.275  -3.069  0.00  0.00    -0.027 S 
ATOM     14  O   LIG    1        6.392  -1.852  -0.526  0.00  0.00    -0.269 OA
ATOM     15  S   LIG    1        4.897   1.383  -1.578  0.00  0.00    -0.061 S 
ENDBRANCH   5   7
BRANCH   1  16
ATOM     16  O   LIG    1        1.464   3.634  -0.057  0.00  0.00    -0.487 OA
BRANCH  16  17
ATOM     17  C   LIG    1        0.280   4.380   0.234  0.00  0.00    +0.264 C 
BRANCH  17  21
ATOM     18  C   LIG    1        0.895   8.481  -0.792  0.00  0.00    +0.000 A 
ATOM     19  C   LIG    1        0.389   7.603  -1.731  0.00  0.00    +0.000 A 
ATOM     20  C   LIG    1        0.190   6.276  -1.399  0.00  0.00    +0.007 A 
ATOM     21  C   LIG    1        0.497   5.827  -0.128  0.00  0.00    -0.010 A 
ATOM     22  C   LIG    1        0.999   6.707   0.813  0.00  0.00    +0.007 A 
ATOM     23  C   LIG    1        1.202   8.033   0.479  0.00  0.00    +0.000 A 
ENDBRANCH  17  21
ENDBRANCH  16  17
ENDBRANCH   1  16
TORSDOF 4
