REMARK  Name = ZINC00706101
REMARK                            x       y       z     vdW  Elec       q    Type
REMARK                         _______ _______ _______ _____ _____    ______ ____
ROOT
ATOM      1  C   LIG    1        2.022  -1.189  -3.648  0.00  0.00    +0.034 C 
ATOM      2  C   LIG    1        2.441  -2.001  -2.421  0.00  0.00    +0.083 C 
ATOM      3  C   LIG    1        2.349  -1.138  -1.184  0.00  0.00    +0.115 C 
ATOM      4  C   LIG    1        2.567   0.188  -1.256  0.00  0.00    +0.046 C 
ATOM      5  C   LIG    1        2.870   0.816  -2.480  0.00  0.00    +0.164 C 
ATOM      6  O   LIG    1        3.076   2.013  -2.501  0.00  0.00    -0.292 OA
ATOM      7  C   LIG    1        2.490   1.047  -0.017  0.00  0.00    +0.104 C 
ATOM      8  C   LIG    1        2.598   0.190   1.214  0.00  0.00    +0.098 C 
ATOM      9  C   LIG    1        2.371  -1.144   1.141  0.00  0.00    +0.198 C 
ATOM     10  O   LIG    1        2.043  -1.735  -0.018  0.00  0.00    -0.445 OA
ATOM     11  C   LIG    1        2.944   0.030  -3.761  0.00  0.00    +0.088 C 
ENDROOT
BRANCH   7  12
ATOM     12  C   LIG    1        1.175   1.783   0.000  0.00  0.00    +0.001 A 
ATOM     13  C   LIG    1       -0.013   1.076   0.008  0.00  0.00    +0.007 A 
ATOM     14  C   LIG    1       -1.219   1.750   0.017  0.00  0.00    +0.000 A 
ATOM     15  C   LIG    1       -1.239   3.133   0.031  0.00  0.00    +0.003 A 
ATOM     16  C   LIG    1       -0.053   3.842   0.023  0.00  0.00    +0.038 A 
ATOM     17  C   LIG    1        1.156   3.167   0.008  0.00  0.00    +0.127 A 
ATOM     18  F   LIG    1        2.316   3.859   0.000  0.00  0.00    -0.205 F 
ENDBRANCH   7  12
BRANCH   1  22
ATOM     19  C   LIG    1        2.392  -3.597  -7.157  0.00  0.00    +0.000 A 
ATOM     20  C   LIG    1        1.166  -3.056  -6.816  0.00  0.00    +0.000 A 
ATOM     21  C   LIG    1        1.047  -2.277  -5.680  0.00  0.00    +0.004 A 
ATOM     22  C   LIG    1        2.153  -2.039  -4.886  0.00  0.00    -0.043 A 
ATOM     23  C   LIG    1        3.379  -2.575  -5.230  0.00  0.00    +0.004 A 
ATOM     24  C   LIG    1        3.498  -3.358  -6.363  0.00  0.00    +0.000 A 
ENDBRANCH   1  22
BRANCH   9  25
ATOM     25  N   LIG    1        2.478  -1.907   2.278  0.00  0.00    -0.328 N 
ATOM     26  H   LIG    1        2.715  -1.490   3.121  0.00  0.00    +0.145 HD
ATOM     27  H   LIG    1        2.318  -2.862   2.238  0.00  0.00    +0.145 HD
ENDBRANCH   9  25
BRANCH   8  28
ATOM     28  C   LIG    1        2.942   0.787   2.469  0.00  0.00    +0.101 C 
ATOM     29  N   LIG    1        3.216   1.260   3.465  0.00  0.00    -0.191 NA
ENDBRANCH   8  28
TORSDOF 4
