REMARK  Name = ZINC01037556
REMARK                            x       y       z     vdW  Elec       q    Type
REMARK                         _______ _______ _______ _____ _____    ______ ____
ROOT
ATOM      1  S   LIG    1       -1.352  -1.132   0.009  0.00  0.00    +0.051 S 
ATOM      2  O   LIG    1       -2.455  -0.438   0.574  0.00  0.00    -0.154 OA
ATOM      3  O   LIG    1       -0.861  -2.352   0.548  0.00  0.00    -0.154 OA
ENDROOT
BRANCH   1   9
ATOM      4  C   LIG    1       -0.016   1.351   0.009  0.00  0.00    +0.038 A 
ATOM      5  C   LIG    1        1.184   2.038   0.002  0.00  0.00    +0.030 A 
ATOM      6  C   LIG    1        2.343   1.335  -0.013  0.00  0.00    +0.080 A 
ATOM      7 CL   LIG    1        3.977   1.921  -0.026  0.00  0.00    -0.076 Cl
ATOM      8  S   LIG    1        1.753  -0.350  -0.017  0.00  0.00    -0.057 S 
ATOM      9  C   LIG    1        0.002  -0.004   0.002  0.00  0.00    +0.142 A 
ENDBRANCH   1   9
BRANCH   1  10
ATOM     10  N   LIG    1       -1.743  -1.437  -1.571  0.00  0.00    -0.236 NA
ATOM     11  H   LIG    1       -0.907  -1.818  -2.013  0.00  0.00    +0.126 HD
BRANCH  10  12
ATOM     12  N   LIG    1       -2.769  -2.288  -1.869  0.00  0.00    +0.401 N 
ATOM     13  H   LIG    1       -3.626  -1.934  -1.469  0.00  0.00    -0.063 HD
ATOM     14  H   LIG    1       -2.571  -3.200  -1.486  0.00  0.00    -0.063 HD
ATOM     15  H   LIG    1       -2.869  -2.357  -2.870  0.00  0.00    -0.063 HD
ENDBRANCH  10  12
ENDBRANCH   1  10
TORSDOF 3
