REMARK  Name = ZINC01174116
REMARK                            x       y       z     vdW  Elec       q    Type
REMARK                         _______ _______ _______ _____ _____    ______ ____
ROOT
ATOM      1  C   LIG    1       -6.159   3.481   0.078  0.00  0.00    +0.340 C 
ATOM      2  O   LIG    1       -6.301   2.274   0.074  0.00  0.00    -0.245 OA
ENDROOT
BRANCH   1   3
ATOM      3  C   LIG    1       -7.341   4.363   0.094  0.00  0.00    +0.059 A 
ATOM      4  C   LIG    1       -7.179   5.752   0.104  0.00  0.00    +0.017 A 
ATOM      5  C   LIG    1       -8.285   6.572   0.113  0.00  0.00    +0.025 A 
ATOM      6  C   LIG    1       -9.562   6.021   0.122  0.00  0.00    +0.044 A 
ATOM      7  C   LIG    1       -9.727   4.640   0.118  0.00  0.00    +0.025 A 
ATOM      8  C   LIG    1       -8.626   3.813   0.103  0.00  0.00    +0.017 A 
BRANCH   6   9
ATOM      9  N   LIG    1      -10.682   6.857   0.137  0.00  0.00    -0.210 N 
ATOM     10  C   LIG    1      -10.596   8.201   0.142  0.00  0.00    +0.230 C 
ATOM     11  C   LIG    1      -11.998   8.746   0.460  0.00  0.00    +0.092 C 
ATOM     12  C   LIG    1      -12.063   8.793   1.988  0.00  0.00    +0.040 C 
ATOM     13  C   LIG    1      -13.399   8.473   2.541  0.00  0.00    -0.030 C 
ATOM     14  C   LIG    1      -14.348   7.888   1.888  0.00  0.00    -0.030 C 
ATOM     15  C   LIG    1      -14.229   7.486   0.452  0.00  0.00    +0.040 C 
ATOM     16  C   LIG    1      -12.838   7.579  -0.085  0.00  0.00    +0.092 C 
ATOM     17  O   LIG    1       -9.598   8.858  -0.064  0.00  0.00    -0.274 OA
ATOM     18  C   LIG    1      -11.950   6.390   0.141  0.00  0.00    +0.230 C 
ATOM     19  O   LIG    1      -12.302   5.240   0.298  0.00  0.00    -0.274 OA
ENDBRANCH   6   9
ENDBRANCH   1   3
BRANCH   1  20
ATOM     20  O   LIG    1       -4.921   4.013   0.069  0.00  0.00    -0.453 OA
BRANCH  20  21
ATOM     21  C   LIG    1       -3.804   3.085   0.054  0.00  0.00    +0.311 C 
BRANCH  21  22
ATOM     22  C   LIG    1       -2.510   3.857   0.045  0.00  0.00    +0.200 C 
ATOM     23  O   LIG    1       -2.527   5.070   0.051  0.00  0.00    -0.288 OA
BRANCH  22  27
ATOM     24  C   LIG    1        1.184   1.785   0.000  0.00  0.00    +0.150 A 
ATOM     25  C   LIG    1       -0.013   1.076   0.008  0.00  0.00    +0.048 A 
ATOM     26  C   LIG    1       -1.206   1.740   0.017  0.00  0.00    +0.015 A 
ATOM     27  C   LIG    1       -1.228   3.140   0.030  0.00  0.00    +0.023 A 
ATOM     28  C   LIG    1       -0.024   3.855   0.022  0.00  0.00    +0.047 A 
ATOM     29  C   LIG    1        1.173   3.176   0.007  0.00  0.00    +0.164 A 
BRANCH  24  31
ATOM     30  C   LIG    1        2.304  -0.310  -0.021  0.00  0.00    +0.277 C 
ATOM     31  O   LIG    1        2.365   1.118  -0.014  0.00  0.00    -0.493 OA
ENDBRANCH  24  31
BRANCH  29  32
ATOM     32  N   LIG    1        2.450   3.925  -0.001  0.00  0.00    +0.010 N 
ATOM     33  O   LIG    1        2.441   5.143   0.005  0.00  0.00    -0.130 OA
BRANCH  32  34
ATOM     34  O   LIG    1        3.509   3.325  -0.014  0.00  0.00    -0.396 OA
ATOM     35  H   LIG    1        3.516   2.388  -0.018  0.00  0.00    +0.329 HD
ENDBRANCH  32  34
ENDBRANCH  29  32
ENDBRANCH  22  27
ENDBRANCH  21  22
ENDBRANCH  20  21
ENDBRANCH   1  20
TORSDOF 9
