REMARK  Name = ZINC01230195
REMARK                            x       y       z     vdW  Elec       q    Type
REMARK                         _______ _______ _______ _____ _____    ______ ____
ROOT
ATOM      1  C   LIG    1       -2.503   1.007   0.019  0.00  0.00    +0.247 C 
ATOM      2  N   LIG    1       -2.492  -0.336  -0.090  0.00  0.00    -0.298 N 
ATOM      3  C   LIG    1       -1.223  -1.076  -0.108  0.00  0.00    +0.108 C 
ATOM      4  C   LIG    1       -1.274  -2.160   0.980  0.00  0.00    +0.023 C 
ATOM      5  C   LIG    1       -2.513  -3.033   0.764  0.00  0.00    -0.004 C 
ATOM      6  C   LIG    1       -3.772  -2.172   0.883  0.00  0.00    +0.023 C 
ATOM      7  C   LIG    1       -3.750  -1.088  -0.199  0.00  0.00    +0.108 C 
ATOM      8  O   LIG    1       -3.558   1.599   0.135  0.00  0.00    -0.270 OA
ENDROOT
BRANCH   1  14
ATOM      9  C   LIG    1        2.056   1.731  -1.878  0.00  0.00    +0.044 C 
ATOM     10  C   LIG    1        0.964   2.112  -0.911  0.00  0.00    -0.050 A 
ATOM     11  C   LIG    1        1.154   3.167  -0.036  0.00  0.00    +0.003 A 
ATOM     12  C   LIG    1        0.157   3.524   0.854  0.00  0.00    +0.001 A 
ATOM     13  C   LIG    1       -1.035   2.829   0.875  0.00  0.00    +0.013 A 
ATOM     14  C   LIG    1       -1.231   1.760  -0.001  0.00  0.00    +0.037 A 
ATOM     15  C   LIG    1       -0.223   1.409  -0.901  0.00  0.00    +0.016 A 
ENDBRANCH   1  14
BRANCH   5  16
ATOM     16  C   LIG    1       -2.548  -4.137   1.822  0.00  0.00    +0.038 C 
BRANCH  16  17
ATOM     17  C   LIG    1       -1.371  -5.058   1.627  0.00  0.00    -0.047 A 
ATOM     18  C   LIG    1       -1.488  -6.165   0.808  0.00  0.00    +0.003 A 
ATOM     19  C   LIG    1       -0.407  -7.008   0.625  0.00  0.00    +0.000 A 
ATOM     20  C   LIG    1        0.788  -6.747   1.270  0.00  0.00    +0.000 A 
ATOM     21  C   LIG    1        0.903  -5.643   2.092  0.00  0.00    +0.000 A 
ATOM     22  C   LIG    1       -0.176  -4.798   2.272  0.00  0.00    +0.003 A 
ENDBRANCH  16  17
ENDBRANCH   5  16
TORSDOF 3
