REMARK  Name = ZINC00846684
REMARK                            x       y       z     vdW  Elec       q    Type
REMARK                         _______ _______ _______ _____ _____    ______ ____
ROOT
ATOM      1  C   LIG    1        3.722  -0.987   0.222  0.00  0.00    +0.164 C 
ENDROOT
BRANCH   1   4
ATOM      2  N   LIG    1        2.377   1.081   0.036  0.00  0.00    -0.284 N 
ATOM      3  H   LIG    1        3.207   1.581  -0.012  0.00  0.00    +0.155 HD
ATOM      4  C   LIG    1        2.404  -0.264   0.111  0.00  0.00    +0.238 C 
ATOM      5  O   LIG    1        1.367  -0.893   0.090  0.00  0.00    -0.273 OA
BRANCH   2  10
ATOM      6  C   LIG    1       -2.590   3.822   0.003  0.00  0.00    +0.044 C 
ATOM      7  C   LIG    1       -1.270   3.094   0.012  0.00  0.00    -0.050 A 
ATOM      8  C   LIG    1       -1.157   1.864  -0.609  0.00  0.00    +0.005 A 
ATOM      9  C   LIG    1        0.049   1.192  -0.599  0.00  0.00    +0.024 A 
ATOM     10  C   LIG    1        1.152   1.757   0.028  0.00  0.00    +0.036 A 
ATOM     11  C   LIG    1        1.036   2.995   0.647  0.00  0.00    -0.029 A 
ATOM     12  C   LIG    1        2.230   3.612   1.328  0.00  0.00    +0.045 C 
ATOM     13  C   LIG    1       -0.174   3.660   0.637  0.00  0.00    +0.008 A 
ENDBRANCH   2  10
ENDBRANCH   1   4
BRANCH   1  14
ATOM     14  N   LIG    1        3.483  -2.430   0.288  0.00  0.00    -0.300 N 
ATOM     15  H   LIG    1        2.635  -2.767   0.617  0.00  0.00    +0.150 HD
ATOM     16  C   LIG    1        4.442  -3.291  -0.107  0.00  0.00    +0.246 C 
ATOM     17  O   LIG    1        5.505  -2.869  -0.519  0.00  0.00    -0.270 OA
BRANCH  16  18
ATOM     18  C   LIG    1        4.202  -4.745  -0.041  0.00  0.00    +0.058 A 
ATOM     19  C   LIG    1        2.952  -5.233   0.346  0.00  0.00    +0.015 A 
ATOM     20  C   LIG    1        2.733  -6.592   0.407  0.00  0.00    +0.001 A 
ATOM     21  C   LIG    1        3.748  -7.479   0.085  0.00  0.00    +0.002 A 
ATOM     22  C   LIG    1        4.989  -7.012  -0.300  0.00  0.00    +0.024 A 
ATOM     23  C   LIG    1        5.226  -5.645  -0.371  0.00  0.00    +0.046 A 
BRANCH  23  24
ATOM     24  N   LIG    1        6.474  -5.171  -0.764  0.00  0.00    -0.281 N 
ATOM     25  H   LIG    1        6.541  -4.360  -1.292  0.00  0.00    +0.155 HD
ATOM     26  C   LIG    1        7.590  -5.839  -0.411  0.00  0.00    +0.248 C 
ATOM     27  O   LIG    1        7.503  -6.894   0.186  0.00  0.00    -0.270 OA
BRANCH  26  28
ATOM     28  C   LIG    1        8.917  -5.289  -0.749  0.00  0.00    +0.037 A 
ATOM     29  C   LIG    1        9.018  -4.079  -1.441  0.00  0.00    +0.016 A 
ATOM     30  C   LIG    1       10.259  -3.567  -1.750  0.00  0.00    +0.046 A 
ATOM     31  C   LIG    1       11.409  -4.258  -1.385  0.00  0.00    +0.120 A 
ATOM     32  C   LIG    1       11.312  -5.464  -0.701  0.00  0.00    +0.046 A 
ATOM     33  C   LIG    1       10.075  -5.980  -0.384  0.00  0.00    +0.016 A 
BRANCH  31  34
ATOM     34  O   LIG    1       12.629  -3.752  -1.697  0.00  0.00    -0.495 OA
ATOM     35  C   LIG    1       12.656  -2.509  -2.400  0.00  0.00    +0.277 C 
ENDBRANCH  31  34
ENDBRANCH  26  28
ENDBRANCH  23  24
ENDBRANCH  16  18
ENDBRANCH   1  14
BRANCH   1  36
ATOM     36  C   LIG    1        4.448  -0.531   1.490  0.00  0.00    +0.067 C 
BRANCH  36  37
ATOM     37  C   LIG    1        5.817  -1.160   1.537  0.00  0.00    -0.045 A 
ATOM     38  C   LIG    1        5.994  -2.382   2.159  0.00  0.00    +0.007 A 
ATOM     39  C   LIG    1        7.247  -2.963   2.200  0.00  0.00    +0.045 A 
ATOM     40  C   LIG    1        8.330  -2.314   1.625  0.00  0.00    +0.117 A 
ATOM     41  C   LIG    1        8.151  -1.085   1.007  0.00  0.00    +0.045 A 
ATOM     42  C   LIG    1        6.895  -0.511   0.964  0.00  0.00    +0.007 A 
BRANCH  40  43
ATOM     43  O   LIG    1        9.564  -2.881   1.668  0.00  0.00    -0.507 OA
ATOM     44  H   LIG    1       10.083  -2.636   2.447  0.00  0.00    +0.292 HD
ENDBRANCH  40  43
ENDBRANCH  36  37
ENDBRANCH   1  36
TORSDOF 10
