REMARK  Name = ZINC00866136
REMARK                            x       y       z     vdW  Elec       q    Type
REMARK                         _______ _______ _______ _____ _____    ______ ____
ROOT
ATOM      1  C   LIG    1       -0.017   1.380   0.010  0.00  0.00    +0.030 A 
ATOM      2  C   LIG    1        1.168   2.094   0.002  0.00  0.00    +0.022 A 
ATOM      3  C   LIG    1        2.378   1.429  -0.013  0.00  0.00    +0.053 A 
ATOM      4 CL   LIG    1        3.864   2.327  -0.024  0.00  0.00    -0.083 Cl
ATOM      5  C   LIG    1        2.404   0.032  -0.021  0.00  0.00    +0.057 A 
ATOM      6  C   LIG    1        1.204  -0.681  -0.013  0.00  0.00    +0.043 A 
ATOM      7  C   LIG    1        0.002  -0.004   0.002  0.00  0.00    +0.106 A 
ENDROOT
BRANCH   5   8
ATOM      8  C   LIG    1        3.694  -0.686  -0.038  0.00  0.00    +0.250 C 
ATOM      9  N   LIG    1        3.715  -2.034  -0.046  0.00  0.00    -0.275 N 
ATOM     10  H   LIG    1        2.883  -2.532  -0.040  0.00  0.00    +0.156 HD
ATOM     11  O   LIG    1        4.737  -0.062  -0.046  0.00  0.00    -0.270 OA
BRANCH   9  12
ATOM     12  C   LIG    1        4.927  -2.709  -0.062  0.00  0.00    +0.090 A 
ATOM     13  C   LIG    1        5.139  -4.078  -0.077  0.00  0.00    +0.084 A 
ATOM     14  C   LIG    1        6.516  -4.536  -0.092  0.00  0.00    -0.018 A 
ATOM     15  C   LIG    1        7.430  -3.541  -0.089  0.00  0.00    -0.004 A 
ATOM     16  C   LIG    1        8.920  -3.688  -0.100  0.00  0.00    +0.043 C 
ATOM     17  C   LIG    1        9.264  -5.139   0.265  0.00  0.00    +0.005 C 
ATOM     18  C   LIG    1        8.396  -6.081  -0.575  0.00  0.00    +0.005 C 
ATOM     19  C   LIG    1        6.939  -5.998  -0.111  0.00  0.00    +0.037 C 
ATOM     20  S   LIG    1        6.473  -2.054  -0.075  0.00  0.00    -0.077 S 
BRANCH  13  21
ATOM     21  C   LIG    1        4.045  -5.002  -0.077  0.00  0.00    +0.102 C 
ATOM     22  N   LIG    1        3.178  -5.735  -0.078  0.00  0.00    -0.191 NA
ENDBRANCH  13  21
ENDBRANCH   9  12
ENDBRANCH   5   8
BRANCH   7  23
ATOM     23  S   LIG    1       -1.513  -0.903   0.012  0.00  0.00    +0.061 S 
ATOM     24  O   LIG    1       -2.493  -0.043   0.577  0.00  0.00    -0.153 OA
ATOM     25  O   LIG    1       -1.222  -2.184   0.553  0.00  0.00    -0.153 OA
BRANCH  23  26
ATOM     26  N   LIG    1       -1.949  -1.145  -1.567  0.00  0.00    -0.172 NA
ATOM     27  C   LIG    1       -2.788  -0.167  -2.280  0.00  0.00    +0.137 C 
ATOM     28  C   LIG    1       -2.108   0.173  -3.611  0.00  0.00    +0.177 C 
ATOM     29  O   LIG    1       -1.811  -1.038  -4.311  0.00  0.00    -0.377 OA
ATOM     30  C   LIG    1       -0.893  -1.897  -3.631  0.00  0.00    +0.177 C 
ATOM     31  C   LIG    1       -1.505  -2.340  -2.302  0.00  0.00    +0.137 C 
ENDBRANCH  23  26
ENDBRANCH   7  23
TORSDOF 5
