REMARK  Name = ZINC01205976
REMARK                            x       y       z     vdW  Elec       q    Type
REMARK                         _______ _______ _______ _____ _____    ______ ____
ROOT
ATOM      1  C   LIG    1        4.933  -2.705   0.152  0.00  0.00    +0.037 A 
ATOM      2  C   LIG    1        6.132  -1.985   0.150  0.00  0.00    +0.015 A 
ATOM      3  C   LIG    1        7.333  -2.651   0.239  0.00  0.00    +0.025 A 
ATOM      4  C   LIG    1        7.355  -4.040   0.330  0.00  0.00    +0.048 A 
ATOM      5  C   LIG    1        6.163  -4.760   0.332  0.00  0.00    +0.025 A 
ATOM      6  C   LIG    1        4.959  -4.099   0.250  0.00  0.00    +0.015 A 
ENDROOT
BRANCH   1   9
ATOM      7  N   LIG    1        3.621  -0.650  -0.036  0.00  0.00    -0.282 N 
ATOM      8  H   LIG    1        4.452  -0.155  -0.110  0.00  0.00    +0.155 HD
ATOM      9  C   LIG    1        3.644  -1.994   0.058  0.00  0.00    +0.248 C 
ATOM     10  O   LIG    1        2.602  -2.622   0.065  0.00  0.00    -0.270 OA
BRANCH   7  14
ATOM     11  C   LIG    1       -0.018   1.377  -0.013  0.00  0.00    +0.000 A 
ATOM     12  C   LIG    1        1.092   1.944   0.587  0.00  0.00    +0.002 A 
ATOM     13  C   LIG    1        2.300   1.274   0.582  0.00  0.00    +0.023 A 
ATOM     14  C   LIG    1        2.399   0.030  -0.028  0.00  0.00    +0.034 A 
ATOM     15  C   LIG    1        1.283  -0.536  -0.630  0.00  0.00    +0.023 A 
ATOM     16  C   LIG    1        0.078   0.139  -0.621  0.00  0.00    +0.002 A 
ENDBRANCH   7  14
ENDBRANCH   1   9
BRANCH   4  17
ATOM     17  N   LIG    1        8.570  -4.710   0.419  0.00  0.00    -0.216 N 
ATOM     18  H   LIG    1        9.414  -4.202   0.418  0.00  0.00    +0.174 HD
BRANCH  17  19
ATOM     19  S   LIG    1        8.599  -6.362   0.528  0.00  0.00    +0.072 S 
ATOM     20  O   LIG    1        8.102  -6.859  -0.707  0.00  0.00    -0.150 OA
ATOM     21  O   LIG    1        8.009  -6.697   1.777  0.00  0.00    -0.150 OA
BRANCH  19  22
ATOM     22  C   LIG    1       10.290  -6.848   0.623  0.00  0.00    +0.108 A 
ATOM     23  C   LIG    1       10.999  -7.112  -0.534  0.00  0.00    +0.029 A 
ATOM     24  C   LIG    1       12.326  -7.494  -0.459  0.00  0.00    +0.002 A 
ATOM     25  C   LIG    1       12.943  -7.611   0.772  0.00  0.00    +0.000 A 
ATOM     26  C   LIG    1       12.234  -7.347   1.929  0.00  0.00    +0.002 A 
ATOM     27  C   LIG    1       10.909  -6.961   1.854  0.00  0.00    +0.029 A 
ENDBRANCH  19  22
ENDBRANCH  17  19
ENDBRANCH   4  17
TORSDOF 5
