REMARK  Name = ZINC00901180
REMARK                            x       y       z     vdW  Elec       q    Type
REMARK                         _______ _______ _______ _____ _____    ______ ____
ROOT
ATOM      1  C   LIG    1       -2.904   1.556   0.038  0.00  0.00    +0.000 C 
ATOM      2  C   LIG    1       -2.188   1.063  -1.221  0.00  0.00    +0.000 C 
ATOM      3  C   LIG    1       -0.753   1.593  -1.232  0.00  0.00    +0.002 C 
ATOM      4  C   LIG    1       -0.013   1.086   0.008  0.00  0.00    -0.029 C 
ATOM      5  C   LIG    1       -0.729   1.579   1.267  0.00  0.00    +0.002 C 
ATOM      6  C   LIG    1       -2.164   1.050   1.278  0.00  0.00    +0.000 C 
ENDROOT
BRANCH   4   7
ATOM      7  C   LIG    1        1.423   1.615  -0.003  0.00  0.00    -0.083 C 
BRANCH   7   8
ATOM      8  N   LIG    1        2.168   1.034   1.121  0.00  0.00    +0.378 N 
ATOM      9  H   LIG    1        1.681   1.313   2.068  0.00  0.00    -0.090 HD
ATOM     10  H   LIG    1        2.180  -0.062   1.025  0.00  0.00    -0.090 HD
ATOM     11  H   LIG    1        3.200   1.414   1.114  0.00  0.00    -0.090 HD
ENDBRANCH   7   8
ENDBRANCH   4   7
TORSDOF 2
