REMARK  Name = ZINC01028461
REMARK                            x       y       z     vdW  Elec       q    Type
REMARK                         _______ _______ _______ _____ _____    ______ ____
ROOT
ATOM      1  S   LIG    1        1.923  -2.672  -0.476  0.00  0.00    +0.106 S 
ATOM      2  O   LIG    1        0.809  -3.048   0.323  0.00  0.00    -0.147 OA
ATOM      3  O   LIG    1        3.208  -2.423   0.077  0.00  0.00    -0.147 OA
ENDROOT
BRANCH   1   8
ATOM      4  C   LIG    1        2.241   1.962  -2.990  0.00  0.00    +0.087 C 
ATOM      5  C   LIG    1        1.628   0.727  -2.383  0.00  0.00    +0.118 A 
ATOM      6  C   LIG    1        0.298   0.417  -2.373  0.00  0.00    +0.102 A 
ATOM      7  C   LIG    1        0.198  -0.874  -1.675  0.00  0.00    +0.086 A 
ATOM      8  C   LIG    1        1.453  -1.209  -1.338  0.00  0.00    +0.262 A 
ATOM      9  O   LIG    1        2.294  -0.255  -1.768  0.00  0.00    -0.441 OA
BRANCH   6  10
ATOM     10  C   LIG    1       -0.804   1.209  -2.941  0.00  0.00    +0.342 C 
ATOM     11  O   LIG    1       -0.571   2.266  -3.494  0.00  0.00    -0.245 OA
BRANCH  10  12
ATOM     12  O   LIG    1       -2.073   0.763  -2.849  0.00  0.00    -0.464 OA
ATOM     13  C   LIG    1       -3.093   1.583  -3.422  0.00  0.00    +0.280 C 
ENDBRANCH  10  12
ENDBRANCH   6  10
ENDBRANCH   1   8
BRANCH   1  14
ATOM     14  N   LIG    1        2.118  -3.866  -1.607  0.00  0.00    -0.214 N 
ATOM     15  H   LIG    1        2.992  -4.261  -1.750  0.00  0.00    +0.174 HD
BRANCH  14  16
ATOM     16  C   LIG    1        1.023  -4.304  -2.356  0.00  0.00    +0.049 A 
ATOM     17  C   LIG    1        0.062  -5.121  -1.770  0.00  0.00    +0.024 A 
ATOM     18  C   LIG    1       -1.023  -5.557  -2.507  0.00  0.00    +0.003 A 
ATOM     19  C   LIG    1       -1.160  -5.185  -3.829  0.00  0.00    +0.012 A 
ATOM     20  C   LIG    1       -0.201  -4.365  -4.426  0.00  0.00    +0.021 A 
ATOM     21  C   LIG    1        0.891  -3.920  -3.682  0.00  0.00    +0.036 A 
BRANCH  20  22
ATOM     22  C   LIG    1       -0.345  -3.966  -5.842  0.00  0.00    +0.155 A 
ATOM     23  C   LIG    1       -1.355  -4.311  -6.682  0.00  0.00    +0.160 A 
ATOM     24  N   LIG    1       -1.105  -3.741  -7.870  0.00  0.00    -0.224 NA
ATOM     25  C   LIG    1        0.008  -3.067  -7.789  0.00  0.00    +0.308 A 
ATOM     26  O   LIG    1        0.499  -3.181  -6.548  0.00  0.00    -0.442 OA
ENDBRANCH  20  22
ENDBRANCH  14  16
ENDBRANCH   1  14
TORSDOF 6
