REMARK  Name = ZINC00998178
REMARK                            x       y       z     vdW  Elec       q    Type
REMARK                         _______ _______ _______ _____ _____    ______ ____
ROOT
ATOM      1  C   LIG    1        3.711   1.880  -0.121  0.00  0.00    +0.022 A 
ATOM      2  C   LIG    1        3.640   3.277  -0.111  0.00  0.00    +0.014 A 
ATOM      3  C   LIG    1        4.793   4.024  -0.205  0.00  0.00    +0.027 A 
ATOM      4  C   LIG    1        6.026   3.391  -0.320  0.00  0.00    +0.047 A 
ATOM      5  C   LIG    1        6.101   2.002  -0.336  0.00  0.00    +0.027 A 
ATOM      6  C   LIG    1        4.953   1.248  -0.238  0.00  0.00    +0.014 A 
ENDROOT
BRANCH   4   7
ATOM      7  N   LIG    1        7.194   4.154  -0.420  0.00  0.00    -0.306 N 
ATOM      8  C   LIG    1        7.276   5.523  -0.423  0.00  0.00    +0.112 A 
ATOM      9  C   LIG    1        8.581   5.834  -0.534  0.00  0.00    +0.130 A 
ATOM     10  N   LIG    1        9.281   4.692  -0.605  0.00  0.00    -0.244 NA
ATOM     11  C   LIG    1        8.462   3.678  -0.538  0.00  0.00    +0.204 A 
ENDBRANCH   4   7
BRANCH   1  12
ATOM     12  C   LIG    1        2.479   1.076  -0.016  0.00  0.00    +0.193 C 
ATOM     13  O   LIG    1        2.393   0.016  -0.606  0.00  0.00    -0.287 OA
BRANCH  12  17
ATOM     14  C   LIG    1       -0.768   2.464   2.344  0.00  0.00    +0.000 A 
ATOM     15  C   LIG    1       -0.925   1.343   1.547  0.00  0.00    +0.001 A 
ATOM     16  C   LIG    1        0.127   0.884   0.782  0.00  0.00    +0.012 A 
ATOM     17  C   LIG    1        1.349   1.559   0.805  0.00  0.00    +0.022 A 
ATOM     18  C   LIG    1        1.499   2.692   1.607  0.00  0.00    +0.012 A 
ATOM     19  C   LIG    1        0.440   3.138   2.371  0.00  0.00    +0.001 A 
ENDBRANCH  12  17
ENDBRANCH   1  12
TORSDOF 3
