REMARK  Name = ZINC01066512
REMARK                            x       y       z     vdW  Elec       q    Type
REMARK                         _______ _______ _______ _____ _____    ______ ____
ROOT
ATOM      1  C   LIG    1       -1.994  -6.087  -0.024  0.00  0.00    +0.135 C 
ENDROOT
BRANCH   1   2
ATOM      2  C   LIG    1       -2.188  -6.529   1.404  0.00  0.00    +0.022 A 
ATOM      3  C   LIG    1       -3.462  -6.873   1.848  0.00  0.00    +0.030 A 
ATOM      4  C   LIG    1       -3.671  -7.277   3.132  0.00  0.00    +0.051 A 
ATOM      5 CL   LIG    1       -5.268  -7.700   3.664  0.00  0.00    -0.083 Cl
ATOM      6  C   LIG    1       -2.588  -7.348   4.025  0.00  0.00    +0.022 A 
ATOM      7  C   LIG    1       -2.764  -7.761   5.359  0.00  0.00    +0.013 A 
ATOM      8  C   LIG    1       -1.665  -7.808   6.169  0.00  0.00    +0.020 A 
ATOM      9  C   LIG    1       -0.415  -7.451   5.667  0.00  0.00    +0.111 A 
ATOM     10  N   LIG    1       -0.256  -7.067   4.424  0.00  0.00    -0.251 NA
ATOM     11  C   LIG    1       -1.289  -7.000   3.579  0.00  0.00    +0.114 A 
ATOM     12  C   LIG    1       -1.111  -6.591   2.241  0.00  0.00    +0.148 A 
BRANCH  12  13
ATOM     13  O   LIG    1        0.126  -6.257   1.788  0.00  0.00    -0.504 OA
ATOM     14  H   LIG    1        0.345  -5.321   1.898  0.00  0.00    +0.292 HD
ENDBRANCH  12  13
ENDBRANCH   1   2
BRANCH   1  18
ATOM     15  C   LIG    1       -2.154  -1.821  -0.229  0.00  0.00    +0.121 A 
ATOM     16  C   LIG    1       -0.939  -2.478  -0.363  0.00  0.00    +0.046 A 
ATOM     17  C   LIG    1       -0.890  -3.857  -0.296  0.00  0.00    +0.009 A 
ATOM     18  C   LIG    1       -2.050  -4.583  -0.096  0.00  0.00    -0.023 A 
ATOM     19  C   LIG    1       -3.262  -3.930   0.037  0.00  0.00    +0.009 A 
ATOM     20  C   LIG    1       -3.316  -2.551  -0.023  0.00  0.00    +0.046 A 
BRANCH  15  21
ATOM     21  O   LIG    1       -2.205  -0.465  -0.294  0.00  0.00    -0.492 OA
BRANCH  21  23
ATOM     22  C   LIG    1       -1.225   1.729  -0.553  0.00  0.00    +0.048 C 
ATOM     23  C   LIG    1       -0.970   0.221  -0.509  0.00  0.00    +0.225 C 
ENDBRANCH  21  23
ENDBRANCH  15  21
ENDBRANCH   1  18
BRANCH   1  24
ATOM     24  N   LIG    1       -3.053  -6.656  -0.860  0.00  0.00    -0.332 N 
ATOM     25  H   LIG    1       -3.834  -6.125  -1.081  0.00  0.00    +0.147 HD
BRANCH  24  26
ATOM     26  C   LIG    1       -2.939  -7.964  -1.339  0.00  0.00    +0.046 A 
ATOM     27  C   LIG    1       -3.977  -8.544  -2.064  0.00  0.00    +0.026 A 
ATOM     28  C   LIG    1       -3.816  -9.843  -2.517  0.00  0.00    +0.021 A 
ATOM     29  C   LIG    1       -2.641 -10.515  -2.238  0.00  0.00    +0.111 A 
ATOM     30  N   LIG    1       -1.677  -9.938  -1.549  0.00  0.00    -0.261 NA
ATOM     31  C   LIG    1       -1.786  -8.702  -1.103  0.00  0.00    +0.133 A 
ENDBRANCH  24  26
ENDBRANCH   1  24
TORSDOF 7
