REMARK  Name = ZINC01038692
REMARK                            x       y       z     vdW  Elec       q    Type
REMARK                         _______ _______ _______ _____ _____    ______ ____
ROOT
ATOM      1  C   LIG    1        0.003  -0.005   0.024  0.00  0.00    +0.082 A 
ATOM      2  C   LIG    1        1.239  -0.666   0.017  0.00  0.00    +0.048 A 
ATOM      3  C   LIG    1        2.392   0.095   0.010  0.00  0.00    +0.116 A 
ATOM      4  N   LIG    1        2.297   1.417   0.010  0.00  0.00    -0.230 NA
ATOM      5  C   LIG    1        1.115   2.018   0.016  0.00  0.00    +0.189 A 
ATOM      6  N   LIG    1       -0.015   1.329   0.022  0.00  0.00    -0.221 NA
ENDROOT
BRANCH   1  10
ATOM      7  C   LIG    1       -3.277  -2.561   0.045  0.00  0.00    +0.040 A 
ATOM      8  C   LIG    1       -3.584  -1.213   0.046  0.00  0.00    +0.018 A 
ATOM      9  C   LIG    1       -2.557  -0.304   0.039  0.00  0.00    +0.018 A 
ATOM     10  C   LIG    1       -1.256  -0.771   0.032  0.00  0.00    +0.038 A 
ATOM     11  S   LIG    1       -1.493  -2.541   0.027  0.00  0.00    -0.085 S 
BRANCH   7  16
ATOM     12  C   LIG    1       -7.407  -5.378   0.074  0.00  0.00    +0.173 C 
ATOM     13  N   LIG    1       -5.996  -4.984   0.065  0.00  0.00    -0.262 N 
ATOM     14  C   LIG    1       -4.939  -5.824   0.059  0.00  0.00    +0.142 A 
ATOM     15  C   LIG    1       -3.813  -5.079   0.051  0.00  0.00    +0.062 A 
ATOM     16  C   LIG    1       -4.193  -3.721   0.052  0.00  0.00    +0.100 A 
ATOM     17  N   LIG    1       -5.510  -3.670   0.066  0.00  0.00    -0.170 NA
BRANCH  14  18
ATOM     18  C   LIG    1       -5.004  -7.330   0.061  0.00  0.00    +0.434 C 
ATOM     19  F   LIG    1       -5.589  -7.773  -1.130  0.00  0.00    -0.164 F 
ATOM     20  F   LIG    1       -5.773  -7.762   1.147  0.00  0.00    -0.164 F 
ATOM     21  F   LIG    1       -3.711  -7.853   0.168  0.00  0.00    -0.164 F 
ENDBRANCH  14  18
ENDBRANCH   7  16
ENDBRANCH   1  10
BRANCH   5  22
ATOM     22  S   LIG    1        1.048   3.779   0.014  0.00  0.00    -0.077 S 
BRANCH  22  23
ATOM     23  C   LIG    1        2.817   4.161   0.004  0.00  0.00    +0.173 C 
BRANCH  23  24
ATOM     24  C   LIG    1        3.008   5.655   0.002  0.00  0.00    +0.227 C 
ATOM     25  N   LIG    1        4.252   6.176  -0.005  0.00  0.00    -0.285 N 
ATOM     26  H   LIG    1        5.023   5.591   0.059  0.00  0.00    +0.155 HD
ATOM     27  O   LIG    1        2.043   6.390   0.007  0.00  0.00    -0.275 OA
BRANCH  25  28
ATOM     28  C   LIG    1        4.430   7.561  -0.105  0.00  0.00    +0.033 A 
ATOM     29  C   LIG    1        5.515   8.074  -0.804  0.00  0.00    +0.025 A 
ATOM     30  C   LIG    1        5.686   9.440  -0.905  0.00  0.00    +0.022 A 
ATOM     31  C   LIG    1        4.783  10.298  -0.302  0.00  0.00    +0.041 A 
ATOM     32 CL   LIG    1        5.005  12.016  -0.426  0.00  0.00    -0.084 Cl
ATOM     33  C   LIG    1        3.704   9.790   0.400  0.00  0.00    +0.022 A 
ATOM     34  C   LIG    1        3.526   8.424   0.499  0.00  0.00    +0.025 A 
ENDBRANCH  25  28
ENDBRANCH  23  24
ENDBRANCH  22  23
ENDBRANCH   5  22
TORSDOF 7
