REMARK  Name = ZINC00854136
REMARK                            x       y       z     vdW  Elec       q    Type
REMARK                         _______ _______ _______ _____ _____    ______ ____
ROOT
ATOM      1  C   LIG    1        3.218   0.606   1.484  0.00  0.00    +0.106 A 
ATOM      2  C   LIG    1        3.567   1.487   0.475  0.00  0.00    +0.030 A 
ATOM      3  C   LIG    1        4.270   2.641   0.769  0.00  0.00    +0.022 A 
ATOM      4  C   LIG    1        4.628   2.922   2.073  0.00  0.00    +0.053 A 
ATOM      5 CL   LIG    1        5.511   4.371   2.441  0.00  0.00    -0.083 Cl
ATOM      6  C   LIG    1        4.278   2.037   3.096  0.00  0.00    +0.057 A 
ATOM      7  C   LIG    1        3.563   0.876   2.791  0.00  0.00    +0.043 A 
ENDROOT
BRANCH   6   8
ATOM      8  C   LIG    1        4.657   2.329   4.493  0.00  0.00    +0.250 C 
ATOM      9  N   LIG    1        4.318   1.473   5.477  0.00  0.00    -0.275 N 
ATOM     10  H   LIG    1        3.824   0.665   5.267  0.00  0.00    +0.156 HD
ATOM     11  O   LIG    1        5.275   3.343   4.756  0.00  0.00    -0.270 OA
BRANCH   9  12
ATOM     12  C   LIG    1        4.673   1.748   6.789  0.00  0.00    +0.090 A 
ATOM     13  C   LIG    1        4.418   0.990   7.915  0.00  0.00    +0.084 A 
ATOM     14  C   LIG    1        4.904   1.504   9.194  0.00  0.00    -0.018 A 
ATOM     15  C   LIG    1        5.552   2.680   9.102  0.00  0.00    -0.004 A 
ATOM     16  C   LIG    1        6.026   3.165  10.445  0.00  0.00    +0.043 C 
ATOM     17  C   LIG    1        5.215   2.339  11.468  0.00  0.00    +0.010 C 
ATOM     18  C   LIG    1        4.887   1.069  10.658  0.00  0.00    +0.037 C 
ATOM     19  S   LIG    1        5.519   3.074   7.372  0.00  0.00    -0.077 S 
BRANCH  13  20
ATOM     20  C   LIG    1        3.705  -0.250   7.833  0.00  0.00    +0.102 C 
ATOM     21  N   LIG    1        3.140  -1.233   7.768  0.00  0.00    -0.191 NA
ENDBRANCH  13  20
ENDBRANCH   9  12
ENDBRANCH   6   8
BRANCH   1  22
ATOM     22  S   LIG    1        2.322  -0.861   1.097  0.00  0.00    +0.061 S 
ATOM     23  O   LIG    1        2.594  -1.155  -0.266  0.00  0.00    -0.153 OA
ATOM     24  O   LIG    1        2.586  -1.786   2.143  0.00  0.00    -0.153 OA
BRANCH  22  25
ATOM     25  N   LIG    1        0.711  -0.489   1.189  0.00  0.00    -0.177 NA
BRANCH  25  27
ATOM     26  C   LIG    1       -0.019   1.526   0.010  0.00  0.00    +0.022 C 
ATOM     27  C   LIG    1        0.002  -0.004   0.002  0.00  0.00    +0.106 C 
ENDBRANCH  25  27
BRANCH  25  28
ATOM     28  C   LIG    1       -0.006  -0.646   2.457  0.00  0.00    +0.106 C 
ATOM     29  C   LIG    1       -0.694  -2.013   2.489  0.00  0.00    +0.022 C 
ENDBRANCH  25  28
ENDBRANCH  22  25
ENDBRANCH   1  22
TORSDOF 7
