REMARK  Name = ZINC01089661
REMARK                            x       y       z     vdW  Elec       q    Type
REMARK                         _______ _______ _______ _____ _____    ______ ____
ROOT
ATOM      1  C   LIG    1       -1.057  -2.117   0.001  0.00  0.00    +0.163 C 
ATOM      2  C   LIG    1       -1.016  -2.637   1.440  0.00  0.00    -0.033 C 
ATOM      3  N   LIG    1       -2.153  -3.528   1.683  0.00  0.00    +0.382 N 
ATOM      4  H   LIG    1       -2.105  -3.853   2.637  0.00  0.00    -0.082 HD
ATOM      5  C   LIG    1       -3.417  -2.809   1.512  0.00  0.00    -0.078 C 
ATOM      6  C   LIG    1       -3.538  -2.295   0.076  0.00  0.00    -0.012 C 
ATOM      7  C   LIG    1       -2.096  -4.691   0.794  0.00  0.00    -0.078 C 
ATOM      8  C   LIG    1       -2.172  -4.239  -0.668  0.00  0.00    -0.012 C 
ATOM      9  C   LIG    1       -2.282  -2.709  -0.708  0.00  0.00    +0.024 C 
ENDROOT
BRANCH   1  10
ATOM     10  O   LIG    1       -1.151  -0.691   0.009  0.00  0.00    -0.463 OA
BRANCH  10  12
ATOM     11  C   LIG    1       -0.018   1.503   0.010  0.00  0.00    +0.136 C 
ATOM     12  C   LIG    1        0.002  -0.004   0.002  0.00  0.00    +0.304 C 
ATOM     13  O   LIG    1        1.056  -0.594  -0.011  0.00  0.00    -0.251 OA
ENDBRANCH  10  12
ENDBRANCH   1  10
TORSDOF 2
