REMARK  Name = ZINC00828109
REMARK                            x       y       z     vdW  Elec       q    Type
REMARK                         _______ _______ _______ _____ _____    ______ ____
ROOT
ATOM      1  C   LIG    1       -1.303   2.072  -0.407  0.00  0.00    +0.077 C 
ATOM      2  C   LIG    1       -1.239   2.846  -1.695  0.00  0.00    +0.005 A 
ATOM      3  C   LIG    1       -1.415   2.195  -2.901  0.00  0.00    +0.008 A 
ATOM      4  C   LIG    1       -1.359   2.902  -4.087  0.00  0.00    +0.002 A 
ATOM      5  C   LIG    1       -1.127   4.266  -4.069  0.00  0.00    +0.024 A 
ATOM      6  C   LIG    1       -0.950   4.922  -2.867  0.00  0.00    +0.083 A 
ATOM      7 CL   LIG    1       -0.659   6.633  -2.846  0.00  0.00    -0.080 Cl
ATOM      8  C   LIG    1       -1.004   4.212  -1.672  0.00  0.00    +0.150 A 
ATOM      9  O   LIG    1       -0.824   4.857  -0.498  0.00  0.00    -0.458 OA
ATOM     10  C   LIG    1       -1.298   4.324   0.641  0.00  0.00    +0.113 C 
ATOM     11  C   LIG    1       -1.534   5.253   1.810  0.00  0.00    +0.081 C 
ATOM     12  C   LIG    1       -2.699   4.735   2.653  0.00  0.00    -0.021 C 
ATOM     13  C   LIG    1       -2.917   5.653   3.857  0.00  0.00    +0.012 C 
ATOM     14  C   LIG    1       -3.970   4.692   1.802  0.00  0.00    +0.012 C 
ATOM     15  C   LIG    1       -2.356   3.322   3.138  0.00  0.00    +0.086 C 
ATOM     16  C   LIG    1       -2.058   2.457   1.944  0.00  0.00    +0.164 C 
ATOM     17  O   LIG    1       -2.258   1.260   2.011  0.00  0.00    -0.292 OA
ATOM     18  C   LIG    1       -1.552   3.007   0.751  0.00  0.00    +0.042 C 
ENDROOT
BRANCH   1  25
ATOM     19  C   LIG    1        1.683   0.366   2.262  0.00  0.00    +0.012 C 
ATOM     20  C   LIG    1        2.268   0.082   0.877  0.00  0.00    -0.022 C 
ATOM     21  C   LIG    1        3.591  -0.672   1.024  0.00  0.00    +0.012 C 
ATOM     22  C   LIG    1        1.282  -0.765   0.068  0.00  0.00    +0.082 C 
ATOM     23  C   LIG    1        0.004   0.005  -0.131  0.00  0.00    +0.145 C 
ATOM     24  O   LIG    1       -1.159  -0.663  -0.249  0.00  0.00    -0.297 OA
ATOM     25  C   LIG    1        0.002   1.349  -0.194  0.00  0.00    +0.133 C 
ATOM     26  C   LIG    1        1.184   2.094  -0.072  0.00  0.00    +0.145 C 
ATOM     27  O   LIG    1        1.141   3.307  -0.139  0.00  0.00    -0.297 OA
ATOM     28  C   LIG    1        2.506   1.403   0.140  0.00  0.00    +0.082 C 
ENDBRANCH   1  25
TORSDOF 1
