REMARK  Name = ZINC00901405
REMARK                            x       y       z     vdW  Elec       q    Type
REMARK                         _______ _______ _______ _____ _____    ______ ____
ROOT
ATOM      1  C   LIG    1       -0.017   1.382   0.010  0.00  0.00    +0.001 A 
ATOM      2  C   LIG    1        1.165   2.099   0.002  0.00  0.00    +0.001 A 
ATOM      3  C   LIG    1        2.385   1.441  -0.013  0.00  0.00    +0.012 A 
ATOM      4  C   LIG    1        2.420   0.052  -0.021  0.00  0.00    +0.032 A 
ATOM      5  C   LIG    1        1.218  -0.678  -0.013  0.00  0.00    +0.032 A 
ATOM      6  C   LIG    1        1.266  -2.156  -0.021  0.00  0.00    +0.187 C 
ATOM      7  C   LIG    1        2.571  -2.845  -0.037  0.00  0.00    +0.055 C 
ATOM      8  C   LIG    1        3.716  -2.150  -0.044  0.00  0.00    +0.055 C 
ATOM      9  O   LIG    1        0.236  -2.800  -0.015  0.00  0.00    -0.287 OA
ATOM     10  C   LIG    1        3.708  -0.675  -0.036  0.00  0.00    +0.187 C 
ATOM     11  O   LIG    1        4.755  -0.059  -0.043  0.00  0.00    -0.287 OA
ATOM     12  C   LIG    1        0.002  -0.004   0.002  0.00  0.00    +0.012 A 
ENDROOT
TORSDOF 0
