REMARK  Name = ZINC00813644
REMARK                            x       y       z     vdW  Elec       q    Type
REMARK                         _______ _______ _______ _____ _____    ______ ____
ROOT
ATOM      1  C   LIG    1        0.922  -0.881   0.731  0.00  0.00    +0.143 A 
ATOM      2  C   LIG    1        1.342   0.013   1.701  0.00  0.00    +0.070 A 
ATOM      3  C   LIG    1        1.662  -0.443   2.973  0.00  0.00    +0.037 A 
ATOM      4  C   LIG    1        1.562  -1.796   3.272  0.00  0.00    +0.025 A 
ATOM      5  C   LIG    1        1.144  -2.690   2.306  0.00  0.00    +0.029 A 
ATOM      6  C   LIG    1        0.817  -2.237   1.036  0.00  0.00    +0.076 A 
ENDROOT
BRANCH   3   7
ATOM      7  N   LIG    1        2.086   0.461   3.954  0.00  0.00    -0.281 N 
ATOM      8  H   LIG    1        2.763   0.196   4.597  0.00  0.00    +0.155 HD
ATOM      9  C   LIG    1        1.555   1.698   4.006  0.00  0.00    +0.255 C 
ATOM     10  O   LIG    1        0.767   2.058   3.150  0.00  0.00    -0.269 OA
BRANCH   9  11
ATOM     11  C   LIG    1        1.925   2.610   5.092  0.00  0.00    +0.074 A 
ATOM     12  C   LIG    1        1.494   3.907   5.329  0.00  0.00    +0.021 A 
ATOM     13  C   LIG    1        2.023   4.517   6.441  0.00  0.00    +0.008 A 
ATOM     14  C   LIG    1        2.906   3.834   7.211  0.00  0.00    +0.046 A 
ATOM     15  S   LIG    1        3.040   2.339   6.456  0.00  0.00    -0.092 S 
ENDBRANCH   9  11
ENDBRANCH   3   7
BRANCH   6  16
ATOM     16  N   LIG    1        0.387  -3.144   0.057  0.00  0.00    -0.279 N 
ATOM     17  H   LIG    1       -0.201  -2.847  -0.655  0.00  0.00    +0.155 HD
ATOM     18  C   LIG    1        0.791  -4.429   0.105  0.00  0.00    +0.250 C 
ATOM     19  O   LIG    1        1.463  -4.821   1.039  0.00  0.00    -0.270 OA
BRANCH  18  20
ATOM     20  C   LIG    1        0.415  -5.362  -0.977  0.00  0.00    +0.055 A 
ATOM     21  C   LIG    1       -0.352  -4.915  -2.054  0.00  0.00    +0.014 A 
ATOM     22  C   LIG    1       -0.699  -5.791  -3.062  0.00  0.00    +0.001 A 
ATOM     23  C   LIG    1       -0.287  -7.112  -3.007  0.00  0.00    +0.001 A 
ATOM     24  C   LIG    1        0.473  -7.563  -1.944  0.00  0.00    +0.021 A 
ATOM     25  C   LIG    1        0.832  -6.695  -0.931  0.00  0.00    +0.053 A 
ATOM     26 CL   LIG    1        1.792  -7.261   0.400  0.00  0.00    -0.083 Cl
ENDBRANCH  18  20
ENDBRANCH   6  16
BRANCH   1  28
ATOM     27  C   LIG    1        0.740   0.966  -0.755  0.00  0.00    +0.277 C 
ATOM     28  O   LIG    1        0.608  -0.437  -0.515  0.00  0.00    -0.493 OA
ENDBRANCH   1  28
TORSDOF 5
