REMARK  Name = ZINC00885936
REMARK                            x       y       z     vdW  Elec       q    Type
REMARK                         _______ _______ _______ _____ _____    ______ ____
ROOT
ATOM      1  C   LIG    1       -3.227   2.090   5.467  0.00  0.00    +0.035 A 
ATOM      2  C   LIG    1       -2.859   0.752   5.386  0.00  0.00    +0.023 A 
ATOM      3  C   LIG    1       -3.139  -0.107   6.431  0.00  0.00    +0.004 A 
ATOM      4  C   LIG    1       -3.794   0.358   7.555  0.00  0.00    +0.023 A 
ATOM      5  C   LIG    1       -4.169   1.693   7.640  0.00  0.00    +0.035 A 
ATOM      6  C   LIG    1       -3.885   2.560   6.594  0.00  0.00    +0.046 A 
ENDROOT
BRANCH   1   8
ATOM      7  C   LIG    1       -2.607   4.242   4.665  0.00  0.00    +0.252 C 
ATOM      8  N   LIG    1       -2.938   2.960   4.411  0.00  0.00    -0.281 N 
ATOM      9  H   LIG    1       -2.977   2.642   3.496  0.00  0.00    +0.155 HD
ATOM     10  O   LIG    1       -2.640   4.664   5.805  0.00  0.00    -0.270 OA
BRANCH   7  16
ATOM     11  C   LIG    1       -1.858   6.465   3.820  0.00  0.00    +0.132 A 
ATOM     12  C   LIG    1       -1.474   7.292   2.775  0.00  0.00    +0.046 A 
ATOM     13  C   LIG    1       -1.439   6.804   1.484  0.00  0.00    +0.004 A 
ATOM     14  C   LIG    1       -1.786   5.488   1.222  0.00  0.00    +0.001 A 
ATOM     15  C   LIG    1       -2.169   4.653   2.249  0.00  0.00    +0.017 A 
ATOM     16  C   LIG    1       -2.203   5.132   3.561  0.00  0.00    +0.079 A 
BRANCH  11  18
ATOM     17  C   LIG    1       -1.521   8.310   5.278  0.00  0.00    +0.277 C 
ATOM     18  O   LIG    1       -1.893   6.944   5.089  0.00  0.00    -0.494 OA
ENDBRANCH  11  18
ENDBRANCH   7  16
ENDBRANCH   1   8
BRANCH   5  19
ATOM     19  N   LIG    1       -4.832   2.163   8.778  0.00  0.00    -0.281 N 
ATOM     20  H   LIG    1       -4.681   3.070   9.088  0.00  0.00    +0.155 HD
ATOM     21  C   LIG    1       -5.681   1.356   9.445  0.00  0.00    +0.248 C 
ATOM     22  O   LIG    1       -5.942   0.253   9.006  0.00  0.00    -0.270 OA
BRANCH  21  23
ATOM     23  C   LIG    1       -6.295   1.812  10.710  0.00  0.00    +0.038 A 
ATOM     24  C   LIG    1       -7.174   0.979  11.403  0.00  0.00    +0.013 A 
ATOM     25  C   LIG    1       -7.744   1.410  12.583  0.00  0.00    +0.002 A 
ATOM     26  C   LIG    1       -7.446   2.666  13.081  0.00  0.00    +0.020 A 
ATOM     27  C   LIG    1       -6.574   3.498  12.399  0.00  0.00    +0.042 A 
ATOM     28 CL   LIG    1       -6.206   5.072  13.031  0.00  0.00    -0.084 Cl
ATOM     29  C   LIG    1       -5.993   3.076  11.220  0.00  0.00    +0.033 A 
ENDBRANCH  21  23
ENDBRANCH   5  19
TORSDOF 5
