REMARK  Name = ZINC01065026
REMARK                            x       y       z     vdW  Elec       q    Type
REMARK                         _______ _______ _______ _____ _____    ______ ____
ROOT
ATOM      1  C   LIG    1       -0.021   1.506   0.020  0.00  0.00    +0.135 C 
ENDROOT
BRANCH   1   7
ATOM      2  C   LIG    1       -1.457  -4.763   0.259  0.00  0.00    +0.020 A 
ATOM      3  C   LIG    1       -1.236  -3.903   1.297  0.00  0.00    +0.011 A 
ATOM      4  C   LIG    1       -0.934  -2.562   0.995  0.00  0.00    +0.004 A 
ATOM      5  C   LIG    1       -0.695  -1.620   2.010  0.00  0.00    +0.010 A 
ATOM      6  C   LIG    1       -0.401  -0.332   1.680  0.00  0.00    +0.010 A 
ATOM      7  C   LIG    1       -0.344   0.071   0.348  0.00  0.00    +0.021 A 
ATOM      8  C   LIG    1       -0.571  -0.816  -0.666  0.00  0.00    +0.148 A 
ATOM      9  C   LIG    1       -0.873  -2.160  -0.362  0.00  0.00    +0.113 A 
ATOM     10  N   LIG    1       -1.100  -3.052  -1.330  0.00  0.00    -0.251 NA
ATOM     11  C   LIG    1       -1.381  -4.302  -1.053  0.00  0.00    +0.111 A 
BRANCH   8  12
ATOM     12  O   LIG    1       -0.506  -0.406  -1.959  0.00  0.00    -0.504 OA
ATOM     13  H   LIG    1        0.374  -0.486  -2.353  0.00  0.00    +0.292 HD
ENDBRANCH   8  12
ENDBRANCH   1   7
BRANCH   1  14
ATOM     14  C   LIG    1        1.461   1.647  -0.209  0.00  0.00    -0.023 A 
ATOM     15  C   LIG    1        2.333   1.615   0.863  0.00  0.00    +0.006 A 
ATOM     16  C   LIG    1        3.693   1.740   0.653  0.00  0.00    +0.013 A 
ATOM     17  C   LIG    1        4.181   1.908  -0.630  0.00  0.00    +0.055 A 
ATOM     18  C   LIG    1        3.310   1.946  -1.702  0.00  0.00    +0.013 A 
ATOM     19  C   LIG    1        1.950   1.816  -1.492  0.00  0.00    +0.006 A 
BRANCH  17  20
ATOM     20  C   LIG    1        5.664   2.051  -0.859  0.00  0.00    +0.417 C 
ATOM     21  F   LIG    1        5.992   1.540  -2.119  0.00  0.00    -0.166 F 
ATOM     22  F   LIG    1        6.359   1.342   0.128  0.00  0.00    -0.166 F 
ATOM     23  F   LIG    1        6.017   3.403  -0.797  0.00  0.00    -0.166 F 
ENDBRANCH  17  20
ENDBRANCH   1  14
BRANCH   1  24
ATOM     24  N   LIG    1       -0.427   2.365   1.135  0.00  0.00    -0.332 N 
ATOM     25  H   LIG    1        0.231   2.663   1.782  0.00  0.00    +0.147 HD
BRANCH  24  26
ATOM     26  C   LIG    1       -1.763   2.755   1.266  0.00  0.00    +0.046 A 
ATOM     27  C   LIG    1       -2.180   3.483   2.377  0.00  0.00    +0.026 A 
ATOM     28  C   LIG    1       -3.514   3.848   2.462  0.00  0.00    +0.021 A 
ATOM     29  C   LIG    1       -4.380   3.479   1.449  0.00  0.00    +0.111 A 
ATOM     30  N   LIG    1       -3.953   2.790   0.409  0.00  0.00    -0.261 NA
ATOM     31  C   LIG    1       -2.692   2.427   0.287  0.00  0.00    +0.133 A 
ENDBRANCH  24  26
ENDBRANCH   1  24
TORSDOF 6
