REMARK  Name = ZINC01009756
REMARK                            x       y       z     vdW  Elec       q    Type
REMARK                         _______ _______ _______ _____ _____    ______ ____
ROOT
ATOM      1  C   LIG    1       -1.619   1.845  -1.183  0.00  0.00    +0.020 C 
ATOM      2  C   LIG    1       -2.610   1.107  -0.603  0.00  0.00    +0.077 C 
ATOM      3  C   LIG    1       -2.852  -0.346  -0.652  0.00  0.00    +0.263 C 
ATOM      4  N   LIG    1       -3.899  -0.797   0.017  0.00  0.00    -0.224 N 
ATOM      5  C   LIG    1       -4.711   0.036   0.699  0.00  0.00    +0.125 C 
ATOM      6  S   LIG    1       -6.108  -0.349   1.611  0.00  0.00    -0.027 S 
ATOM      7  O   LIG    1       -2.120  -1.095  -1.275  0.00  0.00    -0.269 OA
ATOM      8  S   LIG    1       -3.976   1.639   0.420  0.00  0.00    -0.061 S 
ENDROOT
BRANCH   4   9
ATOM      9  C   LIG    1       -4.175  -2.166   0.011  0.00  0.00    +0.043 A 
ATOM     10  C   LIG    1       -3.626  -2.989   0.989  0.00  0.00    +0.025 A 
ATOM     11  C   LIG    1       -3.900  -4.338   0.990  0.00  0.00    +0.017 A 
ATOM     12  C   LIG    1       -4.723  -4.883  -0.001  0.00  0.00    +0.059 A 
ATOM     13  C   LIG    1       -5.269  -4.054  -0.985  0.00  0.00    +0.017 A 
ATOM     14  C   LIG    1       -4.995  -2.705  -0.976  0.00  0.00    +0.025 A 
BRANCH  12  15
ATOM     15  C   LIG    1       -5.014  -6.329  -0.007  0.00  0.00    +0.337 C 
ATOM     16  O   LIG    1       -5.730  -6.800  -0.868  0.00  0.00    -0.245 OA
BRANCH  15  17
ATOM     17  O   LIG    1       -4.487  -7.126   0.943  0.00  0.00    -0.477 OA
ATOM     18  H   LIG    1       -3.935  -6.762   1.607  0.00  0.00    +0.295 HD
ENDBRANCH  15  17
ENDBRANCH  12  15
ENDBRANCH   4   9
BRANCH   1  20
ATOM     19  C   LIG    1        0.349   1.941  -2.541  0.00  0.00    +0.008 C 
ATOM     20  C   LIG    1       -0.631   1.209  -1.960  0.00  0.00    +0.002 C 
BRANCH  19  24
ATOM     21  C   LIG    1        3.314   0.029  -4.894  0.00  0.00    +0.000 A 
ATOM     22  C   LIG    1        3.352   1.402  -4.721  0.00  0.00    +0.001 A 
ATOM     23  C   LIG    1        2.392   2.031  -3.958  0.00  0.00    +0.008 A 
ATOM     24  C   LIG    1        1.377   1.278  -3.356  0.00  0.00    -0.025 A 
ATOM     25  C   LIG    1        1.350  -0.110  -3.531  0.00  0.00    +0.008 A 
ATOM     26  C   LIG    1        2.314  -0.723  -4.302  0.00  0.00    +0.001 A 
ENDBRANCH  19  24
ENDBRANCH   1  20
TORSDOF 5
