REMARK  Name = ZINC00781555
REMARK                            x       y       z     vdW  Elec       q    Type
REMARK                         _______ _______ _______ _____ _____    ______ ____
ROOT
ATOM      1  C   LIG    1        3.437  -1.984   2.293  0.00  0.00    +0.049 A 
ATOM      2  C   LIG    1        2.062  -1.996   2.087  0.00  0.00    +0.028 A 
ATOM      3  C   LIG    1        1.259  -2.861   2.804  0.00  0.00    +0.048 A 
ATOM      4  C   LIG    1        1.819  -3.723   3.733  0.00  0.00    +0.125 A 
ATOM      5  C   LIG    1        3.202  -3.716   3.945  0.00  0.00    +0.029 A 
ATOM      6  C   LIG    1        4.009  -2.845   3.215  0.00  0.00    +0.036 A 
ENDROOT
BRANCH   5   7
ATOM      7  C   LIG    1        3.806  -4.635   4.936  0.00  0.00    +0.035 A 
ATOM      8  C   LIG    1        4.240  -5.924   4.545  0.00  0.00    -0.007 A 
ATOM      9  C   LIG    1        4.112  -6.363   3.219  0.00  0.00    +0.009 A 
ATOM     10  C   LIG    1        4.541  -7.610   2.876  0.00  0.00    +0.001 A 
ATOM     11  C   LIG    1        5.107  -8.458   3.825  0.00  0.00    +0.001 A 
ATOM     12  C   LIG    1        5.246  -8.065   5.121  0.00  0.00    +0.008 A 
ATOM     13  C   LIG    1        4.815  -6.785   5.511  0.00  0.00    -0.017 A 
ATOM     14  C   LIG    1        4.946  -6.348   6.841  0.00  0.00    +0.012 A 
ATOM     15  C   LIG    1        4.522  -5.105   7.197  0.00  0.00    +0.046 A 
ATOM     16  C   LIG    1        3.958  -4.240   6.258  0.00  0.00    +0.125 A 
BRANCH  16  17
ATOM     17  O   LIG    1        3.550  -3.003   6.642  0.00  0.00    -0.506 OA
ATOM     18  H   LIG    1        2.631  -2.967   6.942  0.00  0.00    +0.292 HD
ENDBRANCH  16  17
ENDBRANCH   5   7
BRANCH   1  19
ATOM     19  N   LIG    1        4.245  -1.104   1.563  0.00  0.00    -0.216 N 
ATOM     20  H   LIG    1        4.610  -0.314   1.990  0.00  0.00    +0.174 HD
BRANCH  19  21
ATOM     21  S   LIG    1        4.577  -1.413  -0.030  0.00  0.00    +0.072 S 
ATOM     22  O   LIG    1        3.334  -1.703  -0.655  0.00  0.00    -0.150 OA
ATOM     23  O   LIG    1        5.429  -0.368  -0.477  0.00  0.00    -0.150 OA
BRANCH  21  27
ATOM     24  C   LIG    1        7.016  -5.224  -0.176  0.00  0.00    +0.000 A 
ATOM     25  C   LIG    1        5.645  -5.274  -0.344  0.00  0.00    +0.002 A 
ATOM     26  C   LIG    1        4.900  -4.110  -0.299  0.00  0.00    +0.029 A 
ATOM     27  C   LIG    1        5.526  -2.897  -0.086  0.00  0.00    +0.108 A 
ATOM     28  C   LIG    1        6.897  -2.846   0.083  0.00  0.00    +0.029 A 
ATOM     29  C   LIG    1        7.642  -4.010   0.037  0.00  0.00    +0.002 A 
ENDBRANCH  21  27
ENDBRANCH  19  21
ENDBRANCH   1  19
BRANCH   4  30
ATOM     30  O   LIG    1        1.026  -4.574   4.438  0.00  0.00    -0.506 OA
ATOM     31  H   LIG    1        0.896  -5.432   4.013  0.00  0.00    +0.292 HD
ENDBRANCH   4  30
TORSDOF 6
