REMARK  Name = ZINC00899870
REMARK                            x       y       z     vdW  Elec       q    Type
REMARK                         _______ _______ _______ _____ _____    ______ ____
ROOT
ATOM      1  C   LIG    1       -1.746  -1.026  -1.429  0.00  0.00    +0.289 C 
ENDROOT
BRANCH   1   2
ATOM      2  C   LIG    1       -3.100  -1.687  -1.422  0.00  0.00    +0.346 C 
ATOM      3  O   LIG    1       -4.070  -1.085  -0.992  0.00  0.00    -0.247 OA
BRANCH   2   4
ATOM      4  O   LIG    1       -3.227  -2.823  -1.846  0.00  0.00    -0.478 OA
ATOM      5  H   LIG    1       -2.482  -3.285  -2.176  0.00  0.00    +0.295 HD
ENDBRANCH   2   4
ENDBRANCH   1   2
BRANCH   1   6
ATOM      6  C   LIG    1       -1.294  -0.774   0.010  0.00  0.00    +0.091 C 
BRANCH   6  12
ATOM      7  C   LIG    1       -0.017   1.378   0.010  0.00  0.00    +0.007 A 
ATOM      8  C   LIG    1        1.170   2.089   0.002  0.00  0.00    +0.049 A 
ATOM      9  C   LIG    1        2.380   1.415  -0.013  0.00  0.00    +0.158 A 
ATOM     10  C   LIG    1        2.399   0.024  -0.021  0.00  0.00    +0.158 A 
ATOM     11  C   LIG    1        1.207  -0.682  -0.013  0.00  0.00    +0.053 A 
ATOM     12  C   LIG    1        0.002  -0.004   0.002  0.00  0.00    -0.040 A 
BRANCH   9  13
ATOM     13  O   LIG    1        3.548   2.113  -0.021  0.00  0.00    -0.503 OA
ATOM     14  H   LIG    1        3.894   2.310   0.860  0.00  0.00    +0.292 HD
ENDBRANCH   9  13
BRANCH  10  15
ATOM     15  O   LIG    1        3.585  -0.642  -0.036  0.00  0.00    -0.503 OA
ATOM     16  H   LIG    1        3.937  -0.839   0.843  0.00  0.00    +0.292 HD
ENDBRANCH  10  15
ENDBRANCH   6  12
ENDBRANCH   1   6
BRANCH   1  17
ATOM     17  O   LIG    1       -0.803  -1.880  -2.082  0.00  0.00    -0.446 OA
BRANCH  17  18
ATOM     18  C   LIG    1       -0.658  -1.726  -3.415  0.00  0.00    +0.333 C 
ATOM     19  O   LIG    1       -1.315  -0.890  -4.006  0.00  0.00    -0.246 OA
BRANCH  18  20
ATOM     20  C   LIG    1        0.259  -2.540  -4.126  0.00  0.00    +0.092 C 
ATOM     21  C   LIG    1        0.405  -2.386  -5.460  0.00  0.00    +0.015 C 
BRANCH  21  22
ATOM     22  C   LIG    1        1.356  -3.229  -6.198  0.00  0.00    -0.021 A 
ATOM     23  C   LIG    1        2.108  -4.196  -5.521  0.00  0.00    +0.012 A 
ATOM     24  C   LIG    1        2.999  -4.985  -6.214  0.00  0.00    +0.050 A 
ATOM     25  C   LIG    1        3.153  -4.824  -7.585  0.00  0.00    +0.158 A 
ATOM     26  C   LIG    1        2.408  -3.863  -8.267  0.00  0.00    +0.159 A 
ATOM     27  C   LIG    1        1.508  -3.072  -7.580  0.00  0.00    +0.057 A 
BRANCH  25  28
ATOM     28  O   LIG    1        4.034  -5.605  -8.263  0.00  0.00    -0.503 OA
ATOM     29  H   LIG    1        3.652  -6.426  -8.601  0.00  0.00    +0.292 HD
ENDBRANCH  25  28
BRANCH  26  30
ATOM     30  O   LIG    1        2.562  -3.710  -9.609  0.00  0.00    -0.503 OA
ATOM     31  H   LIG    1        1.969  -4.260 -10.139  0.00  0.00    +0.292 HD
ENDBRANCH  26  30
ENDBRANCH  21  22
ENDBRANCH  18  20
ENDBRANCH  17  18
ENDBRANCH   1  17
TORSDOF 12
