REMARK  Name = ZINC00968273
REMARK                            x       y       z     vdW  Elec       q    Type
REMARK                         _______ _______ _______ _____ _____    ______ ____
ROOT
ATOM      1  C   LIG    1        3.777  -0.756   0.057  0.00  0.00    +0.092 C 
ENDROOT
BRANCH   1   5
ATOM      2  C   LIG    1        0.076   1.345  -0.315  0.00  0.00    +0.000 A 
ATOM      3  C   LIG    1        1.271   2.039  -0.347  0.00  0.00    +0.000 A 
ATOM      4  C   LIG    1        2.469   1.359  -0.227  0.00  0.00    +0.006 A 
ATOM      5  C   LIG    1        2.471  -0.014  -0.074  0.00  0.00    -0.016 A 
ATOM      6  C   LIG    1        1.276  -0.708  -0.041  0.00  0.00    +0.006 A 
ATOM      7  C   LIG    1        0.079  -0.029  -0.163  0.00  0.00    +0.000 A 
ENDBRANCH   1   5
BRANCH   1   8
ATOM      8  C   LIG    1        3.623  -2.165  -0.518  0.00  0.00    +0.025 C 
ATOM      9  C   LIG    1        4.923  -2.944  -0.314  0.00  0.00    +0.007 C 
ATOM     10  C   LIG    1        4.769  -4.354  -0.889  0.00  0.00    +0.000 C 
ATOM     11  C   LIG    1        4.459  -4.263  -2.384  0.00  0.00    +0.000 C 
ATOM     12  C   LIG    1        3.158  -3.484  -2.589  0.00  0.00    +0.000 C 
ATOM     13  C   LIG    1        3.312  -2.075  -2.014  0.00  0.00    +0.007 C 
ENDBRANCH   1   8
BRANCH   1  14
ATOM     14  O   LIG    1        4.795  -0.057  -0.662  0.00  0.00    -0.384 OA
ATOM     15  H   LIG    1        4.947   0.846  -0.350  0.00  0.00    +0.211 HD
ENDBRANCH   1  14
BRANCH   1  16
ATOM     16  C   LIG    1        4.166  -0.847   1.534  0.00  0.00    +0.021 C 
BRANCH  16  17
ATOM     17  C   LIG    1        4.292   0.562   2.116  0.00  0.00    -0.076 C 
BRANCH  17  18
ATOM     18  N   LIG    1        4.800   0.479   3.492  0.00  0.00    +0.380 N 
ATOM     19  H   LIG    1        5.668  -0.036   3.499  0.00  0.00    -0.082 HD
ATOM     20  C   LIG    1        3.817  -0.212   4.334  0.00  0.00    -0.079 C 
ATOM     21  C   LIG    1        4.376  -0.372   5.750  0.00  0.00    -0.019 C 
ATOM     22  C   LIG    1        4.670   1.011   6.337  0.00  0.00    -0.004 C 
ATOM     23  C   LIG    1        5.640   1.752   5.410  0.00  0.00    -0.019 C 
ATOM     24  C   LIG    1        5.034   1.834   4.008  0.00  0.00    -0.079 C 
ENDBRANCH  17  18
ENDBRANCH  16  17
ENDBRANCH   1  16
TORSDOF 6
