REMARK  Name = ZINC00752551
REMARK                            x       y       z     vdW  Elec       q    Type
REMARK                         _______ _______ _______ _____ _____    ______ ____
ROOT
ATOM      1  C   LIG    1        2.490   1.045  -0.016  0.00  0.00    +0.101 C 
ATOM      2  C   LIG    1        3.257   1.422  -1.253  0.00  0.00    +0.098 C 
ATOM      3  C   LIG    1        4.277   2.312  -1.182  0.00  0.00    +0.198 C 
ATOM      4  O   LIG    1        4.626   2.884  -0.019  0.00  0.00    -0.445 OA
ATOM      5  C   LIG    1        4.291   2.297   1.145  0.00  0.00    +0.115 C 
ATOM      6  C   LIG    1        5.077   2.671   2.379  0.00  0.00    +0.083 C 
ATOM      7  C   LIG    1        5.131   1.478   3.336  0.00  0.00    +0.034 C 
ATOM      8  C   LIG    1        3.696   1.081   3.699  0.00  0.00    +0.088 C 
ATOM      9  C   LIG    1        2.938   0.788   2.433  0.00  0.00    +0.164 C 
ATOM     10  O   LIG    1        2.012   0.003   2.461  0.00  0.00    -0.292 OA
ATOM     11  C   LIG    1        3.284   1.410   1.215  0.00  0.00    +0.046 C 
ENDROOT
BRANCH   1  15
ATOM     12  C   LIG    1       -1.237   3.137   0.031  0.00  0.00    +0.120 A 
ATOM     13  C   LIG    1       -1.218   1.750   0.017  0.00  0.00    +0.046 A 
ATOM     14  C   LIG    1       -0.013   1.076   0.008  0.00  0.00    +0.008 A 
ATOM     15  C   LIG    1        1.176   1.783   0.000  0.00  0.00    -0.034 A 
ATOM     16  C   LIG    1        1.160   3.165   0.008  0.00  0.00    +0.008 A 
ATOM     17  C   LIG    1       -0.043   3.844   0.024  0.00  0.00    +0.046 A 
BRANCH  12  19
ATOM     18  C   LIG    1       -3.611   3.009   0.052  0.00  0.00    +0.277 C 
ATOM     19  O   LIG    1       -2.422   3.802   0.045  0.00  0.00    -0.495 OA
ENDBRANCH  12  19
ENDBRANCH   1  15
BRANCH   7  20
ATOM     20  C   LIG    1        5.881   1.865   4.585  0.00  0.00    -0.043 A 
ATOM     21  C   LIG    1        5.424   2.906   5.371  0.00  0.00    +0.004 A 
ATOM     22  C   LIG    1        6.109   3.258   6.519  0.00  0.00    +0.000 A 
ATOM     23  C   LIG    1        7.257   2.574   6.876  0.00  0.00    +0.000 A 
ATOM     24  C   LIG    1        7.716   1.536   6.087  0.00  0.00    +0.000 A 
ATOM     25  C   LIG    1        7.029   1.182   4.942  0.00  0.00    +0.004 A 
ENDBRANCH   7  20
BRANCH   3  26
ATOM     26  N   LIG    1        4.966   2.635  -2.324  0.00  0.00    -0.328 N 
ATOM     27  H   LIG    1        5.698   3.271  -2.285  0.00  0.00    +0.145 HD
ATOM     28  H   LIG    1        4.722   2.228  -3.170  0.00  0.00    +0.145 HD
ENDBRANCH   3  26
BRANCH   2  29
ATOM     29  C   LIG    1        2.909   0.837  -2.512  0.00  0.00    +0.101 C 
ATOM     30  N   LIG    1        2.633   0.373  -3.512  0.00  0.00    -0.191 NA
ENDBRANCH   2  29
TORSDOF 5
