REMARK  Name = ZINC01007417
REMARK                            x       y       z     vdW  Elec       q    Type
REMARK                         _______ _______ _______ _____ _____    ______ ____
ROOT
ATOM      1  C   LIG    1        3.557  -1.572  -0.032  0.00  0.00    +0.001 A 
ATOM      2  C   LIG    1        3.167  -2.851   0.329  0.00  0.00    +0.002 A 
ATOM      3  C   LIG    1        1.851  -3.121   0.646  0.00  0.00    +0.024 A 
ATOM      4  C   LIG    1        0.901  -2.106   0.605  0.00  0.00    +0.042 A 
ATOM      5  C   LIG    1        1.299  -0.816   0.233  0.00  0.00    +0.008 A 
ATOM      6  C   LIG    1        0.083   0.028   0.288  0.00  0.00    +0.046 C 
ATOM      7  C   LIG    1       -0.996  -0.884   0.702  0.00  0.00    +0.249 C 
ATOM      8  O   LIG    1       -2.165  -0.584   0.863  0.00  0.00    -0.270 OA
ATOM      9  C   LIG    1       -0.016   1.361   0.009  0.00  0.00    +0.021 C 
ATOM     10  N   LIG    1       -0.464  -2.106   0.871  0.00  0.00    -0.281 N 
ATOM     11  H   LIG    1       -0.967  -2.889   1.144  0.00  0.00    +0.155 HD
ATOM     12  C   LIG    1        2.628  -0.552  -0.078  0.00  0.00    +0.010 A 
ENDROOT
BRANCH   9  13
ATOM     13  C   LIG    1       -1.335   1.995  -0.077  0.00  0.00    -0.022 A 
ATOM     14  C   LIG    1       -2.408   1.309  -0.663  0.00  0.00    +0.027 A 
ATOM     15  C   LIG    1       -3.646   1.907  -0.736  0.00  0.00    +0.061 A 
ATOM     16 BR   LIG    1       -5.098   0.980  -1.517  0.00  0.00    -0.046 Br
ATOM     17  C   LIG    1       -3.830   3.194  -0.241  0.00  0.00    +0.145 A 
ATOM     18  C   LIG    1       -2.767   3.882   0.336  0.00  0.00    +0.061 A 
ATOM     19 BR   LIG    1       -3.027   5.631   1.006  0.00  0.00    -0.046 Br
ATOM     20  C   LIG    1       -1.526   3.291   0.420  0.00  0.00    +0.027 A 
BRANCH  17  21
ATOM     21  O   LIG    1       -5.052   3.781  -0.321  0.00  0.00    -0.505 OA
ATOM     22  H   LIG    1       -5.193   4.285  -1.133  0.00  0.00    +0.292 HD
ENDBRANCH  17  21
ENDBRANCH   9  13
TORSDOF 2
