REMARK  Name = ZINC00706103
REMARK                            x       y       z     vdW  Elec       q    Type
REMARK                         _______ _______ _______ _____ _____    ______ ____
ROOT
ATOM      1  C   LIG    1       -2.368  -0.012   0.752  0.00  0.00    +0.034 C 
ATOM      2  C   LIG    1       -1.287  -0.792   0.001  0.00  0.00    +0.083 C 
ATOM      3  C   LIG    1        0.002  -0.004   0.002  0.00  0.00    +0.115 C 
ATOM      4  C   LIG    1       -0.016   1.341   0.009  0.00  0.00    +0.046 C 
ATOM      5  C   LIG    1       -1.229   2.057   0.031  0.00  0.00    +0.164 C 
ATOM      6  O   LIG    1       -1.205   3.272   0.018  0.00  0.00    -0.292 OA
ATOM      7  C   LIG    1        1.273   2.127   0.001  0.00  0.00    +0.104 C 
ATOM      8  C   LIG    1        2.414   1.251   0.436  0.00  0.00    +0.098 C 
ATOM      9  C   LIG    1        2.291  -0.099   0.408  0.00  0.00    +0.198 C 
ATOM     10  O   LIG    1        1.161  -0.689  -0.009  0.00  0.00    -0.445 OA
ATOM     11  C   LIG    1       -2.554   1.345   0.065  0.00  0.00    +0.088 C 
ENDROOT
BRANCH   7  12
ATOM     12  C   LIG    1        1.538   2.639  -1.391  0.00  0.00    +0.001 A 
ATOM     13  C   LIG    1        1.687   1.749  -2.438  0.00  0.00    +0.007 A 
ATOM     14  C   LIG    1        1.924   2.218  -3.716  0.00  0.00    +0.000 A 
ATOM     15  C   LIG    1        2.023   3.578  -3.948  0.00  0.00    +0.003 A 
ATOM     16  C   LIG    1        1.881   4.469  -2.902  0.00  0.00    +0.038 A 
ATOM     17  C   LIG    1        1.637   4.000  -1.621  0.00  0.00    +0.127 A 
ATOM     18  F   LIG    1        1.497   4.871  -0.598  0.00  0.00    -0.205 F 
ENDBRANCH   7  12
BRANCH   1  22
ATOM     19  C   LIG    1       -6.043  -2.188   0.649  0.00  0.00    +0.000 A 
ATOM     20  C   LIG    1       -5.451  -1.887   1.862  0.00  0.00    +0.000 A 
ATOM     21  C   LIG    1       -4.262  -1.183   1.895  0.00  0.00    +0.004 A 
ATOM     22  C   LIG    1       -3.664  -0.780   0.716  0.00  0.00    -0.043 A 
ATOM     23  C   LIG    1       -4.258  -1.076  -0.497  0.00  0.00    +0.004 A 
ATOM     24  C   LIG    1       -5.445  -1.783  -0.530  0.00  0.00    +0.000 A 
ENDBRANCH   1  22
BRANCH   9  25
ATOM     25  N   LIG    1        3.345  -0.878   0.815  0.00  0.00    -0.328 N 
ATOM     26  H   LIG    1        4.167  -0.461   1.119  0.00  0.00    +0.145 HD
ATOM     27  H   LIG    1        3.268  -1.845   0.800  0.00  0.00    +0.145 HD
ENDBRANCH   9  25
BRANCH   8  28
ATOM     28  C   LIG    1        3.638   1.845   0.881  0.00  0.00    +0.101 C 
ATOM     29  N   LIG    1        4.610   2.316   1.235  0.00  0.00    -0.191 NA
ENDBRANCH   8  28
TORSDOF 4
