REMARK  Name = ZINC01025512
REMARK                            x       y       z     vdW  Elec       q    Type
REMARK                         _______ _______ _______ _____ _____    ______ ____
ROOT
ATOM      1  S   LIG    1       -3.674  -0.616  -1.484  0.00  0.00    +0.058 S 
ATOM      2  O   LIG    1       -3.515  -2.028  -1.483  0.00  0.00    -0.153 OA
ATOM      3  O   LIG    1       -4.137   0.098  -2.622  0.00  0.00    -0.153 OA
ENDROOT
BRANCH   1   4
ATOM      4  C   LIG    1       -4.779  -0.233  -0.166  0.00  0.00    +0.106 A 
ATOM      5  C   LIG    1       -4.909  -1.105   0.903  0.00  0.00    +0.032 A 
ATOM      6  C   LIG    1       -5.769  -0.819   1.942  0.00  0.00    +0.049 A 
ATOM      7  C   LIG    1       -6.517   0.352   1.925  0.00  0.00    +0.136 A 
ATOM      8  C   LIG    1       -6.384   1.232   0.842  0.00  0.00    +0.030 A 
ATOM      9  C   LIG    1       -7.298   2.355   1.126  0.00  0.00    +0.028 A 
ATOM     10  C   LIG    1       -7.624   3.529   0.455  0.00  0.00    +0.012 A 
ATOM     11  C   LIG    1       -8.545   4.397   1.004  0.00  0.00    +0.001 A 
ATOM     12  C   LIG    1       -9.143   4.100   2.218  0.00  0.00    +0.004 A 
ATOM     13  C   LIG    1       -8.827   2.939   2.891  0.00  0.00    +0.047 A 
ATOM     14  C   LIG    1       -7.901   2.052   2.354  0.00  0.00    +0.136 A 
ATOM     15  O   LIG    1       -7.417   0.869   2.790  0.00  0.00    -0.455 OA
ATOM     16  C   LIG    1       -5.509   0.936  -0.198  0.00  0.00    +0.040 A 
ENDBRANCH   1   4
BRANCH   1  17
ATOM     17  N   LIG    1       -2.200   0.027  -1.090  0.00  0.00    -0.189 NA
ATOM     18  H   LIG    1       -1.823   0.742  -1.626  0.00  0.00    +0.148 HD
BRANCH  17  19
ATOM     19  C   LIG    1       -1.465  -0.484   0.070  0.00  0.00    +0.112 C 
BRANCH  19  21
ATOM     20  C   LIG    1       -0.019   1.527   0.010  0.00  0.00    +0.012 C 
ATOM     21  C   LIG    1        0.002  -0.004   0.002  0.00  0.00    -0.015 C 
ATOM     22  C   LIG    1        0.593  -0.510  -1.309  0.00  0.00    +0.039 C 
ATOM     23  C   LIG    1        2.100  -0.271  -1.353  0.00  0.00    +0.116 C 
ATOM     24  C   LIG    1        2.756  -1.047  -0.213  0.00  0.00    +0.037 C 
ATOM     25  C   LIG    1        2.244  -0.560   1.138  0.00  0.00    -0.032 C 
ATOM     26  C   LIG    1        2.770  -1.534   2.216  0.00  0.00    +0.011 C 
ATOM     27  C   LIG    1        2.824   0.822   1.451  0.00  0.00    +0.011 C 
ATOM     28  C   LIG    1        0.729  -0.548   1.218  0.00  0.00    +0.014 C 
BRANCH  23  29
ATOM     29  O   LIG    1        2.614  -0.750  -2.602  0.00  0.00    -0.392 OA
ATOM     30  H   LIG    1        3.569  -0.633  -2.705  0.00  0.00    +0.210 HD
ENDBRANCH  23  29
ENDBRANCH  19  21
ENDBRANCH  17  19
ENDBRANCH   1  17
TORSDOF 5
