REMARK  Name = ZINC00968327
REMARK                            x       y       z     vdW  Elec       q    Type
REMARK                         _______ _______ _______ _____ _____    ______ ____
ROOT
ATOM      1  C   LIG    1        5.733  -0.590  -6.499  0.00  0.00    +0.121 A 
ATOM      2  C   LIG    1        6.070   0.565  -5.808  0.00  0.00    +0.046 A 
ATOM      3  C   LIG    1        7.144   1.329  -6.225  0.00  0.00    +0.007 A 
ATOM      4  C   LIG    1        7.881   0.943  -7.329  0.00  0.00    -0.046 A 
ATOM      5  C   LIG    1        7.546  -0.208  -8.019  0.00  0.00    +0.007 A 
ATOM      6  C   LIG    1        6.478  -0.978  -7.603  0.00  0.00    +0.046 A 
ENDROOT
BRANCH   1   7
ATOM      7  O   LIG    1        4.677  -1.343  -6.091  0.00  0.00    -0.492 OA
BRANCH   7   8
ATOM      8  C   LIG    1        3.956  -0.882  -4.947  0.00  0.00    +0.235 C 
BRANCH   8   9
ATOM      9  C   LIG    1        2.812  -1.852  -4.641  0.00  0.00    +0.096 C 
BRANCH   9  13
ATOM     10  C   LIG    1        0.707  -0.490  -1.238  0.00  0.00    -0.030 A 
ATOM     11  C   LIG    1       -0.004  -0.722  -2.405  0.00  0.00    +0.007 A 
ATOM     12  C   LIG    1        0.686  -1.169  -3.521  0.00  0.00    +0.024 A 
ATOM     13  C   LIG    1        2.051  -1.367  -3.434  0.00  0.00    +0.045 A 
ATOM     14  N   LIG    1        2.696  -1.136  -2.307  0.00  0.00    -0.260 NA
ATOM     15  C   LIG    1        2.072  -0.705  -1.228  0.00  0.00    +0.114 A 
BRANCH  10  17
ATOM     16  C   LIG    1       -0.019   1.526   0.010  0.00  0.00    +0.009 C 
ATOM     17  C   LIG    1        0.002  -0.004   0.002  0.00  0.00    +0.033 C 
ENDBRANCH  10  17
ENDBRANCH   9  13
ENDBRANCH   8   9
ENDBRANCH   7   8
ENDBRANCH   1   7
BRANCH   4  18
ATOM     18  C   LIG    1        9.051   1.778  -7.781  0.00  0.00    +0.059 C 
BRANCH  18  19
ATOM     19  C   LIG    1       10.323   1.294  -7.082  0.00  0.00    +0.146 C 
ATOM     20  C   LIG    1       11.531   2.126  -7.492  0.00  0.00    +0.234 C 
ATOM     21  N   LIG    1       12.491   1.462  -8.114  0.00  0.00    -0.246 N 
ATOM     22  H   LIG    1       13.280   1.952  -8.395  0.00  0.00    +0.158 HD
ATOM     23  C   LIG    1       12.430   0.144  -8.380  0.00  0.00    +0.279 C 
ATOM     24  O   LIG    1       13.257  -0.546  -8.943  0.00  0.00    -0.263 OA
ATOM     25  O   LIG    1       11.608   3.314  -7.262  0.00  0.00    -0.274 OA
ATOM     26  S   LIG    1       10.848  -0.355  -7.710  0.00  0.00    -0.054 S 
ENDBRANCH  18  19
ENDBRANCH   4  18
TORSDOF 7
