REMARK  Name = ZINC00714413
REMARK                            x       y       z     vdW  Elec       q    Type
REMARK                         _______ _______ _______ _____ _____    ______ ____
ROOT
ATOM      1  C   LIG    1        2.567   4.531  -0.201  0.00  0.00    +0.136 A 
ATOM      2  N   LIG    1        3.700   3.884  -0.050  0.00  0.00    -0.233 NA
ATOM      3  C   LIG    1        4.897   4.511  -0.034  0.00  0.00    +0.080 A 
ATOM      4  C   LIG    1        6.180   3.936   0.120  0.00  0.00    +0.031 A 
ATOM      5  C   LIG    1        7.298   4.710   0.114  0.00  0.00    +0.025 A 
ATOM      6  C   LIG    1        7.228   6.092  -0.043  0.00  0.00    +0.035 A 
ATOM      7  C   LIG    1        5.985   6.693  -0.197  0.00  0.00    +0.040 A 
ATOM      8  C   LIG    1        4.855   5.915  -0.191  0.00  0.00    +0.042 A 
ATOM      9  S   LIG    1        3.113   6.226  -0.356  0.00  0.00    -0.061 S 
ENDROOT
BRANCH   6  10
ATOM     10  N   LIG    1        8.395   6.866  -0.045  0.00  0.00    -0.281 N 
ATOM     11  H   LIG    1        9.218   6.502  -0.407  0.00  0.00    +0.155 HD
ATOM     12  C   LIG    1        8.374   8.117   0.456  0.00  0.00    +0.249 C 
ATOM     13  O   LIG    1        7.370   8.540   0.995  0.00  0.00    -0.270 OA
BRANCH  12  14
ATOM     14  C   LIG    1        9.572   8.976   0.348  0.00  0.00    +0.051 A 
ATOM     15  C   LIG    1       10.729   8.492  -0.266  0.00  0.00    +0.014 A 
ATOM     16  C   LIG    1       11.842   9.300  -0.368  0.00  0.00    +0.001 A 
ATOM     17  C   LIG    1       11.818  10.584   0.146  0.00  0.00    +0.001 A 
ATOM     18  C   LIG    1       10.678  11.069   0.761  0.00  0.00    +0.016 A 
ATOM     19  C   LIG    1        9.555  10.273   0.866  0.00  0.00    +0.030 A 
ATOM     20 BR   LIG    1        7.997  10.937   1.707  0.00  0.00    -0.050 Br
ENDBRANCH  12  14
ENDBRANCH   6  10
BRANCH   1  21
ATOM     21  S   LIG    1        0.925   3.891  -0.248  0.00  0.00    -0.089 S 
BRANCH  21  22
ATOM     22  C   LIG    1        1.270   2.128  -0.030  0.00  0.00    +0.172 C 
BRANCH  22  25
ATOM     23  N   LIG    1       -0.015   0.019   0.110  0.00  0.00    -0.314 N 
ATOM     24  H   LIG    1        0.827  -0.450   0.222  0.00  0.00    +0.149 HD
ATOM     25  C   LIG    1       -0.026   1.358  -0.038  0.00  0.00    +0.223 C 
ATOM     26  O   LIG    1       -1.078   1.944  -0.183  0.00  0.00    -0.275 OA
BRANCH  23  27
ATOM     27  C   LIG    1       -1.275  -0.729   0.102  0.00  0.00    +0.109 C 
BRANCH  27  28
ATOM     28  C   LIG    1       -0.984  -2.220   0.287  0.00  0.00    +0.054 C 
BRANCH  28  32
ATOM     29  C   LIG    1       -4.657  -4.401   0.264  0.00  0.00    +0.000 A 
ATOM     30  C   LIG    1       -3.977  -4.179  -0.919  0.00  0.00    +0.000 A 
ATOM     31  C   LIG    1       -2.789  -3.473  -0.912  0.00  0.00    +0.004 A 
ATOM     32  C   LIG    1       -2.280  -2.990   0.279  0.00  0.00    -0.046 A 
ATOM     33  C   LIG    1       -2.956  -3.217   1.463  0.00  0.00    +0.004 A 
ATOM     34  C   LIG    1       -4.147  -3.918   1.455  0.00  0.00    +0.000 A 
ENDBRANCH  28  32
ENDBRANCH  27  28
ENDBRANCH  23  27
ENDBRANCH  22  25
ENDBRANCH  21  22
ENDBRANCH   1  21
TORSDOF 8
