REMARK  Name = ZINC00896218
REMARK                            x       y       z     vdW  Elec       q    Type
REMARK                         _______ _______ _______ _____ _____    ______ ____
ROOT
ATOM      1  C   LIG    1       -2.943   0.709   1.463  0.00  0.00    -0.036 C 
ATOM      2  N   LIG    1       -1.951  -0.163   2.107  0.00  0.00    +0.384 N 
ATOM      3  H   LIG    1       -1.804  -0.997   1.526  0.00  0.00    -0.085 HD
ATOM      4  H   LIG    1       -1.065   0.345   2.206  0.00  0.00    -0.085 HD
ATOM      5  C   LIG    1       -2.433  -0.573   3.439  0.00  0.00    -0.077 C 
ATOM      6  C   LIG    1       -3.584  -1.562   3.257  0.00  0.00    +0.016 C 
ATOM      7  C   LIG    1       -4.602  -0.997   2.299  0.00  0.00    -0.044 A 
ATOM      8  C   LIG    1       -5.867  -1.565   2.271  0.00  0.00    +0.053 A 
ATOM      9  C   LIG    1       -6.831  -1.084   1.405  0.00  0.00    +0.162 A 
ATOM     10  C   LIG    1       -6.528  -0.022   0.558  0.00  0.00    +0.159 A 
ATOM     11  C   LIG    1       -5.266   0.543   0.592  0.00  0.00    +0.051 A 
ATOM     12  C   LIG    1       -4.301   0.056   1.463  0.00  0.00    -0.054 A 
ENDROOT
BRANCH   9  13
ATOM     13  O   LIG    1       -8.070  -1.645   1.381  0.00  0.00    -0.491 OA
ATOM     14  C   LIG    1       -8.307  -2.732   2.279  0.00  0.00    +0.277 C 
ENDBRANCH   9  13
BRANCH  10  15
ATOM     15  O   LIG    1       -7.468   0.459  -0.298  0.00  0.00    -0.503 OA
ATOM     16  H   LIG    1       -7.469   0.028  -1.164  0.00  0.00    +0.292 HD
ENDBRANCH  10  15
BRANCH   1  17
ATOM     17  C   LIG    1       -2.513   0.978   0.020  0.00  0.00    +0.024 C 
BRANCH  17  21
ATOM     18  C   LIG    1        1.155   3.176   0.008  0.00  0.00    +0.161 A 
ATOM     19  C   LIG    1       -0.057   3.846   0.022  0.00  0.00    +0.049 A 
ATOM     20  C   LIG    1       -1.241   3.133   0.030  0.00  0.00    +0.007 A 
ATOM     21  C   LIG    1       -1.219   1.751   0.017  0.00  0.00    -0.045 A 
ATOM     22  C   LIG    1       -0.013   1.076   0.008  0.00  0.00    +0.052 A 
ATOM     23  C   LIG    1        1.178   1.785   0.000  0.00  0.00    +0.159 A 
BRANCH  18  25
ATOM     24  C   LIG    1        2.221   5.302   0.008  0.00  0.00    +0.277 C 
ATOM     25  O   LIG    1        2.321   3.877  -0.000  0.00  0.00    -0.491 OA
ENDBRANCH  18  25
BRANCH  23  26
ATOM     26  O   LIG    1        2.365   1.123  -0.014  0.00  0.00    -0.503 OA
ATOM     27  H   LIG    1        2.701   0.935  -0.901  0.00  0.00    +0.292 HD
ENDBRANCH  23  26
ENDBRANCH  17  21
ENDBRANCH   1  17
TORSDOF 6
