REMARK  Name = ZINC00813578
REMARK                            x       y       z     vdW  Elec       q    Type
REMARK                         _______ _______ _______ _____ _____    ______ ____
ROOT
ATOM      1  C   LIG    1        1.144  -6.059   1.764  0.00  0.00    +0.144 C 
ATOM      2  C   LIG    1        2.533  -6.513   1.380  0.00  0.00    +0.066 C 
ATOM      3  C   LIG    1        3.077  -7.085   2.482  0.00  0.00    +0.188 C 
ATOM      4  C   LIG    1        2.098  -7.029   3.590  0.00  0.00    +0.282 C 
ATOM      5  O   LIG    1        2.287  -7.459   4.710  0.00  0.00    -0.267 OA
ATOM      6  N   LIG    1        0.966  -6.430   3.173  0.00  0.00    -0.283 N 
ENDROOT
BRANCH   1  10
ATOM      7  C   LIG    1        0.802  -1.824   1.306  0.00  0.00    +0.121 A 
ATOM      8  C   LIG    1        0.260  -2.673   0.351  0.00  0.00    +0.046 A 
ATOM      9  C   LIG    1        0.372  -4.041   0.502  0.00  0.00    +0.009 A 
ATOM     10  C   LIG    1        1.024  -4.566   1.603  0.00  0.00    -0.022 A 
ATOM     11  C   LIG    1        1.565  -3.722   2.555  0.00  0.00    +0.009 A 
ATOM     12  C   LIG    1        1.460  -2.353   2.406  0.00  0.00    +0.046 A 
BRANCH   7  13
ATOM     13  O   LIG    1        0.693  -0.477   1.160  0.00  0.00    -0.492 OA
BRANCH  13  15
ATOM     14  C   LIG    1       -0.019   1.526   0.010  0.00  0.00    +0.048 C 
ATOM     15  C   LIG    1        0.002  -0.004   0.002  0.00  0.00    +0.225 C 
ENDBRANCH  13  15
ENDBRANCH   7  13
ENDBRANCH   1  10
BRANCH   2  16
ATOM     16  C   LIG    1        3.148  -6.368   0.113  0.00  0.00    +0.162 C 
ATOM     17  C   LIG    1        2.402  -5.704  -1.015  0.00  0.00    +0.091 C 
ATOM     18  O   LIG    1        4.276  -6.779  -0.064  0.00  0.00    -0.292 OA
ENDBRANCH   2  16
BRANCH   3  19
ATOM     19  O   LIG    1        4.315  -7.622   2.557  0.00  0.00    -0.502 OA
ATOM     20  H   LIG    1        4.534  -7.986   3.426  0.00  0.00    +0.292 HD
ENDBRANCH   3  19
BRANCH   6  21
ATOM     21  C   LIG    1       -0.232  -6.190   3.982  0.00  0.00    +0.114 C 
BRANCH  21  22
ATOM     22  C   LIG    1       -1.178  -7.386   3.860  0.00  0.00    +0.056 C 
BRANCH  22  23
ATOM     23  C   LIG    1       -2.410  -7.139   4.691  0.00  0.00    -0.021 A 
ATOM     24  C   LIG    1       -2.618  -7.550   5.952  0.00  0.00    +0.087 A 
ATOM     25  N   LIG    1       -3.851  -7.139   6.380  0.00  0.00    -0.360 N 
ATOM     26  C   LIG    1       -4.483  -6.436   5.380  0.00  0.00    +0.047 A 
ATOM     27  C   LIG    1       -5.722  -5.811   5.284  0.00  0.00    +0.026 A 
ATOM     28  C   LIG    1       -6.070  -5.157   4.122  0.00  0.00    +0.002 A 
ATOM     29  C   LIG    1       -5.203  -5.127   3.039  0.00  0.00    +0.001 A 
ATOM     30  C   LIG    1       -3.983  -5.739   3.110  0.00  0.00    +0.010 A 
ATOM     31  H   LIG    1       -4.224  -7.317   7.258  0.00  0.00    +0.165 HD
ATOM     32  C   LIG    1       -3.605  -6.399   4.280  0.00  0.00    +0.003 A 
ENDBRANCH  22  23
ENDBRANCH  21  22
ENDBRANCH   6  21
TORSDOF 8
