REMARK  Name = ZINC00823152
REMARK                            x       y       z     vdW  Elec       q    Type
REMARK                         _______ _______ _______ _____ _____    ______ ____
ROOT
ATOM      1  C   LIG    1        4.893  -2.793  -0.057  0.00  0.00    +0.042 A 
ATOM      2  C   LIG    1        6.105  -2.146   0.056  0.00  0.00    +0.026 A 
ATOM      3  C   LIG    1        7.300  -2.846  -0.080  0.00  0.00    +0.031 A 
ATOM      4  C   LIG    1        7.307  -4.185  -0.328  0.00  0.00    +0.113 A 
ATOM      5  C   LIG    1        6.092  -4.882  -0.451  0.00  0.00    +0.010 A 
ATOM      6  C   LIG    1        6.068  -6.264  -0.707  0.00  0.00    +0.010 A 
ATOM      7  C   LIG    1        4.874  -6.910  -0.802  0.00  0.00    +0.001 A 
ATOM      8  C   LIG    1        3.672  -6.219  -0.667  0.00  0.00    +0.001 A 
ATOM      9  C   LIG    1        3.657  -4.880  -0.425  0.00  0.00    +0.010 A 
ATOM     10  C   LIG    1        4.869  -4.181  -0.308  0.00  0.00    +0.005 A 
ENDROOT
BRANCH   1  12
ATOM     11  C   LIG    1        3.625  -0.805  -0.343  0.00  0.00    +0.248 C 
ATOM     12  N   LIG    1        3.701  -2.082   0.081  0.00  0.00    -0.281 N 
ATOM     13  H   LIG    1        2.926  -2.507   0.482  0.00  0.00    +0.155 HD
ATOM     14  O   LIG    1        4.615  -0.247  -0.772  0.00  0.00    -0.270 OA
BRANCH  11  18
ATOM     15  C   LIG    1       -0.078   1.270  -0.178  0.00  0.00    +0.000 A 
ATOM     16  C   LIG    1        1.048   1.909  -0.667  0.00  0.00    +0.001 A 
ATOM     17  C   LIG    1        2.254   1.240  -0.723  0.00  0.00    +0.013 A 
ATOM     18  C   LIG    1        2.336  -0.082  -0.285  0.00  0.00    +0.037 A 
ATOM     19  C   LIG    1        1.196  -0.720   0.207  0.00  0.00    +0.013 A 
ATOM     20  C   LIG    1       -0.003  -0.041   0.258  0.00  0.00    +0.001 A 
ENDBRANCH  11  18
ENDBRANCH   1  12
BRANCH   4  21
ATOM     21  S   LIG    1        8.836  -5.043  -0.496  0.00  0.00    +0.062 S 
ATOM     22  O   LIG    1        9.068  -5.192  -1.891  0.00  0.00    -0.153 OA
ATOM     23  O   LIG    1        8.778  -6.154   0.389  0.00  0.00    -0.153 OA
BRANCH  21  24
ATOM     24  N   LIG    1       10.025  -4.043   0.077  0.00  0.00    -0.172 NA
ATOM     25  C   LIG    1       10.805  -3.193  -0.836  0.00  0.00    +0.137 C 
ATOM     26  C   LIG    1       10.787  -1.759  -0.295  0.00  0.00    +0.177 C 
ATOM     27  O   LIG    1       11.200  -1.767   1.073  0.00  0.00    -0.377 OA
ATOM     28  C   LIG    1       10.337  -2.505   1.941  0.00  0.00    +0.177 C 
ATOM     29  C   LIG    1       10.327  -3.973   1.515  0.00  0.00    +0.137 C 
ENDBRANCH  21  24
ENDBRANCH   4  21
TORSDOF 4
