REMARK  Name = ZINC01383151
REMARK                            x       y       z     vdW  Elec       q    Type
REMARK                         _______ _______ _______ _____ _____    ______ ____
ROOT
ATOM      1  N   LIG    1        0.208  -0.573  -1.488  0.00  0.00    -0.240 N 
ATOM      2  C   LIG    1        0.804  -1.795  -1.583  0.00  0.00    +0.164 A 
ATOM      3  C   LIG    1        1.559  -1.791  -2.771  0.00  0.00    +0.086 A 
ATOM      4  C   LIG    1        2.282  -2.946  -3.111  0.00  0.00    +0.131 A 
ATOM      5  N   LIG    1        2.220  -3.993  -2.293  0.00  0.00    -0.220 NA
ATOM      6  C   LIG    1        1.498  -3.953  -1.188  0.00  0.00    +0.225 A 
ATOM      7  C   LIG    1        1.368  -0.474  -3.378  0.00  0.00    +0.105 A 
ATOM      8  N   LIG    1        0.806  -2.894  -0.829  0.00  0.00    -0.216 NA
ATOM      9  N   LIG    1        0.564   0.205  -2.595  0.00  0.00    -0.168 NA
ENDROOT
BRANCH   7  10
ATOM     10  C   LIG    1        1.968   0.003  -4.647  0.00  0.00    +0.003 A 
ATOM     11  C   LIG    1        1.968  -0.819  -5.773  0.00  0.00    +0.011 A 
ATOM     12  C   LIG    1        2.528  -0.370  -6.952  0.00  0.00    +0.020 A 
ATOM     13  C   LIG    1        3.088   0.894  -7.017  0.00  0.00    +0.041 A 
ATOM     14 CL   LIG    1        3.791   1.453  -8.503  0.00  0.00    -0.084 Cl
ATOM     15  C   LIG    1        3.091   1.714  -5.902  0.00  0.00    +0.020 A 
ATOM     16  C   LIG    1        2.528   1.278  -4.720  0.00  0.00    +0.011 A 
ENDBRANCH   7  10
BRANCH   1  18
ATOM     17  C   LIG    1       -1.145   1.288  -0.661  0.00  0.00    +0.036 C 
ATOM     18  C   LIG    1       -0.674  -0.144  -0.400  0.00  0.00    +0.058 C 
ATOM     19  C   LIG    1       -1.886  -1.074  -0.329  0.00  0.00    +0.036 C 
ATOM     20  C   LIG    1        0.088  -0.196   0.925  0.00  0.00    +0.036 C 
ENDBRANCH   1  18
BRANCH   4  21
ATOM     21  N   LIG    1        3.038  -2.993  -4.266  0.00  0.00    -0.342 N 
ATOM     22  H   LIG    1        3.342  -3.847  -4.612  0.00  0.00    +0.144 HD
ATOM     23  H   LIG    1        3.265  -2.173  -4.731  0.00  0.00    +0.144 HD
ENDBRANCH   4  21
TORSDOF 3
