REMARK  Name = ZINC01270317
REMARK                            x       y       z     vdW  Elec       q    Type
REMARK                         _______ _______ _______ _____ _____    ______ ____
ROOT
ATOM      1  N   LIG    1       -1.782  -1.934  -0.891  0.00  0.00    -0.298 N 
ATOM      2  C   LIG    1       -1.796  -1.605  -2.227  0.00  0.00    +0.165 A 
ATOM      3  N   LIG    1       -1.279  -2.619  -2.880  0.00  0.00    -0.128 NA
ATOM      4  N   LIG    1       -0.946  -3.547  -2.056  0.00  0.00    -0.122 NA
ATOM      5  C   LIG    1       -1.226  -3.180  -0.825  0.00  0.00    +0.193 A 
ENDROOT
BRANCH   2   6
ATOM      6  C   LIG    1       -2.300  -0.346  -2.816  0.00  0.00    +0.021 A 
ATOM      7  C   LIG    1       -2.914  -0.355  -4.070  0.00  0.00    +0.011 A 
ATOM      8  C   LIG    1       -3.383   0.822  -4.615  0.00  0.00    +0.002 A 
ATOM      9  C   LIG    1       -3.245   2.012  -3.922  0.00  0.00    +0.020 A 
ATOM     10  C   LIG    1       -2.636   2.029  -2.678  0.00  0.00    +0.042 A 
ATOM     11 CL   LIG    1       -2.467   3.527  -1.817  0.00  0.00    -0.084 Cl
ATOM     12  C   LIG    1       -2.169   0.856  -2.119  0.00  0.00    +0.031 A 
ENDBRANCH   2   6
BRANCH   1  13
ATOM     13  C   LIG    1       -2.257  -1.116   0.227  0.00  0.00    +0.152 C 
BRANCH  13  15
ATOM     14  C   LIG    1       -1.159   0.927   0.989  0.00  0.00    +0.005 C 
ATOM     15  C   LIG    1       -1.096  -0.372   0.835  0.00  0.00    -0.013 C 
ENDBRANCH  13  15
ENDBRANCH   1  13
BRANCH   5  16
ATOM     16  S   LIG    1       -0.942  -4.121   0.637  0.00  0.00    -0.078 S 
BRANCH  16  17
ATOM     17  C   LIG    1       -0.191  -5.657   0.031  0.00  0.00    +0.157 C 
BRANCH  17  18
ATOM     18  C   LIG    1        0.107  -6.564   1.197  0.00  0.00    +0.173 C 
ATOM     19  O   LIG    1       -0.161  -6.210   2.326  0.00  0.00    -0.291 OA
BRANCH  18  20
ATOM     20  C   LIG    1        0.722  -7.878   0.967  0.00  0.00    +0.022 A 
ATOM     21  C   LIG    1        1.037  -8.287  -0.335  0.00  0.00    +0.015 A 
ATOM     22  C   LIG    1        1.614  -9.519  -0.548  0.00  0.00    +0.050 A 
ATOM     23  C   LIG    1        1.883 -10.359   0.526  0.00  0.00    +0.158 A 
ATOM     24  C   LIG    1        1.572  -9.959   1.825  0.00  0.00    +0.159 A 
ATOM     25  C   LIG    1        0.999  -8.723   2.049  0.00  0.00    +0.060 A 
BRANCH  23  26
ATOM     26  O   LIG    1        2.451 -11.573   0.309  0.00  0.00    -0.503 OA
ATOM     27  H   LIG    1        3.418 -11.563   0.327  0.00  0.00    +0.292 HD
ENDBRANCH  23  26
BRANCH  24  28
ATOM     28  O   LIG    1        1.837 -10.784   2.873  0.00  0.00    -0.503 OA
ATOM     29  H   LIG    1        2.716 -10.662   3.257  0.00  0.00    +0.292 HD
ENDBRANCH  24  28
ENDBRANCH  18  20
ENDBRANCH  17  18
ENDBRANCH  16  17
ENDBRANCH   5  16
TORSDOF 9
