REMARK  Name = ZINC01415275
REMARK                            x       y       z     vdW  Elec       q    Type
REMARK                         _______ _______ _______ _____ _____    ______ ____
ROOT
ATOM      1  C   LIG    1        6.207  -5.790  -0.087  0.00  0.00    +0.102 C 
ATOM      2  N   LIG    1        5.226  -6.679  -0.082  0.00  0.00    -0.168 NA
ATOM      3  C   LIG    1        3.958  -6.329  -0.062  0.00  0.00    +0.275 C 
ATOM      4  C   LIG    1        3.677  -4.878  -0.058  0.00  0.00    +0.078 C 
ATOM      5  C   LIG    1        2.471  -4.213  -0.043  0.00  0.00    +0.020 C 
ATOM      6  O   LIG    1        3.062  -7.159  -0.051  0.00  0.00    -0.267 OA
ATOM      7  S   LIG    1        5.343  -4.228  -0.070  0.00  0.00    -0.066 S 
ENDROOT
BRANCH   1  12
ATOM      8  C   LIG    1       11.882  -6.734  -0.142  0.00  0.00    +0.044 C 
ATOM      9  C   LIG    1       10.395  -6.487  -0.128  0.00  0.00    -0.050 A 
ATOM     10  C   LIG    1        9.519  -7.558  -0.126  0.00  0.00    +0.004 A 
ATOM     11  C   LIG    1        8.157  -7.339  -0.112  0.00  0.00    +0.010 A 
ATOM     12  C   LIG    1        7.663  -6.033  -0.101  0.00  0.00    +0.005 A 
ATOM     13  C   LIG    1        8.553  -4.956  -0.109  0.00  0.00    +0.010 A 
ATOM     14  C   LIG    1        9.913  -5.190  -0.117  0.00  0.00    +0.004 A 
ENDBRANCH   1  12
BRANCH   5  15
ATOM     15  C   LIG    1        2.443  -2.807  -0.036  0.00  0.00    +0.002 C 
ATOM     16  C   LIG    1        1.255  -2.153  -0.021  0.00  0.00    +0.008 C 
BRANCH  16  17
ATOM     17  C   LIG    1        1.226  -0.683  -0.013  0.00  0.00    -0.025 A 
ATOM     18  C   LIG    1        0.002  -0.004   0.002  0.00  0.00    +0.008 A 
ATOM     19  C   LIG    1       -0.017   1.374   0.010  0.00  0.00    +0.001 A 
ATOM     20  C   LIG    1        1.170   2.087   0.002  0.00  0.00    +0.000 A 
ATOM     21  C   LIG    1        2.385   1.423  -0.013  0.00  0.00    +0.001 A 
ATOM     22  C   LIG    1        2.421   0.044  -0.021  0.00  0.00    +0.008 A 
ENDBRANCH  16  17
ENDBRANCH   5  15
TORSDOF 3
