REMARK  Name = ZINC01048809
REMARK                            x       y       z     vdW  Elec       q    Type
REMARK                         _______ _______ _______ _____ _____    ______ ____
ROOT
ATOM      1  C   LIG    1        1.672  -1.014  -1.967  0.00  0.00    +0.106 A 
ATOM      2  C   LIG    1        2.314  -0.107  -2.789  0.00  0.00    +0.032 A 
ATOM      3  C   LIG    1        3.636  -0.304  -3.138  0.00  0.00    +0.048 A 
ATOM      4  C   LIG    1        4.320  -1.414  -2.662  0.00  0.00    +0.129 A 
ATOM      5  C   LIG    1        3.673  -2.323  -1.837  0.00  0.00    +0.048 A 
ATOM      6  C   LIG    1        2.352  -2.118  -1.487  0.00  0.00    +0.032 A 
ENDROOT
BRANCH   1   7
ATOM      7  S   LIG    1       -0.015  -0.760  -1.525  0.00  0.00    +0.061 S 
ATOM      8  O   LIG    1       -0.584   0.053  -2.543  0.00  0.00    -0.153 OA
ATOM      9  O   LIG    1       -0.542  -2.035  -1.185  0.00  0.00    -0.153 OA
BRANCH   7  11
ATOM     10  C   LIG    1       -0.052   1.606  -0.215  0.00  0.00    +0.132 C 
ATOM     11  N   LIG    1       -0.026   0.143  -0.137  0.00  0.00    -0.175 NA
BRANCH  11  12
ATOM     12  C   LIG    1       -0.011  -0.521   1.169  0.00  0.00    +0.144 C 
BRANCH  12  13
ATOM     13  C   LIG    1       -1.422  -0.663   1.677  0.00  0.00    -0.032 A 
ATOM     14  C   LIG    1       -1.984   0.339   2.446  0.00  0.00    +0.005 A 
ATOM     15  C   LIG    1       -3.279   0.208   2.912  0.00  0.00    +0.000 A 
ATOM     16  C   LIG    1       -4.012  -0.924   2.610  0.00  0.00    +0.000 A 
ATOM     17  C   LIG    1       -3.450  -1.925   1.840  0.00  0.00    +0.000 A 
ATOM     18  C   LIG    1       -2.157  -1.793   1.370  0.00  0.00    +0.005 A 
ENDBRANCH  12  13
ENDBRANCH  11  12
ENDBRANCH   7  11
ENDBRANCH   1   7
BRANCH   4  19
ATOM     19  O   LIG    1        5.620  -1.611  -3.003  0.00  0.00    -0.455 OA
BRANCH  19  20
ATOM     20  C   LIG    1        6.544  -0.741  -2.522  0.00  0.00    +0.147 A 
ATOM     21  C   LIG    1        6.173   0.232  -1.605  0.00  0.00    +0.048 A 
ATOM     22  C   LIG    1        7.114   1.116  -1.115  0.00  0.00    +0.005 A 
ATOM     23  C   LIG    1        8.432   1.041  -1.533  0.00  0.00    +0.021 A 
ATOM     24  C   LIG    1        8.819   0.080  -2.444  0.00  0.00    +0.062 A 
ATOM     25 CL   LIG    1       10.473  -0.009  -2.964  0.00  0.00    -0.082 Cl
ATOM     26  C   LIG    1        7.878  -0.826  -2.944  0.00  0.00    +0.112 A 
BRANCH  26  27
ATOM     27  C   LIG    1        8.273  -1.829  -3.886  0.00  0.00    +0.104 C 
ATOM     28  N   LIG    1        8.587  -2.626  -4.633  0.00  0.00    -0.191 NA
ENDBRANCH  26  27
ENDBRANCH  19  20
ENDBRANCH   4  19
TORSDOF 7
