REMARK  Name = ZINC01211337
REMARK                            x       y       z     vdW  Elec       q    Type
REMARK                         _______ _______ _______ _____ _____    ______ ____
ROOT
ATOM      1  N   LIG    1       -4.918   1.195   0.032  0.00  0.00    -0.202 N 
ATOM      2  C   LIG    1       -5.012  -0.147   0.019  0.00  0.00    +0.258 C 
ATOM      3  C   LIG    1       -6.445  -0.519   0.030  0.00  0.00    +0.050 A 
ATOM      4  C   LIG    1       -7.128  -1.725   0.026  0.00  0.00    +0.014 A 
ATOM      5  C   LIG    1       -8.513  -1.734   0.033  0.00  0.00    +0.016 A 
ATOM      6  C   LIG    1       -9.224  -0.533   0.043  0.00  0.00    +0.060 A 
ATOM      7  C   LIG    1       -8.542   0.687   0.047  0.00  0.00    +0.028 A 
ATOM      8  C   LIG    1       -7.158   0.697   0.041  0.00  0.00    +0.051 A 
ATOM      9  O   LIG    1       -4.078  -0.923   0.004  0.00  0.00    -0.269 OA
ATOM     10  C   LIG    1       -6.136   1.766   0.042  0.00  0.00    +0.258 C 
ATOM     11  O   LIG    1       -6.359   2.959   0.049  0.00  0.00    -0.269 OA
ENDROOT
BRANCH   1  16
ATOM     12  C   LIG    1       -1.305   1.933   0.019  0.00  0.00    +0.038 A 
ATOM     13  C   LIG    1       -1.327   3.329   0.032  0.00  0.00    +0.013 A 
ATOM     14  C   LIG    1       -2.532   4.000   0.036  0.00  0.00    +0.003 A 
ATOM     15  C   LIG    1       -3.721   3.295   0.038  0.00  0.00    +0.024 A 
ATOM     16  C   LIG    1       -3.710   1.905   0.030  0.00  0.00    +0.045 A 
ATOM     17  C   LIG    1       -2.504   1.222   0.021  0.00  0.00    +0.037 A 
BRANCH  12  20
ATOM     18  N   LIG    1        1.143   1.901   0.001  0.00  0.00    -0.307 N 
ATOM     19  H   LIG    1        1.130   2.871   0.007  0.00  0.00    +0.150 HD
ATOM     20  C   LIG    1       -0.014   1.211   0.009  0.00  0.00    +0.245 C 
ATOM     21  O   LIG    1        0.002  -0.004   0.002  0.00  0.00    -0.270 OA
BRANCH  18  23
ATOM     22  C   LIG    1        2.503   0.314  -1.270  0.00  0.00    +0.031 C 
ATOM     23  C   LIG    1        2.422   1.186  -0.015  0.00  0.00    +0.026 C 
ATOM     24  C   LIG    1        2.527   0.301   1.229  0.00  0.00    +0.031 C 
ATOM     25  C   LIG    1        3.571   2.196  -0.020  0.00  0.00    +0.031 C 
ENDBRANCH  18  23
ENDBRANCH  12  20
ENDBRANCH   1  16
BRANCH   6  26
ATOM     26  C   LIG    1      -10.703  -0.553   0.050  0.00  0.00    +0.337 C 
ATOM     27  O   LIG    1      -11.324   0.491   0.059  0.00  0.00    -0.245 OA
BRANCH  26  28
ATOM     28  O   LIG    1      -11.361  -1.728   0.046  0.00  0.00    -0.477 OA
ATOM     29  H   LIG    1      -10.883  -2.533   0.039  0.00  0.00    +0.295 HD
ENDBRANCH  26  28
ENDBRANCH   6  26
TORSDOF 5
