REMARK  Name = ZINC00728136
REMARK                            x       y       z     vdW  Elec       q    Type
REMARK                         _______ _______ _______ _____ _____    ______ ____
ROOT
ATOM      1  C   LIG    1       -2.513   0.975   0.019  0.00  0.00    +0.101 C 
ATOM      2  C   LIG    1       -3.293   1.308   1.260  0.00  0.00    +0.098 C 
ATOM      3  C   LIG    1       -4.338   2.169   1.202  0.00  0.00    +0.198 C 
ATOM      4  O   LIG    1       -4.702   2.750   0.049  0.00  0.00    -0.445 OA
ATOM      5  C   LIG    1       -4.349   2.191  -1.124  0.00  0.00    +0.115 C 
ATOM      6  C   LIG    1       -5.149   2.557  -2.353  0.00  0.00    +0.083 C 
ATOM      7  C   LIG    1       -5.162   1.379  -3.329  0.00  0.00    +0.034 C 
ATOM      8  C   LIG    1       -3.714   1.038  -3.697  0.00  0.00    +0.088 C 
ATOM      9  C   LIG    1       -2.947   0.748  -2.436  0.00  0.00    +0.164 C 
ATOM     10  O   LIG    1       -1.994  -0.004  -2.476  0.00  0.00    -0.292 OA
ATOM     11  C   LIG    1       -3.314   1.335  -1.209  0.00  0.00    +0.046 C 
ENDROOT
BRANCH   1  15
ATOM     12  C   LIG    1        1.153   3.174   0.008  0.00  0.00    -0.018 A 
ATOM     13  C   LIG    1        1.174   1.781   0.000  0.00  0.00    +0.009 A 
ATOM     14  C   LIG    1       -0.013   1.076   0.008  0.00  0.00    +0.005 A 
ATOM     15  C   LIG    1       -1.220   1.750   0.017  0.00  0.00    -0.035 A 
ATOM     16  C   LIG    1       -1.246   3.133   0.031  0.00  0.00    +0.005 A 
ATOM     17  C   LIG    1       -0.066   3.848   0.023  0.00  0.00    +0.009 A 
BRANCH  12  21
ATOM     18  C   LIG    1        4.800   5.362  -0.013  0.00  0.00    +0.000 A 
ATOM     19  C   LIG    1        3.592   6.036   0.002  0.00  0.00    +0.001 A 
ATOM     20  C   LIG    1        2.406   5.331   0.008  0.00  0.00    +0.008 A 
ATOM     21  C   LIG    1        2.426   3.938   0.001  0.00  0.00    -0.018 A 
ATOM     22  C   LIG    1        3.646   3.264  -0.008  0.00  0.00    +0.008 A 
ATOM     23  C   LIG    1        4.826   3.979  -0.020  0.00  0.00    +0.001 A 
ENDBRANCH  12  21
ENDBRANCH   1  15
BRANCH   7  24
ATOM     24  C   LIG    1       -5.925   1.759  -4.571  0.00  0.00    -0.043 A 
ATOM     25  C   LIG    1       -5.517   2.841  -5.329  0.00  0.00    +0.004 A 
ATOM     26  C   LIG    1       -6.214   3.188  -6.471  0.00  0.00    +0.000 A 
ATOM     27  C   LIG    1       -7.325   2.458  -6.851  0.00  0.00    +0.000 A 
ATOM     28  C   LIG    1       -7.736   1.379  -6.091  0.00  0.00    +0.000 A 
ATOM     29  C   LIG    1       -7.036   1.030  -4.951  0.00  0.00    +0.004 A 
ENDBRANCH   7  24
BRANCH   3  30
ATOM     30  N   LIG    1       -5.038   2.453   2.348  0.00  0.00    -0.328 N 
ATOM     31  H   LIG    1       -4.784   2.039   3.187  0.00  0.00    +0.145 HD
ATOM     32  H   LIG    1       -5.788   3.068   2.318  0.00  0.00    +0.145 HD
ENDBRANCH   3  30
BRANCH   2  33
ATOM     33  C   LIG    1       -2.930   0.712   2.510  0.00  0.00    +0.101 C 
ATOM     34  N   LIG    1       -2.642   0.239   3.502  0.00  0.00    -0.191 NA
ENDBRANCH   2  33
TORSDOF 5
