REMARK  Name = ZINC00869159
REMARK                            x       y       z     vdW  Elec       q    Type
REMARK                         _______ _______ _______ _____ _____    ______ ____
ROOT
ATOM      1  C   LIG    1       -0.612   5.796  -0.280  0.00  0.00    +0.028 C 
ATOM      2  C   LIG    1       -0.073   4.811  -1.319  0.00  0.00    +0.081 C 
ATOM      3  C   LIG    1       -1.116   3.719  -1.590  0.00  0.00    +0.050 C 
ATOM      4  C   LIG    1       -0.585   2.788  -2.681  0.00  0.00    +0.115 C 
ATOM      5  C   LIG    1        0.800   2.308  -2.334  0.00  0.00    -0.005 A 
ATOM      6  C   LIG    1        1.280   1.157  -2.936  0.00  0.00    +0.007 A 
ATOM      7  C   LIG    1        2.549   0.696  -2.645  0.00  0.00    +0.000 A 
ATOM      8  C   LIG    1        3.349   1.382  -1.749  0.00  0.00    +0.002 A 
ATOM      9  C   LIG    1        2.878   2.529  -1.144  0.00  0.00    +0.024 A 
ATOM     10  C   LIG    1        1.600   2.995  -1.435  0.00  0.00    +0.042 A 
ATOM     11  N   LIG    1        1.138   4.157  -0.804  0.00  0.00    -0.264 N 
ATOM     12  C   LIG    1        1.792   4.667   0.258  0.00  0.00    +0.251 C 
ATOM     13  O   LIG    1        1.511   5.776   0.670  0.00  0.00    -0.270 OA
ENDROOT
BRANCH  12  14
ATOM     14  C   LIG    1        2.850   3.880   0.920  0.00  0.00    +0.037 A 
ATOM     15  C   LIG    1        2.676   2.509   1.131  0.00  0.00    +0.016 A 
ATOM     16  C   LIG    1        3.668   1.777   1.744  0.00  0.00    +0.046 A 
ATOM     17  C   LIG    1        4.837   2.401   2.164  0.00  0.00    +0.120 A 
ATOM     18  C   LIG    1        5.011   3.765   1.962  0.00  0.00    +0.046 A 
ATOM     19  C   LIG    1        4.027   4.504   1.344  0.00  0.00    +0.016 A 
BRANCH  17  20
ATOM     20  O   LIG    1        5.809   1.677   2.773  0.00  0.00    -0.495 OA
ATOM     21  C   LIG    1        5.565   0.281   2.949  0.00  0.00    +0.277 C 
ENDBRANCH  17  20
ENDBRANCH  12  14
BRANCH   4  22
ATOM     22  N   LIG    1       -0.541   3.510  -3.955  0.00  0.00    -0.264 N 
ATOM     23  C   LIG    1       -1.308   3.103  -4.986  0.00  0.00    +0.217 C 
ATOM     24  C   LIG    1       -1.201   3.792  -6.322  0.00  0.00    +0.109 C 
ATOM     25  O   LIG    1       -2.084   2.182  -4.839  0.00  0.00    -0.276 OA
BRANCH  22  26
ATOM     26  C   LIG    1        0.296   4.621  -4.102  0.00  0.00    +0.037 A 
ATOM     27  C   LIG    1       -0.251   5.889  -4.256  0.00  0.00    +0.023 A 
ATOM     28  C   LIG    1        0.579   6.984  -4.394  0.00  0.00    +0.002 A 
ATOM     29  C   LIG    1        1.952   6.819  -4.391  0.00  0.00    +0.000 A 
ATOM     30  C   LIG    1        2.499   5.558  -4.244  0.00  0.00    +0.002 A 
ATOM     31  C   LIG    1        1.675   4.459  -4.099  0.00  0.00    +0.023 A 
ENDBRANCH  22  26
ENDBRANCH   4  22
TORSDOF 4
