REMARK  Name = ZINC00840972
REMARK                            x       y       z     vdW  Elec       q    Type
REMARK                         _______ _______ _______ _____ _____    ______ ____
ROOT
ATOM      1  C   LIG    1        1.974  -6.343  -0.043  0.00  0.00    +0.098 A 
ATOM      2  C   LIG    1        3.239  -6.917  -0.048  0.00  0.00    +0.069 A 
ATOM      3  C   LIG    1        3.292  -8.362  -0.058  0.00  0.00    -0.026 A 
ATOM      4  C   LIG    1        4.597  -9.115  -0.064  0.00  0.00    +0.045 C 
ATOM      5  C   LIG    1        2.104  -8.992  -0.061  0.00  0.00    -0.000 A 
ATOM      6  S   LIG    1        0.930  -7.656  -0.044  0.00  0.00    -0.076 S 
ENDROOT
BRANCH   2   7
ATOM      7  C   LIG    1        4.455  -6.101  -0.044  0.00  0.00    +0.244 C 
ATOM      8  N   LIG    1        5.014  -5.718  -1.209  0.00  0.00    -0.325 N 
ATOM      9  H   LIG    1        5.819  -5.178  -1.206  0.00  0.00    +0.145 HD
ATOM     10  H   LIG    1        4.610  -5.982  -2.050  0.00  0.00    +0.145 HD
ATOM     11  O   LIG    1        4.962  -5.769   1.012  0.00  0.00    -0.270 OA
ENDBRANCH   2   7
BRANCH   1  12
ATOM     12  N   LIG    1        1.651  -4.999  -0.034  0.00  0.00    -0.209 N 
ATOM     13  H   LIG    1        2.365  -4.321  -0.035  0.00  0.00    +0.174 HD
BRANCH  12  14
ATOM     14  S   LIG    1        0.063  -4.530  -0.023  0.00  0.00    +0.073 S 
ATOM     15  O   LIG    1       -0.490  -4.937  -1.267  0.00  0.00    -0.150 OA
ATOM     16  O   LIG    1       -0.476  -4.950   1.223  0.00  0.00    -0.150 OA
BRANCH  14  21
ATOM     17  C   LIG    1       -0.018   1.503   0.010  0.00  0.00    +0.044 C 
ATOM     18  C   LIG    1        0.002  -0.004   0.002  0.00  0.00    -0.050 A 
ATOM     19  C   LIG    1        0.006  -0.689  -1.199  0.00  0.00    +0.005 A 
ATOM     20  C   LIG    1        0.025  -2.071  -1.206  0.00  0.00    +0.029 A 
ATOM     21  C   LIG    1        0.040  -2.768  -0.013  0.00  0.00    +0.109 A 
ATOM     22  C   LIG    1        0.037  -2.084   1.188  0.00  0.00    +0.029 A 
ATOM     23  C   LIG    1        0.023  -0.702   1.195  0.00  0.00    +0.005 A 
ENDBRANCH  14  21
ENDBRANCH  12  14
ENDBRANCH   1  12
BRANCH   5  24
ATOM     24  C   LIG    1        1.833 -10.475  -0.071  0.00  0.00    +0.077 C 
BRANCH  24  25
ATOM     25  C   LIG    1        1.743 -10.978   1.347  0.00  0.00    -0.043 A 
ATOM     26  C   LIG    1        2.881 -11.419   1.997  0.00  0.00    +0.004 A 
ATOM     27  C   LIG    1        2.798 -11.881   3.297  0.00  0.00    +0.000 A 
ATOM     28  C   LIG    1        1.579 -11.901   3.948  0.00  0.00    +0.000 A 
ATOM     29  C   LIG    1        0.442 -11.459   3.298  0.00  0.00    +0.000 A 
ATOM     30  C   LIG    1        0.524 -10.994   1.999  0.00  0.00    +0.004 A 
ENDBRANCH  24  25
ENDBRANCH   5  24
TORSDOF 6
