REMARK  Name = ZINC00968360
REMARK                            x       y       z     vdW  Elec       q    Type
REMARK                         _______ _______ _______ _____ _____    ______ ____
ROOT
ATOM      1  C   LIG    1       -2.013  -3.673   2.444  0.00  0.00    +0.179 C 
ENDROOT
BRANCH   1   2
ATOM      2  C   LIG    1       -3.344  -3.284   1.854  0.00  0.00    -0.014 A 
ATOM      3  C   LIG    1       -3.695  -1.950   1.759  0.00  0.00    +0.006 A 
ATOM      4  C   LIG    1       -4.916  -1.593   1.219  0.00  0.00    +0.000 A 
ATOM      5  C   LIG    1       -5.787  -2.570   0.773  0.00  0.00    +0.000 A 
ATOM      6  C   LIG    1       -5.436  -3.904   0.867  0.00  0.00    +0.000 A 
ATOM      7  C   LIG    1       -4.213  -4.260   1.404  0.00  0.00    +0.006 A 
ENDBRANCH   1   2
BRANCH   1   8
ATOM      8  C   LIG    1       -2.118  -3.700   3.947  0.00  0.00    -0.014 A 
ATOM      9  C   LIG    1       -2.058  -2.521   4.665  0.00  0.00    +0.006 A 
ATOM     10  C   LIG    1       -2.155  -2.546   6.044  0.00  0.00    +0.000 A 
ATOM     11  C   LIG    1       -2.311  -3.750   6.704  0.00  0.00    +0.000 A 
ATOM     12  C   LIG    1       -2.371  -4.929   5.986  0.00  0.00    +0.000 A 
ATOM     13  C   LIG    1       -2.279  -4.904   4.607  0.00  0.00    +0.006 A 
ENDBRANCH   1   8
BRANCH   1  14
ATOM     14  O   LIG    1       -1.022  -2.720   2.053  0.00  0.00    -0.364 OA
BRANCH  14  22
ATOM     15  C   LIG    1        3.390  -1.069   1.360  0.00  0.00    -0.095 C 
ATOM     16  N   LIG    1        2.227  -1.802   0.843  0.00  0.00    +0.382 N 
ATOM     17  H   LIG    1        2.401  -2.126  -0.097  0.00  0.00    -0.081 HD
ATOM     18  C   LIG    1        1.009  -0.950   0.889  0.00  0.00    -0.066 C 
ATOM     19  C   LIG    1        0.591  -0.966   2.377  0.00  0.00    -0.017 C 
ATOM     20  C   LIG    1        1.171  -2.281   2.937  0.00  0.00    -0.017 C 
ATOM     21  C   LIG    1       -0.079  -1.666   0.073  0.00  0.00    +0.016 C 
ATOM     22  C   LIG    1       -0.421  -2.994   0.785  0.00  0.00    +0.117 C 
ATOM     23  C   LIG    1        0.858  -3.809   0.994  0.00  0.00    +0.016 C 
ATOM     24  C   LIG    1        1.887  -2.941   1.736  0.00  0.00    -0.066 C 
ENDBRANCH  14  22
ENDBRANCH   1  14
TORSDOF 4
