REMARK  Name = ZINC00902159
REMARK                            x       y       z     vdW  Elec       q    Type
REMARK                         _______ _______ _______ _____ _____    ______ ____
ROOT
ATOM      1  C   LIG    1        3.583   2.196  -0.021  0.00  0.00    +0.116 C 
ENDROOT
BRANCH   1   4
ATOM      2  C   LIG    1       -0.017   1.409   0.010  0.00  0.00    +0.072 A 
ATOM      3  C   LIG    1        1.153   2.087   0.002  0.00  0.00    +0.089 A 
ATOM      4  N   LIG    1        2.336   1.428  -0.013  0.00  0.00    -0.351 N 
ATOM      5  C   LIG    1        2.392   0.070  -0.020  0.00  0.00    +0.135 A 
ATOM      6  C   LIG    1        1.256  -0.667  -0.013  0.00  0.00    +0.180 A 
ATOM      7  C   LIG    1        0.002  -0.004   0.002  0.00  0.00    +0.223 A 
ATOM      8  O   LIG    1       -1.041  -0.642   0.009  0.00  0.00    -0.284 OA
BRANCH   6   9
ATOM      9  O   LIG    1        1.316  -2.026  -0.022  0.00  0.00    -0.502 OA
ATOM     10  H   LIG    1        0.451  -2.459  -0.016  0.00  0.00    +0.292 HD
ENDBRANCH   6   9
ENDBRANCH   1   4
BRANCH   1  11
ATOM     11  CA  LIG    1        4.032   2.456   1.419  0.00  0.00    +0.056 C 
BRANCH  11  12
ATOM     12  N   LIG    1        2.945   3.111   2.159  0.00  0.00    +0.388 N 
ATOM     13  H1  LIG    1        2.132   2.513   2.163  0.00  0.00    -0.089 HD
ATOM     14  H2  LIG    1        2.716   3.988   1.715  0.00  0.00    -0.089 HD
ATOM     15  H3  LIG    1        3.241   3.283   3.108  0.00  0.00    -0.089 HD
ENDBRANCH  11  12
BRANCH  11  16
ATOM     16  C   LIG    1        5.245   3.349   1.413  0.00  0.00    +0.292 C 
ATOM     17  O   LIG    1        5.159   4.499   1.810  0.00  0.00    -0.253 OA
BRANCH  16  18
ATOM     18  OXT LIG    1        6.314   2.922   1.012  0.00  0.00    -0.482 OA
ATOM     19  HXT LIG    1        6.381   2.039   0.706  0.00  0.00    +0.295 HD
ENDBRANCH  16  18
ENDBRANCH  11  16
ENDBRANCH   1  11
TORSDOF 6
