REMARK  Name = ZINC01114473
REMARK                            x       y       z     vdW  Elec       q    Type
REMARK                         _______ _______ _______ _____ _____    ______ ____
ROOT
ATOM      1  C   LIG    1        0.856  -4.659   0.962  0.00  0.00    +0.103 C 
ATOM      2  C   LIG    1        1.640  -5.562   1.722  0.00  0.00    +0.018 C 
ATOM      3  C   LIG    1        2.540  -5.139   2.705  0.00  0.00    +0.006 C 
ATOM      4  C   LIG    1        3.262  -6.068   3.397  0.00  0.00    +0.000 C 
ATOM      5  C   LIG    1        3.115  -7.428   3.139  0.00  0.00    +0.000 C 
ATOM      6  C   LIG    1        2.246  -7.873   2.186  0.00  0.00    +0.007 C 
ATOM      7  C   LIG    1        1.491  -6.947   1.460  0.00  0.00    +0.027 C 
ATOM      8  C   LIG    1        0.569  -7.331   0.458  0.00  0.00    +0.142 C 
ATOM      9  N   LIG    1       -0.106  -6.393  -0.184  0.00  0.00    -0.239 NA
ATOM     10  H   LIG    1       -0.736  -6.667  -0.870  0.00  0.00    +0.142 HD
ATOM     11  N   LIG    1        0.024  -5.142   0.056  0.00  0.00    -0.248 NA
ATOM     12  H   LIG    1        0.297  -4.714  -0.829  0.00  0.00    +0.141 HD
ENDROOT
BRANCH   8  13
ATOM     13  N   LIG    1        0.378  -8.668   0.153  0.00  0.00    -0.283 NA
ATOM     14  C   LIG    1       -0.670  -9.447   0.830  0.00  0.00    +0.105 C 
ATOM     15  C   LIG    1       -1.581 -10.071  -0.234  0.00  0.00    +0.123 C 
ATOM     16  N   LIG    1       -0.741 -10.737  -1.240  0.00  0.00    -0.295 N 
ATOM     17  C   LIG    1       -0.927 -12.039  -1.536  0.00  0.00    +0.247 C 
ATOM     18  O   LIG    1       -0.152 -12.610  -2.277  0.00  0.00    -0.270 OA
ATOM     19  C   LIG    1        0.306  -9.959  -1.916  0.00  0.00    +0.123 C 
ATOM     20  C   LIG    1        1.214  -9.333  -0.856  0.00  0.00    +0.105 C 
BRANCH  17  21
ATOM     21  C   LIG    1       -2.075 -12.771  -0.959  0.00  0.00    +0.037 A 
ATOM     22  C   LIG    1       -3.301 -12.126  -0.783  0.00  0.00    +0.013 A 
ATOM     23  C   LIG    1       -4.368 -12.815  -0.245  0.00  0.00    +0.001 A 
ATOM     24  C   LIG    1       -4.225 -14.142   0.120  0.00  0.00    +0.000 A 
ATOM     25  C   LIG    1       -3.013 -14.787  -0.051  0.00  0.00    +0.001 A 
ATOM     26  C   LIG    1       -1.940 -14.111  -0.594  0.00  0.00    +0.013 A 
ENDBRANCH  17  21
ENDBRANCH   8  13
BRANCH   1  31
ATOM     27  C   LIG    1        1.268   1.018   1.825  0.00  0.00    +0.044 C 
ATOM     28  C   LIG    1        1.160  -0.469   1.599  0.00  0.00    -0.050 A 
ATOM     29  C   LIG    1        2.306  -1.240   1.533  0.00  0.00    +0.003 A 
ATOM     30  C   LIG    1        2.214  -2.601   1.327  0.00  0.00    +0.005 A 
ATOM     31  C   LIG    1        0.962  -3.199   1.185  0.00  0.00    -0.029 A 
ATOM     32  C   LIG    1       -0.190  -2.416   1.252  0.00  0.00    +0.005 A 
ATOM     33  C   LIG    1       -0.085  -1.056   1.465  0.00  0.00    +0.003 A 
ENDBRANCH   1  31
TORSDOF 3
