REMARK  Name = ZINC00896731
REMARK                            x       y       z     vdW  Elec       q    Type
REMARK                         _______ _______ _______ _____ _____    ______ ____
ROOT
ATOM      1  C   LIG    1        2.047   7.713   1.435  0.00  0.00    +0.036 C 
ATOM      2  C   LIG    1        1.679   7.307   0.007  0.00  0.00    +0.140 C 
ENDROOT
BRANCH   2   3
ATOM      3  C   LIG    1        1.295   5.850  -0.017  0.00  0.00    +0.013 A 
ATOM      4  C   LIG    1        0.065   5.315  -0.029  0.00  0.00    +0.021 A 
ATOM      5  C   LIG    1       -0.083   3.868  -0.052  0.00  0.00    -0.010 A 
ATOM      6  C   LIG    1       -1.270   3.099  -0.068  0.00  0.00    +0.009 A 
ATOM      7  C   LIG    1       -1.219   1.740  -0.095  0.00  0.00    +0.001 A 
ATOM      8  C   LIG    1       -0.008   1.060  -0.098  0.00  0.00    +0.001 A 
ATOM      9  C   LIG    1        1.173   1.774  -0.084  0.00  0.00    +0.015 A 
ATOM     10  C   LIG    1        1.134   3.152  -0.061  0.00  0.00    +0.020 A 
ATOM     11  S   LIG    1        2.368   4.426  -0.038  0.00  0.00    -0.091 S 
ENDBRANCH   2   3
BRANCH   2  12
ATOM     12  N   LIG    1        2.828   7.524  -0.875  0.00  0.00    -0.160 N 
ATOM     13  C   LIG    1        3.988   6.878  -0.641  0.00  0.00    +0.323 C 
ATOM     14  N   LIG    1        5.007   6.985  -1.517  0.00  0.00    -0.312 N 
ATOM     15  H   LIG    1        5.814   6.463  -1.388  0.00  0.00    +0.147 HD
ATOM     16  H   LIG    1        4.933   7.583  -2.277  0.00  0.00    +0.147 HD
ATOM     17  O   LIG    1        4.115   6.199   0.359  0.00  0.00    -0.251 OA
BRANCH  12  18
ATOM     18  O   LIG    1        2.721   8.412  -1.972  0.00  0.00    -0.291 OA
ATOM     19  H   LIG    1        3.503   8.431  -2.541  0.00  0.00    +0.242 HD
ENDBRANCH  12  18
ENDBRANCH   2  12
TORSDOF 3
