REMARK  Name = ZINC01024901
REMARK                            x       y       z     vdW  Elec       q    Type
REMARK                         _______ _______ _______ _____ _____    ______ ____
ROOT
ATOM      1  C   LIG    1       -2.926   5.133   4.730  0.00  0.00    +0.192 C 
ENDROOT
BRANCH   1   2
ATOM      2  S   LIG    1       -2.956   3.324   4.857  0.00  0.00    +0.015 S 
ATOM      3  O   LIG    1       -2.181   2.899   5.969  0.00  0.00    -0.168 OA
ATOM      4  O   LIG    1       -4.279   2.842   4.669  0.00  0.00    -0.168 OA
BRANCH   2   5
ATOM      5  C   LIG    1       -2.066   2.757   3.446  0.00  0.00    +0.176 A 
ATOM      6  C   LIG    1       -0.700   2.564   3.531  0.00  0.00    +0.048 A 
ATOM      7  C   LIG    1       -0.010   2.118   2.415  0.00  0.00    +0.017 A 
ATOM      8  C   LIG    1       -0.722   1.881   1.250  0.00  0.00    +0.073 A 
ATOM      9  C   LIG    1       -2.086   2.101   1.238  0.00  0.00    +0.125 A 
ATOM     10  N   LIG    1       -2.712   2.521   2.320  0.00  0.00    -0.236 NA
BRANCH   8  11
ATOM     11  C   LIG    1       -0.017   1.395   0.010  0.00  0.00    +0.419 C 
ATOM     12  F   LIG    1       -0.694   1.858  -1.124  0.00  0.00    -0.166 F 
ATOM     13  F   LIG    1        1.296   1.879  -0.000  0.00  0.00    -0.166 F 
ATOM     14  F   LIG    1        0.002  -0.004   0.002  0.00  0.00    -0.166 F 
ENDBRANCH   8  11
ENDBRANCH   2   5
ENDBRANCH   1   2
BRANCH   1  15
ATOM     15  C   LIG    1       -3.678   5.740   5.917  0.00  0.00    +0.127 C 
BRANCH  15  17
ATOM     16  C   LIG    1       -4.258   7.953   6.756  0.00  0.00    +0.244 C 
ATOM     17  N   LIG    1       -3.654   7.202   5.814  0.00  0.00    -0.310 N 
ATOM     18  H   LIG    1       -3.204   7.628   5.068  0.00  0.00    +0.149 HD
ATOM     19  O   LIG    1       -4.822   7.419   7.690  0.00  0.00    -0.270 OA
BRANCH  16  26
ATOM     20  C   LIG    1       -3.582  10.044   5.583  0.00  0.00    +0.014 A 
ATOM     21  C   LIG    1       -3.568  11.420   5.488  0.00  0.00    +0.021 A 
ATOM     22  C   LIG    1       -4.190  12.190   6.458  0.00  0.00    +0.041 A 
ATOM     23 CL   LIG    1       -4.162  13.921   6.336  0.00  0.00    -0.084 Cl
ATOM     24  C   LIG    1       -4.833  11.583   7.524  0.00  0.00    +0.021 A 
ATOM     25  C   LIG    1       -4.859  10.208   7.626  0.00  0.00    +0.014 A 
ATOM     26  C   LIG    1       -4.234   9.427   6.652  0.00  0.00    +0.037 A 
ENDBRANCH  16  26
ENDBRANCH  15  17
ENDBRANCH   1  15
TORSDOF 6
