REMARK  Name = ZINC00873517
REMARK                            x       y       z     vdW  Elec       q    Type
REMARK                         _______ _______ _______ _____ _____    ______ ____
ROOT
ATOM      1  C   LIG    1        0.956   7.640  -0.487  0.00  0.00    +0.005 A 
ATOM      2  C   LIG    1        1.007   6.263  -0.583  0.00  0.00    +0.023 A 
ATOM      3  C   LIG    1       -0.170   5.526  -0.634  0.00  0.00    +0.037 A 
ATOM      4  C   LIG    1       -1.396   6.175  -0.595  0.00  0.00    +0.069 A 
ATOM      5  C   LIG    1       -1.442   7.556  -0.494  0.00  0.00    +0.123 A 
ATOM      6  C   LIG    1       -0.264   8.288  -0.443  0.00  0.00    +0.046 A 
ENDROOT
BRANCH   3   7
ATOM      7  N   LIG    1       -0.119   4.132  -0.731  0.00  0.00    -0.281 N 
ATOM      8  H   LIG    1        0.603   3.705  -1.219  0.00  0.00    +0.155 HD
ATOM      9  C   LIG    1       -1.073   3.380  -0.147  0.00  0.00    +0.250 C 
ATOM     10  O   LIG    1       -1.924   3.907   0.543  0.00  0.00    -0.270 OA
BRANCH   9  11
ATOM     11  C   LIG    1       -1.083   1.915  -0.344  0.00  0.00    +0.055 A 
ATOM     12  C   LIG    1       -2.069   1.123   0.258  0.00  0.00    +0.016 A 
ATOM     13  C   LIG    1       -2.034  -0.243   0.042  0.00  0.00    +0.020 A 
ATOM     14  C   LIG    1       -1.037  -0.778  -0.754  0.00  0.00    +0.111 A 
ATOM     15  N   LIG    1       -0.121  -0.007  -1.308  0.00  0.00    -0.263 NA
ATOM     16  C   LIG    1       -0.112   1.298  -1.133  0.00  0.00    +0.123 A 
ENDBRANCH   9  11
ENDBRANCH   3   7
BRANCH   5  17
ATOM     17  O   LIG    1       -2.641   8.195  -0.450  0.00  0.00    -0.483 OA
BRANCH  17  18
ATOM     18  C   LIG    1       -2.614   9.620  -0.352  0.00  0.00    +0.324 C 
BRANCH  18  19
ATOM     19  C   LIG    1       -4.025  10.149  -0.316  0.00  0.00    +0.255 C 
ATOM     20  N   LIG    1       -4.246  11.475  -0.225  0.00  0.00    -0.283 N 
ATOM     21  H   LIG    1       -3.500  12.094  -0.257  0.00  0.00    +0.155 HD
ATOM     22  O   LIG    1       -4.962   9.380  -0.369  0.00  0.00    -0.272 OA
BRANCH  20  23
ATOM     23  C   LIG    1       -5.551  11.959  -0.083  0.00  0.00    +0.034 A 
ATOM     24  C   LIG    1       -5.904  13.181  -0.641  0.00  0.00    +0.024 A 
ATOM     25  C   LIG    1       -7.195  13.654  -0.504  0.00  0.00    +0.017 A 
ATOM     26  C   LIG    1       -8.133  12.916   0.197  0.00  0.00    +0.018 A 
ATOM     27 BR   LIG    1       -9.897  13.570   0.387  0.00  0.00    -0.050 Br
ATOM     28  C   LIG    1       -7.782  11.701   0.758  0.00  0.00    +0.017 A 
ATOM     29  C   LIG    1       -6.494  11.221   0.620  0.00  0.00    +0.024 A 
ENDBRANCH  20  23
ENDBRANCH  18  19
ENDBRANCH  17  18
ENDBRANCH   5  17
TORSDOF 6
