REMARK  Name = ZINC00832320
REMARK                            x       y       z     vdW  Elec       q    Type
REMARK                         _______ _______ _______ _____ _____    ______ ____
ROOT
ATOM      1  C   LIG    1       -2.095   4.461   3.026  0.00  0.00    +0.061 C 
ATOM      2  C   LIG    1       -1.797   3.924   1.650  0.00  0.00    +0.021 C 
ATOM      3  C   LIG    1       -1.611   2.597   1.481  0.00  0.00    +0.078 C 
ATOM      4  C   LIG    1       -1.314   2.099   0.081  0.00  0.00    +0.143 C 
ATOM      5  N   LIG    1       -1.252   3.110  -0.988  0.00  0.00    -0.288 N 
ATOM      6  H   LIG    1       -1.065   2.853  -1.904  0.00  0.00    +0.151 HD
ATOM      7  C   LIG    1       -1.460   4.401  -0.662  0.00  0.00    +0.304 C 
ATOM      8  O   LIG    1       -1.411   5.244  -1.537  0.00  0.00    -0.252 OA
ATOM      9  N   LIG    1       -1.720   4.786   0.594  0.00  0.00    -0.273 N 
ATOM     10  H   LIG    1       -1.861   5.731   0.763  0.00  0.00    +0.156 HD
ENDROOT
BRANCH   4  11
ATOM     11  C   LIG    1        0.009   1.378   0.116  0.00  0.00    -0.022 A 
ATOM     12  C   LIG    1        1.189   2.097   0.088  0.00  0.00    +0.008 A 
ATOM     13  C   LIG    1        2.403   1.436   0.114  0.00  0.00    +0.033 A 
ATOM     14  C   LIG    1        2.436   0.055   0.167  0.00  0.00    +0.122 A 
ATOM     15  C   LIG    1        1.256  -0.664   0.195  0.00  0.00    +0.033 A 
ATOM     16  C   LIG    1        0.043  -0.003   0.170  0.00  0.00    +0.008 A 
BRANCH  14  17
ATOM     17  N   LIG    1        3.736  -0.653   0.195  0.00  0.00    +0.006 N 
ATOM     18  O   LIG    1        3.765  -1.870   0.242  0.00  0.00    -0.130 OA
BRANCH  17  19
ATOM     19  O   LIG    1        4.775  -0.020   0.170  0.00  0.00    -0.396 OA
ATOM     20  H   LIG    1        4.753   0.916   0.134  0.00  0.00    +0.329 HD
ENDBRANCH  17  19
ENDBRANCH  14  17
ENDBRANCH   4  11
BRANCH   3  21
ATOM     21  C   LIG    1       -1.692   1.702   2.574  0.00  0.00    +0.339 C 
ATOM     22  O   LIG    1       -1.825   2.133   3.704  0.00  0.00    -0.245 OA
BRANCH  21  23
ATOM     23  O   LIG    1       -1.620   0.371   2.363  0.00  0.00    -0.458 OA
BRANCH  23  24
ATOM     24  C   LIG    1       -1.709  -0.473   3.512  0.00  0.00    +0.177 C 
ATOM     25  C   LIG    1       -0.297  -0.656   4.107  0.00  0.00    +0.044 C 
ATOM     26  C   LIG    1       -0.436  -1.086   5.542  0.00  0.00    +0.004 C 
ATOM     27  C   LIG    1       -0.391  -2.618   5.705  0.00  0.00    +0.000 C 
ATOM     28  C   LIG    1       -1.194  -3.358   4.619  0.00  0.00    +0.000 C 
ATOM     29  C   LIG    1       -2.509  -2.691   4.320  0.00  0.00    +0.004 C 
ATOM     30  C   LIG    1       -2.314  -1.738   3.122  0.00  0.00    +0.044 C 
ENDBRANCH  23  24
ENDBRANCH  21  23
ENDBRANCH   3  21
TORSDOF 6
