REMARK  Name = ZINC01085679
REMARK                            x       y       z     vdW  Elec       q    Type
REMARK                         _______ _______ _______ _____ _____    ______ ____
ROOT
ATOM      1  C   LIG    1        6.814   3.783  -0.043  0.00  0.00    +0.039 A 
ATOM      2  C   LIG    1        7.523   2.580  -0.057  0.00  0.00    +0.013 A 
ATOM      3  C   LIG    1        6.843   1.379  -0.056  0.00  0.00    +0.003 A 
ATOM      4  C   LIG    1        5.461   1.362  -0.043  0.00  0.00    +0.024 A 
ATOM      5  C   LIG    1        4.747   2.554  -0.029  0.00  0.00    +0.045 A 
ATOM      6  C   LIG    1        5.420   3.765  -0.035  0.00  0.00    +0.037 A 
ENDROOT
BRANCH   5   7
ATOM      7  N   LIG    1        3.345   2.530  -0.016  0.00  0.00    -0.202 N 
ATOM      8  C   LIG    1        2.566   3.627  -0.003  0.00  0.00    +0.258 C 
ATOM      9  C   LIG    1        1.149   3.198   0.008  0.00  0.00    +0.050 A 
ATOM     10  C   LIG    1       -0.062   3.871   0.022  0.00  0.00    +0.014 A 
ATOM     11  C   LIG    1       -1.248   3.158   0.030  0.00  0.00    +0.016 A 
ATOM     12  C   LIG    1       -1.230   1.762   0.017  0.00  0.00    +0.060 A 
ATOM     13  C   LIG    1       -0.013   1.076   0.008  0.00  0.00    +0.028 A 
ATOM     14  C   LIG    1        1.174   1.788   0.001  0.00  0.00    +0.051 A 
ATOM     15  O   LIG    1        2.959   4.776  -0.002  0.00  0.00    -0.269 OA
ATOM     16  C   LIG    1        2.603   1.409  -0.015  0.00  0.00    +0.258 C 
ATOM     17  O   LIG    1        3.034   0.274  -0.025  0.00  0.00    -0.269 OA
BRANCH  12  18
ATOM     18  C   LIG    1       -2.503   1.008   0.020  0.00  0.00    +0.337 C 
ATOM     19  O   LIG    1       -2.489  -0.206   0.014  0.00  0.00    -0.245 OA
BRANCH  18  20
ATOM     20  O   LIG    1       -3.677   1.668   0.029  0.00  0.00    -0.477 OA
ATOM     21  H   LIG    1       -3.688   2.605   0.034  0.00  0.00    +0.295 HD
ENDBRANCH  18  20
ENDBRANCH  12  18
ENDBRANCH   5   7
BRANCH   1  28
ATOM     22  C   LIG    1       10.336   8.607  -0.056  0.00  0.00    +0.002 A 
ATOM     23  C   LIG    1        9.130   9.293  -0.041  0.00  0.00    +0.004 A 
ATOM     24  C   LIG    1        7.934   8.606  -0.033  0.00  0.00    +0.048 A 
ATOM     25  C   LIG    1        7.933   7.220  -0.039  0.00  0.00    +0.156 A 
ATOM     26  C   LIG    1        9.151   6.521  -0.054  0.00  0.00    +0.110 A 
ATOM     27  N   LIG    1        8.842   5.199  -0.057  0.00  0.00    -0.209 NA
ATOM     28  C   LIG    1        7.539   5.071  -0.044  0.00  0.00    +0.228 A 
ATOM     29  O   LIG    1        6.957   6.285  -0.038  0.00  0.00    -0.435 OA
ATOM     30  C   LIG    1       10.354   7.230  -0.063  0.00  0.00    +0.031 A 
ENDBRANCH   1  28
TORSDOF 4
