REMARK  Name = ZINC01227906
REMARK                            x       y       z     vdW  Elec       q    Type
REMARK                         _______ _______ _______ _____ _____    ______ ____
ROOT
ATOM      1  N   LIG    1       -0.326  -2.154   0.901  0.00  0.00    -0.241 N 
ATOM      2  C   LIG    1       -1.282  -2.763   1.583  0.00  0.00    +0.259 C 
ATOM      3  C   LIG    1       -1.511  -4.189   1.271  0.00  0.00    +0.077 C 
ATOM      4  S   LIG    1       -0.280  -4.456   0.002  0.00  0.00    -0.061 S 
ATOM      5  C   LIG    1       -2.408  -5.057   1.802  0.00  0.00    +0.028 C 
ATOM      6  O   LIG    1       -1.939  -2.178   2.424  0.00  0.00    -0.269 OA
ATOM      7  C   LIG    1        0.396  -2.804  -0.034  0.00  0.00    +0.121 C 
ATOM      8  S   LIG    1        1.658  -2.194  -1.017  0.00  0.00    -0.027 S 
ENDROOT
BRANCH   5   9
ATOM      9  C   LIG    1       -2.332  -6.487   1.470  0.00  0.00    -0.024 A 
ATOM     10  C   LIG    1       -1.233  -6.988   0.764  0.00  0.00    +0.009 A 
ATOM     11  C   LIG    1       -1.169  -8.330   0.457  0.00  0.00    +0.016 A 
ATOM     12  C   LIG    1       -2.189  -9.182   0.846  0.00  0.00    +0.018 A 
ATOM     13 BR   LIG    1       -2.091 -11.022   0.419  0.00  0.00    -0.050 Br
ATOM     14  C   LIG    1       -3.280  -8.694   1.545  0.00  0.00    +0.016 A 
ATOM     15  C   LIG    1       -3.356  -7.356   1.865  0.00  0.00    +0.009 A 
ENDBRANCH   5   9
BRANCH   1  16
ATOM     16  C   LIG    1       -0.050  -0.739   1.163  0.00  0.00    +0.193 C 
BRANCH  16  18
ATOM     17  C   LIG    1        1.689   0.898   1.897  0.00  0.00    +0.009 C 
ATOM     18  C   LIG    1        1.400  -0.580   1.623  0.00  0.00    +0.015 C 
ATOM     19  C   LIG    1        1.620  -1.388   2.904  0.00  0.00    +0.009 C 
ENDBRANCH  16  18
BRANCH  16  20
ATOM     20  C   LIG    1       -0.267   0.057  -0.099  0.00  0.00    +0.326 C 
ATOM     21  O   LIG    1       -0.440  -0.518  -1.160  0.00  0.00    -0.249 OA
BRANCH  20  22
ATOM     22  O   LIG    1       -0.269   1.275  -0.058  0.00  0.00    -0.479 OA
ATOM     23  H   LIG    1       -0.136   1.717   0.758  0.00  0.00    +0.295 HD
ENDBRANCH  20  22
ENDBRANCH  16  20
ENDBRANCH   1  16
TORSDOF 5
