REMARK  Name = ZINC00947921
REMARK                            x       y       z     vdW  Elec       q    Type
REMARK                         _______ _______ _______ _____ _____    ______ ____
ROOT
ATOM      1  C   LIG    1        3.398  -1.980   2.249  0.00  0.00    +0.048 A 
ATOM      2  C   LIG    1        2.013  -1.909   2.164  0.00  0.00    +0.025 A 
ATOM      3  C   LIG    1        1.232  -2.779   2.899  0.00  0.00    +0.009 A 
ATOM      4  C   LIG    1        1.827  -3.720   3.719  0.00  0.00    +0.002 A 
ATOM      5  C   LIG    1        3.205  -3.794   3.806  0.00  0.00    +0.009 A 
ATOM      6  C   LIG    1        3.992  -2.931   3.070  0.00  0.00    +0.025 A 
ENDROOT
BRANCH   1   7
ATOM      7  N   LIG    1        4.191  -1.102   1.507  0.00  0.00    -0.216 N 
ATOM      8  H   LIG    1        4.637  -0.361   1.946  0.00  0.00    +0.174 HD
BRANCH   7   9
ATOM      9  S   LIG    1        4.370  -1.326  -0.124  0.00  0.00    +0.072 S 
ATOM     10  O   LIG    1        3.063  -1.485  -0.659  0.00  0.00    -0.150 OA
ATOM     11  O   LIG    1        5.261  -0.316  -0.577  0.00  0.00    -0.150 OA
BRANCH   9  15
ATOM     12  C   LIG    1        6.494  -5.281  -0.709  0.00  0.00    +0.000 A 
ATOM     13  C   LIG    1        5.118  -5.248  -0.581  0.00  0.00    +0.002 A 
ATOM     14  C   LIG    1        4.470  -4.040  -0.402  0.00  0.00    +0.029 A 
ATOM     15  C   LIG    1        5.197  -2.866  -0.351  0.00  0.00    +0.108 A 
ATOM     16  C   LIG    1        6.573  -2.899  -0.478  0.00  0.00    +0.029 A 
ATOM     17  C   LIG    1        7.222  -4.106  -0.658  0.00  0.00    +0.002 A 
ENDBRANCH   9  15
ENDBRANCH   7   9
ENDBRANCH   1   7
BRANCH   4  18
ATOM     18  C   LIG    1        0.971  -4.667   4.520  0.00  0.00    +0.282 C 
BRANCH  18  19
ATOM     19  C   LIG    1        1.233  -4.453   6.013  0.00  0.00    +0.431 C 
ATOM     20  F   LIG    1        2.583  -4.697   6.289  0.00  0.00    -0.167 F 
ATOM     21  F   LIG    1        0.439  -5.332   6.756  0.00  0.00    -0.167 F 
ATOM     22  F   LIG    1        0.918  -3.135   6.357  0.00  0.00    -0.167 F 
ENDBRANCH  18  19
BRANCH  18  23
ATOM     23  C   LIG    1        1.317  -6.109   4.144  0.00  0.00    +0.431 C 
ATOM     24  F   LIG    1        1.205  -6.269   2.759  0.00  0.00    -0.167 F 
ATOM     25  F   LIG    1        0.434  -6.984   4.787  0.00  0.00    -0.167 F 
ATOM     26  F   LIG    1        2.627  -6.394   4.542  0.00  0.00    -0.167 F 
ENDBRANCH  18  23
BRANCH  18  27
ATOM     27  O   LIG    1       -0.407  -4.418   4.238  0.00  0.00    -0.369 OA
ATOM     28  H   LIG    1       -0.573  -4.554   3.292  0.00  0.00    +0.211 HD
ENDBRANCH  18  27
ENDBRANCH   4  18
TORSDOF 7
