REMARK  Name = ZINC01038604
REMARK                            x       y       z     vdW  Elec       q    Type
REMARK                         _______ _______ _______ _____ _____    ______ ____
ROOT
ATOM      1  C   LIG    1        0.454  -5.947   2.436  0.00  0.00    +0.095 A 
ATOM      2  C   LIG    1        1.321  -6.623   3.316  0.00  0.00    +0.051 A 
ATOM      3  C   LIG    1        0.937  -7.918   3.362  0.00  0.00    +0.136 A 
ATOM      4  N   LIG    1       -0.130  -8.065   2.548  0.00  0.00    -0.136 N 
ATOM      5  N   LIG    1       -0.421  -6.818   1.981  0.00  0.00    -0.150 NA
ENDROOT
BRANCH   1  13
ATOM      6  C   LIG    1       -0.019   1.526   0.010  0.00  0.00    +0.055 C 
ATOM      7  C   LIG    1        0.002  -0.004   0.002  0.00  0.00    +0.105 C 
ATOM      8  C   LIG    1        0.706  -0.503  -1.262  0.00  0.00    +0.055 C 
ATOM      9  C   LIG    1       -1.435  -0.540   0.040  0.00  0.00    +0.052 C 
ATOM     10  C   LIG    1       -1.381  -2.065  -0.083  0.00  0.00    +0.042 C 
ATOM     11  C   LIG    1       -0.362  -2.617   0.882  0.00  0.00    -0.005 A 
ATOM     12  C   LIG    1       -0.414  -3.961   1.205  0.00  0.00    +0.017 A 
ATOM     13  C   LIG    1        0.513  -4.505   2.089  0.00  0.00    +0.003 A 
ATOM     14  C   LIG    1        1.497  -3.690   2.647  0.00  0.00    +0.013 A 
ATOM     15  C   LIG    1        1.544  -2.353   2.323  0.00  0.00    +0.046 A 
ATOM     16  C   LIG    1        0.614  -1.809   1.440  0.00  0.00    +0.124 A 
ATOM     17  O   LIG    1        0.692  -0.482   1.157  0.00  0.00    -0.486 OA
ENDBRANCH   1  13
BRANCH   4  18
ATOM     18  S   LIG    1       -0.955  -9.474   2.272  0.00  0.00    +0.099 S 
ATOM     19  O   LIG    1       -0.054 -10.535   2.562  0.00  0.00    -0.146 OA
ATOM     20  O   LIG    1       -1.586  -9.335   1.007  0.00  0.00    -0.146 OA
BRANCH  18  21
ATOM     21  C   LIG    1       -2.243  -9.566   3.470  0.00  0.00    +0.113 A 
ATOM     22  C   LIG    1       -2.010 -10.175   4.690  0.00  0.00    +0.032 A 
ATOM     23  C   LIG    1       -3.019 -10.249   5.630  0.00  0.00    +0.047 A 
ATOM     24  C   LIG    1       -4.267  -9.711   5.351  0.00  0.00    +0.120 A 
ATOM     25  C   LIG    1       -4.498  -9.101   4.127  0.00  0.00    +0.047 A 
ATOM     26  C   LIG    1       -3.485  -9.025   3.192  0.00  0.00    +0.032 A 
BRANCH  24  27
ATOM     27  O   LIG    1       -5.261  -9.783   6.275  0.00  0.00    -0.495 OA
ATOM     28  C   LIG    1       -6.520  -9.209   5.919  0.00  0.00    +0.277 C 
ENDBRANCH  24  27
ENDBRANCH  18  21
ENDBRANCH   4  18
TORSDOF 4
