REMARK  Name = ZINC00911797
REMARK                            x       y       z     vdW  Elec       q    Type
REMARK                         _______ _______ _______ _____ _____    ______ ____
ROOT
ATOM      1  C   LIG    1        3.863  -3.070  -0.055  0.00  0.00    +0.048 C 
ATOM      2  C   LIG    1        4.622  -1.768  -0.054  0.00  0.00    -0.002 A 
ATOM      3  C   LIG    1        6.004  -1.771  -0.067  0.00  0.00    +0.030 A 
ATOM      4  C   LIG    1        6.711  -0.570  -0.066  0.00  0.00    +0.025 A 
ATOM      5  C   LIG    1        6.040   0.634  -0.053  0.00  0.00    +0.029 A 
ATOM      6  C   LIG    1        4.653   0.654  -0.040  0.00  0.00    +0.067 A 
ATOM      7  N   LIG    1        3.710   1.667  -0.025  0.00  0.00    -0.338 N 
ATOM      8  H   LIG    1        3.895   2.650  -0.021  0.00  0.00    +0.167 HD
ATOM      9  C   LIG    1        2.478   1.072  -0.016  0.00  0.00    +0.139 A 
ATOM     10  N   LIG    1        2.614  -0.232  -0.019  0.00  0.00    -0.227 NA
ATOM     11  C   LIG    1        3.931  -0.553  -0.040  0.00  0.00    +0.094 A 
ENDROOT
BRANCH   9  12
ATOM     12  C   LIG    1        1.187   1.791   0.000  0.00  0.00    +0.017 A 
ATOM     13  C   LIG    1       -0.013   1.076   0.008  0.00  0.00    +0.013 A 
ATOM     14  C   LIG    1       -1.214   1.749   0.017  0.00  0.00    +0.023 A 
ATOM     15  C   LIG    1       -1.234   3.140   0.031  0.00  0.00    +0.025 A 
ATOM     16  C   LIG    1       -0.041   3.855   0.023  0.00  0.00    +0.023 A 
ATOM     17  C   LIG    1        1.164   3.188   0.008  0.00  0.00    +0.013 A 
BRANCH  15  18
ATOM     18  N   LIG    1       -2.451   3.818   0.046  0.00  0.00    -0.358 N 
ATOM     19  H   LIG    1       -3.284   3.320   0.051  0.00  0.00    +0.142 HD
ATOM     20  H   LIG    1       -2.466   4.788   0.051  0.00  0.00    +0.142 HD
ENDBRANCH  15  18
ENDBRANCH   9  12
BRANCH   3  21
ATOM     21  N   LIG    1        6.697  -2.986  -0.080  0.00  0.00    -0.358 N 
ATOM     22  H   LIG    1        6.208  -3.824  -0.080  0.00  0.00    +0.142 HD
ATOM     23  H   LIG    1        7.667  -2.991  -0.089  0.00  0.00    +0.142 HD
ENDBRANCH   3  21
TORSDOF 3
