REMARK  Name = ZINC00780132
REMARK                            x       y       z     vdW  Elec       q    Type
REMARK                         _______ _______ _______ _____ _____    ______ ____
ROOT
ATOM      1  C   LIG    1        2.779  -2.694   1.533  0.00  0.00    +0.000 A 
ATOM      2  C   LIG    1        3.056  -1.350   1.708  0.00  0.00    +0.002 A 
ATOM      3  C   LIG    1        2.187  -0.391   1.230  0.00  0.00    +0.024 A 
ATOM      4  C   LIG    1        1.024  -0.771   0.563  0.00  0.00    +0.043 A 
ATOM      5  C   LIG    1        0.754  -2.124   0.398  0.00  0.00    +0.015 A 
ATOM      6  C   LIG    1       -0.559  -2.209  -0.345  0.00  0.00    +0.175 C 
ATOM      7  C   LIG    1       -0.959  -0.763  -0.551  0.00  0.00    +0.257 C 
ATOM      8  O   LIG    1       -1.958  -0.365  -1.111  0.00  0.00    -0.272 OA
ATOM      9  N   LIG    1        0.002  -0.004   0.002  0.00  0.00    -0.264 N 
ATOM     10  C   LIG    1        1.623  -3.079   0.876  0.00  0.00    +0.009 A 
ENDROOT
BRANCH   6  11
ATOM     11  O   LIG    1       -0.384  -2.864  -1.602  0.00  0.00    -0.374 OA
ATOM     12  H   LIG    1       -1.184  -2.893  -2.145  0.00  0.00    +0.211 HD
ENDBRANCH   6  11
BRANCH   6  13
ATOM     13  C   LIG    1       -1.606  -2.939   0.498  0.00  0.00    +0.129 C 
BRANCH  13  14
ATOM     14  C   LIG    1       -2.929  -2.927  -0.222  0.00  0.00    +0.173 C 
ATOM     15  O   LIG    1       -3.026  -2.386  -1.305  0.00  0.00    -0.291 OA
BRANCH  14  16
ATOM     16  C   LIG    1       -4.057  -3.544   0.362  0.00  0.00    +0.055 A 
ATOM     17  C   LIG    1       -5.355  -3.645  -0.130  0.00  0.00    +0.019 A 
ATOM     18  C   LIG    1       -6.266  -4.306   0.651  0.00  0.00    +0.008 A 
ATOM     19  C   LIG    1       -5.869  -4.823   1.845  0.00  0.00    +0.046 A 
ATOM     20  S   LIG    1       -4.188  -4.405   1.919  0.00  0.00    -0.094 S 
ENDBRANCH  14  16
ENDBRANCH  13  14
ENDBRANCH   6  13
BRANCH   9  21
ATOM     21  C   LIG    1       -0.018   1.461   0.010  0.00  0.00    +0.148 C 
BRANCH  21  22
ATOM     22  C   LIG    1       -0.723   1.947   1.250  0.00  0.00    -0.030 A 
ATOM     23  C   LIG    1       -2.088   2.164   1.228  0.00  0.00    +0.006 A 
ATOM     24  C   LIG    1       -2.737   2.604   2.366  0.00  0.00    +0.020 A 
ATOM     25  C   LIG    1       -2.017   2.838   3.525  0.00  0.00    +0.041 A 
ATOM     26 CL   LIG    1       -2.830   3.398   4.953  0.00  0.00    -0.084 Cl
ATOM     27  C   LIG    1       -0.650   2.626   3.545  0.00  0.00    +0.020 A 
ATOM     28  C   LIG    1       -0.004   2.180   2.407  0.00  0.00    +0.006 A 
ENDBRANCH  21  22
ENDBRANCH   9  21
TORSDOF 6
