REMARK  Name = ZINC01189988
REMARK                            x       y       z     vdW  Elec       q    Type
REMARK                         _______ _______ _______ _____ _____    ______ ____
ROOT
ATOM      1  C   LIG    1        1.175   3.555   0.009  0.00  0.00    +0.028 C 
ATOM      2  C   LIG    1        2.340   4.244   0.104  0.00  0.00    +0.080 C 
ATOM      3  C   LIG    1        2.566   5.697   0.230  0.00  0.00    +0.261 C 
ATOM      4  N   LIG    1        3.825   6.097   0.305  0.00  0.00    -0.218 N 
ATOM      5  C   LIG    1        4.846   5.217   0.269  0.00  0.00    +0.286 C 
ATOM      6  O   LIG    1        6.040   5.443   0.328  0.00  0.00    -0.262 OA
ATOM      7  O   LIG    1        1.642   6.488   0.263  0.00  0.00    -0.269 OA
ATOM      8  S   LIG    1        4.022   3.640   0.120  0.00  0.00    -0.026 S 
ENDROOT
BRANCH   1  14
ATOM      9  C   LIG    1        0.014   1.367  -0.217  0.00  0.00    +0.011 A 
ATOM     10  C   LIG    1        0.038   0.022  -0.507  0.00  0.00    +0.046 A 
ATOM     11  C   LIG    1        1.229  -0.591  -0.878  0.00  0.00    +0.117 A 
ATOM     12  C   LIG    1        2.402   0.150  -0.960  0.00  0.00    +0.046 A 
ATOM     13  C   LIG    1        2.390   1.496  -0.673  0.00  0.00    +0.011 A 
ATOM     14  C   LIG    1        1.193   2.119  -0.298  0.00  0.00    -0.024 A 
BRANCH  11  15
ATOM     15  O   LIG    1        1.246  -1.919  -1.163  0.00  0.00    -0.507 OA
ATOM     16  H   LIG    1        1.079  -2.124  -2.093  0.00  0.00    +0.292 HD
ENDBRANCH  11  15
ENDBRANCH   1  14
BRANCH   4  17
ATOM     17  C   LIG    1        4.116   7.527   0.431  0.00  0.00    +0.237 C 
BRANCH  17  18
ATOM     18  C   LIG    1        4.167   7.903   1.890  0.00  0.00    +0.323 C 
ATOM     19  O   LIG    1        3.981   7.062   2.737  0.00  0.00    -0.249 OA
BRANCH  18  20
ATOM     20  O   LIG    1        4.421   9.171   2.247  0.00  0.00    -0.480 OA
ATOM     21  H   LIG    1        4.566   9.823   1.590  0.00  0.00    +0.295 HD
ENDBRANCH  18  20
ENDBRANCH  17  18
ENDBRANCH   4  17
TORSDOF 5
