REMARK  Name = ZINC00847256
REMARK                            x       y       z     vdW  Elec       q    Type
REMARK                         _______ _______ _______ _____ _____    ______ ____
ROOT
ATOM      1  C   LIG    1       -1.727   7.390   3.106  0.00  0.00    +0.061 C 
ATOM      2  C   LIG    1       -1.421   6.950   1.697  0.00  0.00    +0.021 C 
ATOM      3  C   LIG    1       -0.224   6.390   1.422  0.00  0.00    +0.078 C 
ATOM      4  C   LIG    1        0.043   5.962  -0.007  0.00  0.00    +0.143 C 
ATOM      5  N   LIG    1       -1.034   6.194  -0.985  0.00  0.00    -0.288 N 
ATOM      6  H   LIG    1       -0.923   5.941  -1.915  0.00  0.00    +0.151 HD
ATOM      7  C   LIG    1       -2.177   6.765  -0.557  0.00  0.00    +0.304 C 
ATOM      8  O   LIG    1       -3.072   6.960  -1.356  0.00  0.00    -0.252 OA
ATOM      9  N   LIG    1       -2.359   7.125   0.720  0.00  0.00    -0.273 N 
ATOM     10  H   LIG    1       -3.205   7.532   0.965  0.00  0.00    +0.156 HD
ENDROOT
BRANCH   4  11
ATOM     11  C   LIG    1        0.354   4.488  -0.000  0.00  0.00    -0.022 A 
ATOM     12  C   LIG    1        1.667   4.059  -0.063  0.00  0.00    +0.008 A 
ATOM     13  C   LIG    1        1.953   2.706  -0.056  0.00  0.00    +0.033 A 
ATOM     14  C   LIG    1        0.926   1.783   0.013  0.00  0.00    +0.122 A 
ATOM     15  C   LIG    1       -0.387   2.212   0.070  0.00  0.00    +0.033 A 
ATOM     16  C   LIG    1       -0.672   3.565   0.069  0.00  0.00    +0.008 A 
BRANCH  14  17
ATOM     17  N   LIG    1        1.232   0.335   0.019  0.00  0.00    +0.006 N 
ATOM     18  O   LIG    1        2.389  -0.043  -0.036  0.00  0.00    -0.130 OA
BRANCH  17  19
ATOM     19  O   LIG    1        0.328  -0.478   0.080  0.00  0.00    -0.396 OA
ATOM     20  H   LIG    1       -0.562  -0.187   0.122  0.00  0.00    +0.329 HD
ENDBRANCH  17  19
ENDBRANCH  14  17
ENDBRANCH   4  11
BRANCH   3  21
ATOM     21  C   LIG    1        0.749   6.210   2.433  0.00  0.00    +0.339 C 
ATOM     22  O   LIG    1        0.560   6.662   3.546  0.00  0.00    -0.245 OA
BRANCH  21  23
ATOM     23  O   LIG    1        1.886   5.536   2.162  0.00  0.00    -0.458 OA
BRANCH  23  24
ATOM     24  C   LIG    1        2.825   5.391   3.230  0.00  0.00    +0.177 C 
ATOM     25  C   LIG    1        3.797   6.573   3.218  0.00  0.00    +0.044 C 
ATOM     26  C   LIG    1        4.801   6.418   4.362  0.00  0.00    +0.004 C 
ATOM     27  C   LIG    1        5.581   5.114   4.182  0.00  0.00    +0.000 C 
ATOM     28  C   LIG    1        4.609   3.932   4.194  0.00  0.00    +0.004 C 
ATOM     29  C   LIG    1        3.604   4.087   3.051  0.00  0.00    +0.044 C 
ENDBRANCH  23  24
ENDBRANCH  21  23
ENDBRANCH   3  21
TORSDOF 6
