REMARK  Name = ZINC00902197
REMARK                            x       y       z     vdW  Elec       q    Type
REMARK                         _______ _______ _______ _____ _____    ______ ____
ROOT
ATOM      1  C   LIG    1       -1.437  -0.434  -0.133  0.00  0.00    -0.032 C 
ATOM      2  C   LIG    1       -1.895  -0.903  -1.320  0.00  0.00    -0.007 C 
ENDROOT
BRANCH   1   3
ATOM      3  C   LIG    1       -2.346  -0.333   1.018  0.00  0.00    -0.021 A 
ATOM      4  C   LIG    1       -3.433   0.547   0.980  0.00  0.00    +0.008 A 
ATOM      5  C   LIG    1       -4.281   0.637   2.063  0.00  0.00    +0.001 A 
ATOM      6  C   LIG    1       -4.060  -0.142   3.186  0.00  0.00    +0.000 A 
ATOM      7  C   LIG    1       -2.987  -1.015   3.232  0.00  0.00    +0.001 A 
ATOM      8  C   LIG    1       -2.133  -1.121   2.154  0.00  0.00    +0.008 A 
ENDBRANCH   1   3
BRANCH   2   9
ATOM      9  C   LIG    1       -3.268  -1.443  -1.422  0.00  0.00    -0.017 A 
ATOM     10  C   LIG    1       -3.620  -2.597  -0.720  0.00  0.00    +0.012 A 
ATOM     11  C   LIG    1       -4.901  -3.097  -0.817  0.00  0.00    +0.046 A 
ATOM     12  C   LIG    1       -5.841  -2.454  -1.613  0.00  0.00    +0.120 A 
ATOM     13  C   LIG    1       -5.494  -1.306  -2.312  0.00  0.00    +0.046 A 
ATOM     14  C   LIG    1       -4.217  -0.796  -2.216  0.00  0.00    +0.012 A 
BRANCH  12  15
ATOM     15  O   LIG    1       -7.102  -2.951  -1.706  0.00  0.00    -0.494 OA
BRANCH  15  16
ATOM     16  C   LIG    1       -8.018  -2.240  -2.542  0.00  0.00    +0.210 C 
BRANCH  16  17
ATOM     17  C   LIG    1       -9.377  -2.943  -2.522  0.00  0.00    -0.038 C 
BRANCH  17  18
ATOM     18  N   LIG    1       -9.947  -2.870  -1.170  0.00  0.00    +0.378 N 
ATOM     19  H   LIG    1       -9.288  -3.249  -0.506  0.00  0.00    -0.082 HD
ATOM     20  C   LIG    1      -11.193  -3.646  -1.121  0.00  0.00    -0.096 C 
ATOM     21  C   LIG    1      -10.229  -1.468  -0.833  0.00  0.00    -0.096 C 
ENDBRANCH  17  18
ENDBRANCH  16  17
ENDBRANCH  15  16
ENDBRANCH  12  15
ENDBRANCH   2   9
BRANCH   2  22
ATOM     22  C   LIG    1       -1.021  -0.875  -2.514  0.00  0.00    -0.017 A 
ATOM     23  C   LIG    1       -0.593   0.346  -3.038  0.00  0.00    +0.012 A 
ATOM     24  C   LIG    1        0.222   0.369  -4.150  0.00  0.00    +0.046 A 
ATOM     25  C   LIG    1        0.616  -0.821  -4.748  0.00  0.00    +0.117 A 
ATOM     26  C   LIG    1        0.192  -2.037  -4.229  0.00  0.00    +0.046 A 
ATOM     27  C   LIG    1       -0.617  -2.068  -3.114  0.00  0.00    +0.012 A 
BRANCH  25  28
ATOM     28  O   LIG    1        1.419  -0.794  -5.844  0.00  0.00    -0.507 OA
ATOM     29  H   LIG    1        2.364  -0.813  -5.640  0.00  0.00    +0.292 HD
ENDBRANCH  25  28
ENDBRANCH   2  22
BRANCH   1  31
ATOM     30  C   LIG    1        0.825  -1.191   0.546  0.00  0.00    +0.009 C 
ATOM     31  C   LIG    1        0.005  -0.018   0.007  0.00  0.00    +0.033 C 
ENDBRANCH   1  31
TORSDOF 9
