REMARK  Name = ZINC01410329
REMARK                            x       y       z     vdW  Elec       q    Type
REMARK                         _______ _______ _______ _____ _____    ______ ____
ROOT
ATOM      1  C   LIG    1       -3.487   2.852   0.049  0.00  0.00    +0.001 A 
ATOM      2  C   LIG    1       -3.036   4.158   0.051  0.00  0.00    +0.001 A 
ATOM      3  C   LIG    1       -1.677   4.433   0.040  0.00  0.00    +0.014 A 
ATOM      4  C   LIG    1       -0.766   3.389   0.027  0.00  0.00    +0.049 A 
ATOM      5  C   LIG    1       -1.226   2.057   0.018  0.00  0.00    +0.049 A 
ATOM      6  C   LIG    1       -0.014   1.210   0.009  0.00  0.00    +0.254 C 
ATOM      7  N   LIG    1        1.067   2.010   0.003  0.00  0.00    -0.222 N 
ATOM      8  O   LIG    1        0.002  -0.004   0.002  0.00  0.00    -0.270 OA
ATOM      9  C   LIG    1        0.710   3.307   0.013  0.00  0.00    +0.254 C 
ATOM     10  O   LIG    1        1.472   4.253   0.010  0.00  0.00    -0.270 OA
ATOM     11  C   LIG    1       -2.587   1.798   0.036  0.00  0.00    +0.014 A 
ENDROOT
BRANCH   7  12
ATOM     12  C   LIG    1        2.452   1.532  -0.012  0.00  0.00    +0.170 C 
ATOM     13  C   LIG    1        3.179   2.042   1.234  0.00  0.00    +0.034 C 
ATOM     14  C   LIG    1        4.679   1.770   1.066  0.00  0.00    +0.021 C 
ATOM     15  C   LIG    1        5.214   2.652  -0.063  0.00  0.00    +0.104 C 
ATOM     16  N   LIG    1        4.385   2.514  -1.254  0.00  0.00    -0.314 N 
ATOM     17  H   LIG    1        4.763   2.788  -2.105  0.00  0.00    +0.149 HD
ATOM     18  C   LIG    1        3.140   2.036  -1.248  0.00  0.00    +0.234 C 
ATOM     19  O   LIG    1        2.532   2.006  -2.297  0.00  0.00    -0.274 OA
ENDBRANCH   7  12
TORSDOF 1
