REMARK  Name = ZINC01383544
REMARK                            x       y       z     vdW  Elec       q    Type
REMARK                         _______ _______ _______ _____ _____    ______ ____
ROOT
ATOM      1  C   LIG    1        3.662   2.165  -0.022  0.00  0.00    +0.094 A 
ATOM      2  C   LIG    1        4.884   1.483  -0.144  0.00  0.00    +0.044 A 
ATOM      3  C   LIG    1        6.044   2.243  -0.146  0.00  0.00    +0.052 A 
ATOM      4  C   LIG    1        5.932   3.642  -0.027  0.00  0.00    +0.105 A 
ATOM      5  C   LIG    1        7.297   4.226  -0.055  0.00  0.00    +0.014 A 
ATOM      6  C   LIG    1        7.743   5.538   0.026  0.00  0.00    +0.011 A 
ATOM      7  C   LIG    1        9.101   5.814  -0.026  0.00  0.00    +0.001 A 
ATOM      8  C   LIG    1       10.018   4.790  -0.159  0.00  0.00    +0.001 A 
ATOM      9  C   LIG    1        9.590   3.475  -0.241  0.00  0.00    +0.012 A 
ATOM     10  C   LIG    1        8.232   3.185  -0.190  0.00  0.00    +0.032 A 
ATOM     11  N   LIG    1        4.730   4.189   0.083  0.00  0.00    -0.148 NA
ATOM     12  C   LIG    1        7.483   1.907  -0.252  0.00  0.00    +0.196 C 
ATOM     13  O   LIG    1        7.959   0.796  -0.368  0.00  0.00    -0.287 OA
ATOM     14  N   LIG    1        3.655   3.488   0.080  0.00  0.00    -0.149 NA
ENDROOT
BRANCH   1  18
ATOM     15  C   LIG    1        0.002  -0.004   0.002  0.00  0.00    +0.162 A 
ATOM     16  C   LIG    1        1.211  -0.684  -0.014  0.00  0.00    +0.050 A 
ATOM     17  C   LIG    1        2.399   0.017  -0.021  0.00  0.00    +0.014 A 
ATOM     18  C   LIG    1        2.387   1.412  -0.013  0.00  0.00    +0.006 A 
ATOM     19  C   LIG    1        1.171   2.096   0.002  0.00  0.00    +0.059 A 
ATOM     20  C   LIG    1       -0.017   1.389   0.010  0.00  0.00    +0.162 A 
BRANCH  15  22
ATOM     21  C   LIG    1       -1.074  -2.124   0.001  0.00  0.00    +0.277 C 
ATOM     22  O   LIG    1       -1.166  -0.698   0.009  0.00  0.00    -0.491 OA
ENDBRANCH  15  22
BRANCH  20  23
ATOM     23  O   LIG    1       -1.204   2.053   0.019  0.00  0.00    -0.491 OA
ATOM     24  C   LIG    1       -1.148   3.481   0.026  0.00  0.00    +0.277 C 
ENDBRANCH  20  23
ENDBRANCH   1  18
TORSDOF 3
