REMARK  Name = ZINC00752467
REMARK                            x       y       z     vdW  Elec       q    Type
REMARK                         _______ _______ _______ _____ _____    ______ ____
ROOT
ATOM      1  C   LIG    1        2.425  -3.506   1.926  0.00  0.00    +0.034 C 
ATOM      2  C   LIG    1        2.606  -2.449   0.835  0.00  0.00    +0.083 C 
ATOM      3  C   LIG    1        1.256  -1.921   0.408  0.00  0.00    +0.115 C 
ATOM      4  C   LIG    1        0.168  -2.712   0.446  0.00  0.00    +0.046 C 
ATOM      5  C   LIG    1        0.246  -4.045   0.892  0.00  0.00    +0.164 C 
ATOM      6  O   LIG    1       -0.754  -4.733   0.893  0.00  0.00    -0.292 OA
ATOM      7  C   LIG    1       -1.178  -2.187   0.009  0.00  0.00    +0.101 C 
ATOM      8  C   LIG    1       -1.171  -0.683   0.015  0.00  0.00    +0.098 C 
ATOM      9  C   LIG    1        0.002  -0.004   0.002  0.00  0.00    +0.198 C 
ATOM     10  O   LIG    1        1.181  -0.645  -0.013  0.00  0.00    -0.445 OA
ATOM     11  C   LIG    1        1.547  -4.632   1.369  0.00  0.00    +0.088 C 
ENDROOT
BRANCH   1  15
ATOM     12  C   LIG    1        6.234  -5.077   3.051  0.00  0.00    +0.000 A 
ATOM     13  C   LIG    1        5.440  -4.449   3.992  0.00  0.00    +0.000 A 
ATOM     14  C   LIG    1        4.207  -3.940   3.628  0.00  0.00    +0.004 A 
ATOM     15  C   LIG    1        3.768  -4.060   2.323  0.00  0.00    -0.043 A 
ATOM     16  C   LIG    1        4.560  -4.693   1.383  0.00  0.00    +0.004 A 
ATOM     17  C   LIG    1        5.795  -5.198   1.746  0.00  0.00    +0.000 A 
ENDBRANCH   1  15
BRANCH   7  18
ATOM     18  C   LIG    1       -1.482  -2.684  -1.381  0.00  0.00    -0.034 A 
ATOM     19  C   LIG    1       -0.644  -2.358  -2.430  0.00  0.00    +0.007 A 
ATOM     20  C   LIG    1       -0.919  -2.818  -3.704  0.00  0.00    +0.033 A 
ATOM     21  C   LIG    1       -2.040  -3.596  -3.930  0.00  0.00    +0.122 A 
ATOM     22  C   LIG    1       -2.881  -3.917  -2.882  0.00  0.00    +0.033 A 
ATOM     23  C   LIG    1       -2.602  -3.462  -1.607  0.00  0.00    +0.007 A 
BRANCH  21  24
ATOM     24  N   LIG    1       -2.338  -4.084  -5.296  0.00  0.00    +0.006 N 
ATOM     25  O   LIG    1       -3.325  -4.769  -5.495  0.00  0.00    -0.130 OA
BRANCH  24  26
ATOM     26  O   LIG    1       -1.597  -3.800  -6.219  0.00  0.00    -0.396 OA
ATOM     27  H   LIG    1       -0.838  -3.273  -6.066  0.00  0.00    +0.329 HD
ENDBRANCH  24  26
ENDBRANCH  21  24
ENDBRANCH   7  18
BRANCH   9  28
ATOM     28  N   LIG    1       -0.017   1.369   0.010  0.00  0.00    -0.328 N 
ATOM     29  H   LIG    1       -0.863   1.842   0.016  0.00  0.00    +0.145 HD
ATOM     30  H   LIG    1        0.817   1.865   0.004  0.00  0.00    +0.145 HD
ENDBRANCH   9  28
BRANCH   8  31
ATOM     31  C   LIG    1       -2.409   0.035   0.030  0.00  0.00    +0.101 C 
ATOM     32  N   LIG    1       -3.392   0.605   0.042  0.00  0.00    -0.191 NA
ENDBRANCH   8  31
TORSDOF 6
