REMARK  Name = ZINC00851724
REMARK                            x       y       z     vdW  Elec       q    Type
REMARK                         _______ _______ _______ _____ _____    ______ ____
ROOT
ATOM      1  C   LIG    1        3.617   6.811  -0.213  0.00  0.00    +0.101 C 
ATOM      2  C   LIG    1        4.477   6.651   1.062  0.00  0.00    +0.110 C 
ATOM      3  C   LIG    1        4.100   7.841   1.916  0.00  0.00    +0.217 C 
ATOM      4  N   LIG    1        3.470   8.764   1.169  0.00  0.00    -0.298 N 
ATOM      5  O   LIG    1        4.333   7.947   3.101  0.00  0.00    -0.276 OA
ATOM      6  C   LIG    1        3.357   8.333  -0.230  0.00  0.00    +0.121 C 
ENDROOT
BRANCH   4   7
ATOM      7  C   LIG    1        2.962  10.038   1.686  0.00  0.00    +0.076 C 
ATOM      8  C   LIG    1        4.119  10.850   2.269  0.00  0.00    +0.022 C 
ATOM      9  C   LIG    1        3.588  12.180   2.808  0.00  0.00    +0.002 C 
ATOM     10  C   LIG    1        2.552  11.910   3.902  0.00  0.00    +0.000 C 
ATOM     11  C   LIG    1        1.395  11.097   3.318  0.00  0.00    +0.002 C 
ATOM     12  C   LIG    1        1.926   9.768   2.779  0.00  0.00    +0.022 C 
ENDBRANCH   4   7
BRANCH   1  15
ATOM     13  N   LIG    1        2.344   4.700   0.004  0.00  0.00    -0.285 N 
ATOM     14  H   LIG    1        3.191   4.231   0.061  0.00  0.00    +0.155 HD
ATOM     15  C   LIG    1        2.325   6.045  -0.091  0.00  0.00    +0.222 C 
ATOM     16  O   LIG    1        1.267   6.638  -0.078  0.00  0.00    -0.275 OA
BRANCH  13  19
ATOM     17  C   LIG    1       -1.162   3.804   0.657  0.00  0.00    +0.003 A 
ATOM     18  C   LIG    1        0.023   4.515   0.643  0.00  0.00    +0.023 A 
ATOM     19  C   LIG    1        1.143   3.982   0.020  0.00  0.00    +0.034 A 
ATOM     20  C   LIG    1        1.070   2.736  -0.588  0.00  0.00    +0.038 A 
ATOM     21  C   LIG    1       -0.118   2.030  -0.570  0.00  0.00    +0.020 A 
ATOM     22 BR   LIG    1       -0.220   0.332  -1.397  0.00  0.00    -0.050 Br
ATOM     23  C   LIG    1       -1.234   2.566   0.048  0.00  0.00    +0.015 A 
ENDBRANCH  13  19
ENDBRANCH   1  15
TORSDOF 3
