REMARK  Name = ZINC01403973
REMARK                            x       y       z     vdW  Elec       q    Type
REMARK                         _______ _______ _______ _____ _____    ______ ____
ROOT
ATOM      1  C   LIG    1        0.155  -0.998   3.797  0.00  0.00    +0.040 A 
ATOM      2  C   LIG    1        0.054  -0.560   5.138  0.00  0.00    +0.044 A 
ATOM      3  C   LIG    1        0.289  -1.645   5.929  0.00  0.00    +0.102 A 
ATOM      4  N   LIG    1        0.530  -2.731   5.117  0.00  0.00    -0.356 N 
ATOM      5  H   LIG    1        0.725  -3.630   5.424  0.00  0.00    +0.165 HD
ATOM      6  C   LIG    1        0.445  -2.351   3.833  0.00  0.00    +0.095 A 
ENDROOT
BRANCH   3   7
ATOM      7  C   LIG    1        0.286  -1.653   7.398  0.00  0.00    +0.261 C 
ATOM      8  N   LIG    1        0.534  -2.797   8.065  0.00  0.00    -0.303 N 
ATOM      9  H   LIG    1        0.715  -3.615   7.576  0.00  0.00    +0.150 HD
ATOM     10  O   LIG    1        0.059  -0.628   8.012  0.00  0.00    -0.269 OA
BRANCH   8  11
ATOM     11  C   LIG    1        0.531  -2.806   9.530  0.00  0.00    +0.179 C 
BRANCH  11  12
ATOM     12  C   LIG    1        0.834  -4.197  10.025  0.00  0.00    +0.122 A 
ATOM     13  C   LIG    1        2.058  -4.688  10.292  0.00  0.00    +0.046 A 
ATOM     14  C   LIG    1        1.878  -6.021  10.727  0.00  0.00    +0.041 A 
ATOM     15  C   LIG    1        0.555  -6.265  10.700  0.00  0.00    +0.195 A 
ATOM     16  O   LIG    1       -0.073  -5.155  10.280  0.00  0.00    -0.466 OA
ENDBRANCH  11  12
ENDBRANCH   8  11
ENDBRANCH   3   7
BRANCH   1  17
ATOM     17  C   LIG    1       -0.022  -0.172   2.591  0.00  0.00    +0.195 C 
ATOM     18  O   LIG    1       -0.212   1.025   2.696  0.00  0.00    -0.287 OA
BRANCH  17  25
ATOM     19  C   LIG    1        2.535  -0.928   1.466  0.00  0.00    +0.044 C 
ATOM     20  C   LIG    1        1.259  -1.166   0.699  0.00  0.00    -0.040 A 
ATOM     21  C   LIG    1        1.302  -1.754  -0.548  0.00  0.00    +0.004 A 
ATOM     22  C   LIG    1        0.131  -1.973  -1.253  0.00  0.00    +0.000 A 
ATOM     23  C   LIG    1       -1.089  -1.605  -0.713  0.00  0.00    +0.001 A 
ATOM     24  C   LIG    1       -1.145  -1.016   0.532  0.00  0.00    +0.012 A 
ATOM     25  C   LIG    1        0.032  -0.797   1.252  0.00  0.00    +0.025 A 
ENDBRANCH  17  25
ENDBRANCH   1  17
TORSDOF 5
