REMARK  Name = ZINC01085771
REMARK                            x       y       z     vdW  Elec       q    Type
REMARK                         _______ _______ _______ _____ _____    ______ ____
ROOT
ATOM      1  C   LIG    1        4.960   0.161  -0.046  0.00  0.00    +0.105 C 
ATOM      2  C   LIG    1        5.287   0.556   1.363  0.00  0.00    +0.029 C 
ATOM      3  C   LIG    1        6.256   1.754   1.425  0.00  0.00    +0.033 C 
ATOM      4  C   LIG    1        6.985   1.561   2.739  0.00  0.00    -0.030 C 
ATOM      5  C   LIG    1        6.853   0.334   3.170  0.00  0.00    -0.023 C 
ATOM      6  C   LIG    1        6.042  -0.479   2.192  0.00  0.00    +0.049 C 
ATOM      7  C   LIG    1        6.993  -1.309   1.377  0.00  0.00    -0.018 A 
ATOM      8  C   LIG    1        7.947  -2.063   2.045  0.00  0.00    +0.034 A 
ATOM      9  C   LIG    1        8.850  -2.833   1.340  0.00  0.00    +0.105 A 
ATOM     10  C   LIG    1        8.811  -2.857  -0.042  0.00  0.00    +0.030 A 
ATOM     11  C   LIG    1        7.863  -2.114  -0.715  0.00  0.00    +0.025 A 
ATOM     12  C   LIG    1        6.948  -1.342  -0.005  0.00  0.00    +0.031 A 
ATOM     13  N   LIG    1        5.974  -0.646  -0.693  0.00  0.00    -0.336 N 
ATOM     14  H   LIG    1        5.993  -0.679  -1.662  0.00  0.00    +0.147 HD
ENDROOT
BRANCH   1  23
ATOM     15  C   LIG    1       -0.016   1.357   0.009  0.00  0.00    +0.001 A 
ATOM     16  C   LIG    1        1.169   2.091   0.002  0.00  0.00    +0.001 A 
ATOM     17  C   LIG    1        2.378   1.468  -0.013  0.00  0.00    +0.009 A 
ATOM     18  C   LIG    1        2.438   0.064  -0.021  0.00  0.00    -0.013 A 
ATOM     19  C   LIG    1        1.233  -0.683  -0.013  0.00  0.00    -0.018 A 
ATOM     20  C   LIG    1        1.292  -2.087  -0.021  0.00  0.00    +0.008 A 
ATOM     21  C   LIG    1        2.502  -2.709  -0.036  0.00  0.00    +0.001 A 
ATOM     22  C   LIG    1        3.687  -1.976  -0.043  0.00  0.00    +0.006 A 
ATOM     23  C   LIG    1        3.668  -0.615  -0.037  0.00  0.00    -0.019 A 
ATOM     24  C   LIG    1        0.002  -0.004   0.002  0.00  0.00    +0.008 A 
ENDBRANCH   1  23
BRANCH   9  25
ATOM     25  S   LIG    1       10.056  -3.785   2.203  0.00  0.00    +0.056 S 
ATOM     26  O   LIG    1       10.233  -3.165   3.469  0.00  0.00    -0.153 OA
ATOM     27  O   LIG    1       11.133  -3.993   1.299  0.00  0.00    -0.153 OA
BRANCH  25  28
ATOM     28  N   LIG    1        9.389  -5.272   2.494  0.00  0.00    -0.204 NA
ATOM     29  H   LIG    1        9.900  -5.950   2.963  0.00  0.00    +0.144 HD
ATOM     30  H   LIG    1        8.487  -5.466   2.194  0.00  0.00    +0.144 HD
ENDBRANCH  25  28
ENDBRANCH   9  25
TORSDOF 3
