REMARK  Name = ZINC00985828
REMARK                            x       y       z     vdW  Elec       q    Type
REMARK                         _______ _______ _______ _____ _____    ______ ____
ROOT
ATOM      1  C   LIG    1       -1.503  -6.659  -0.442  0.00  0.00    +0.100 A 
ATOM      2  C   LIG    1       -0.600  -7.370   0.354  0.00  0.00    +0.054 A 
ATOM      3  C   LIG    1       -0.713  -8.694   0.041  0.00  0.00    +0.223 A 
ATOM      4  O   LIG    1        0.035  -9.654   0.639  0.00  0.00    -0.423 OA
ATOM      5  C   LIG    1        1.099  -9.255   1.367  0.00  0.00    +0.200 C 
ATOM      6  C   LIG    1        1.311  -7.976   1.748  0.00  0.00    +0.098 C 
ATOM      7  N   LIG    1       -1.655  -8.810  -0.918  0.00  0.00    -0.246 N 
ATOM      8  H   LIG    1       -1.946  -9.636  -1.334  0.00  0.00    +0.192 HD
ATOM      9  C   LIG    1        0.361  -6.859   1.396  0.00  0.00    +0.102 C 
ATOM     10  N   LIG    1       -2.142  -7.525  -1.205  0.00  0.00    -0.171 NA
ENDROOT
BRANCH   1  14
ATOM     11  C   LIG    1       -2.098  -2.448  -0.400  0.00  0.00    -0.047 A 
ATOM     12  C   LIG    1       -0.816  -2.963  -0.338  0.00  0.00    +0.004 A 
ATOM     13  C   LIG    1       -0.617  -4.329  -0.352  0.00  0.00    +0.010 A 
ATOM     14  C   LIG    1       -1.711  -5.189  -0.427  0.00  0.00    +0.003 A 
ATOM     15  C   LIG    1       -3.000  -4.665  -0.488  0.00  0.00    +0.010 A 
ATOM     16  C   LIG    1       -3.188  -3.297  -0.469  0.00  0.00    +0.004 A 
BRANCH  11  17
ATOM     17  C   LIG    1       -2.309  -0.956  -0.384  0.00  0.00    +0.038 C 
BRANCH  17  19
ATOM     18  C   LIG    1       -2.542   1.051   1.085  0.00  0.00    +0.007 C 
ATOM     19  C   LIG    1       -2.453  -0.476   1.061  0.00  0.00    -0.013 C 
ATOM     20  C   LIG    1       -3.723  -1.071   1.672  0.00  0.00    +0.007 C 
ENDBRANCH  17  19
ENDBRANCH  11  17
ENDBRANCH   1  14
BRANCH   9  21
ATOM     21  C   LIG    1       -0.400  -6.431   2.624  0.00  0.00    -0.034 A 
ATOM     22  C   LIG    1       -1.238  -7.327   3.263  0.00  0.00    +0.006 A 
ATOM     23  C   LIG    1       -1.938  -6.938   4.388  0.00  0.00    +0.023 A 
ATOM     24  C   LIG    1       -1.798  -5.646   4.879  0.00  0.00    +0.029 A 
ATOM     25  C   LIG    1       -0.955  -4.749   4.235  0.00  0.00    +0.023 A 
ATOM     26  C   LIG    1       -0.255  -5.146   3.113  0.00  0.00    +0.006 A 
BRANCH  24  27
ATOM     27  N   LIG    1       -2.504  -5.250   6.018  0.00  0.00    -0.336 N 
ATOM     28  C   LIG    1       -2.355  -3.887   6.534  0.00  0.00    +0.129 C 
ATOM     29  C   LIG    1       -3.393  -6.197   6.695  0.00  0.00    +0.129 C 
ENDBRANCH  24  27
ENDBRANCH   9  21
BRANCH   5  30
ATOM     30  N   LIG    1        2.019 -10.203   1.740  0.00  0.00    -0.328 N 
ATOM     31  H   LIG    1        2.794  -9.946   2.264  0.00  0.00    +0.145 HD
ATOM     32  H   LIG    1        1.894 -11.129   1.481  0.00  0.00    +0.145 HD
ENDBRANCH   5  30
BRANCH   6  33
ATOM     33  C   LIG    1        2.480  -7.670   2.517  0.00  0.00    +0.101 C 
ATOM     34  N   LIG    1        3.408  -7.428   3.126  0.00  0.00    -0.191 NA
ENDBRANCH   6  33
TORSDOF 7
