REMARK  Name = ZINC00895132
REMARK                            x       y       z     vdW  Elec       q    Type
REMARK                         _______ _______ _______ _____ _____    ______ ____
ROOT
ATOM      1  C   LIG    1       -1.413  -2.041   0.005  0.00  0.00    +0.305 C 
ATOM      2  O   LIG    1       -0.349  -2.636  -0.009  0.00  0.00    -0.251 OA
ENDROOT
BRANCH   1   3
ATOM      3  O   LIG    1       -2.460  -2.664   0.011  0.00  0.00    -0.481 OA
ATOM      4  H   LIG    1       -3.278  -2.207   0.021  0.00  0.00    +0.295 HD
ENDBRANCH   1   3
BRANCH   1   5
ATOM      5  C   LIG    1       -1.433  -0.534   0.013  0.00  0.00    +0.120 C 
BRANCH   5   7
ATOM      6  C   LIG    1       -0.019   1.526   0.010  0.00  0.00    +0.004 C 
ATOM      7  C   LIG    1        0.002  -0.004   0.002  0.00  0.00    +0.008 C 
ENDBRANCH   5   7
ENDBRANCH   1   5
TORSDOF 3
