REMARK  Name = ZINC00795230
REMARK                            x       y       z     vdW  Elec       q    Type
REMARK                         _______ _______ _______ _____ _____    ______ ____
ROOT
ATOM      1  C   LIG    1        3.192  -0.675   1.471  0.00  0.00    +0.195 A 
ATOM      2  C   LIG    1        3.118  -2.048   1.641  0.00  0.00    +0.274 A 
ATOM      3  N   LIG    1        4.260  -2.689   1.759  0.00  0.00    -0.153 NA
ATOM      4  S   LIG    1        5.405  -1.473   1.644  0.00  0.00    +0.121 S 
ATOM      5  N   LIG    1        4.399  -0.151   1.440  0.00  0.00    -0.172 NA
ENDROOT
BRANCH   1   9
ATOM      6  C   LIG    1        0.507   2.462   0.987  0.00  0.00    +0.003 C 
ATOM      7  C   LIG    1        1.241   2.203   2.304  0.00  0.00    +0.019 C 
ATOM      8  C   LIG    1        1.388   0.693   2.514  0.00  0.00    +0.106 C 
ATOM      9  N   LIG    1        2.043   0.113   1.334  0.00  0.00    -0.310 N 
ATOM     10  C   LIG    1        1.470   0.376   0.007  0.00  0.00    +0.106 C 
ATOM     11  C   LIG    1        1.323   1.890  -0.175  0.00  0.00    +0.019 C 
ENDBRANCH   1   9
BRANCH   2  12
ATOM     12  O   LIG    1        1.925  -2.699   1.683  0.00  0.00    -0.388 OA
BRANCH  12  13
ATOM     13  C   LIG    1        1.940  -4.035   1.851  0.00  0.00    +0.410 C 
ATOM     14  N   LIG    1        0.781  -4.721   1.900  0.00  0.00    -0.263 N 
ATOM     15  C   LIG    1       -0.513  -4.033   1.765  0.00  0.00    +0.139 C 
ATOM     16  C   LIG    1       -1.338  -4.760   0.696  0.00  0.00    +0.179 C 
ATOM     17  O   LIG    1       -1.390  -6.154   1.009  0.00  0.00    -0.377 OA
ATOM     18  C   LIG    1       -0.116  -6.803   1.004  0.00  0.00    +0.179 C 
ATOM     19  C   LIG    1        0.771  -6.181   2.082  0.00  0.00    +0.139 C 
ATOM     20  O   LIG    1        2.998  -4.622   1.960  0.00  0.00    -0.226 OA
ENDBRANCH  12  13
ENDBRANCH   2  12
TORSDOF 3
