REMARK  Name = ZINC01043118
REMARK                            x       y       z     vdW  Elec       q    Type
REMARK                         _______ _______ _______ _____ _____    ______ ____
ROOT
ATOM      1  C   LIG    1       -0.721   7.346   0.036  0.00  0.00    +0.192 A 
ATOM      2  N   LIG    1       -2.058   7.606   0.072  0.00  0.00    -0.186 NA
ATOM      3  C   LIG    1       -2.951   6.594   0.076  0.00  0.00    +0.235 A 
ATOM      4  C   LIG    1       -2.468   5.262   0.020  0.00  0.00    +0.139 A 
ATOM      5  C   LIG    1       -1.071   5.057   0.000  0.00  0.00    +0.103 A 
ATOM      6  N   LIG    1       -0.252   6.115   0.009  0.00  0.00    -0.220 NA
ENDROOT
BRANCH   5   7
ATOM      7  C   LIG    1       -0.523   3.695  -0.029  0.00  0.00    +0.039 A 
ATOM      8  C   LIG    1        0.801   3.287  -0.052  0.00  0.00    +0.018 A 
ATOM      9  C   LIG    1        1.038   1.934  -0.078  0.00  0.00    +0.008 A 
ATOM     10  C   LIG    1       -0.015   1.077  -0.082  0.00  0.00    +0.046 A 
ATOM     11  S   LIG    1       -1.387   2.135  -0.055  0.00  0.00    -0.095 S 
ENDBRANCH   5   7
BRANCH   4  12
ATOM     12  C   LIG    1       -3.374   4.153  -0.000  0.00  0.00    +0.107 C 
ATOM     13  N   LIG    1       -4.092   3.273  -0.016  0.00  0.00    -0.191 NA
ENDBRANCH   4  12
BRANCH   3  14
ATOM     14  O   LIG    1       -4.148   6.821   0.099  0.00  0.00    -0.491 OA
ATOM     15  H   LIG    1       -4.651   5.957   0.098  0.00  0.00    +0.294 HD
ENDBRANCH   3  14
BRANCH   1  16
ATOM     16  S   LIG    1        0.413   8.694   0.024  0.00  0.00    -0.078 S 
BRANCH  16  17
ATOM     17  C   LIG    1        1.980   7.788  -0.001  0.00  0.00    +0.157 C 
BRANCH  17  18
ATOM     18  C   LIG    1        3.126   8.766  -0.014  0.00  0.00    +0.173 C 
ATOM     19  O   LIG    1        2.906   9.958  -0.008  0.00  0.00    -0.291 OA
BRANCH  18  23
ATOM     20  C   LIG    1        8.025   9.684  -0.080  0.00  0.00    +0.045 C 
ATOM     21  C   LIG    1        6.875   8.711  -0.067  0.00  0.00    -0.031 A 
ATOM     22  C   LIG    1        5.579   9.179  -0.048  0.00  0.00    +0.016 A 
ATOM     23  C   LIG    1        4.512   8.274  -0.035  0.00  0.00    +0.019 A 
ATOM     24  C   LIG    1        4.770   6.899  -0.037  0.00  0.00    +0.013 A 
ATOM     25  C   LIG    1        6.071   6.445  -0.063  0.00  0.00    +0.021 A 
ATOM     26  C   LIG    1        7.123   7.348  -0.075  0.00  0.00    +0.044 A 
ATOM     27 CL   LIG    1        8.759   6.767  -0.099  0.00  0.00    -0.083 Cl
ENDBRANCH  18  23
ENDBRANCH  17  18
ENDBRANCH  16  17
ENDBRANCH   1  16
TORSDOF 7
