REMARK  Name = ZINC00897234
REMARK                            x       y       z     vdW  Elec       q    Type
REMARK                         _______ _______ _______ _____ _____    ______ ____
ROOT
ATOM      1  C   LIG    1       -0.017   1.376   0.010  0.00  0.00    +0.047 A 
ATOM      2  C   LIG    1        1.178   2.094   0.002  0.00  0.00    +0.057 A 
ATOM      3  C   LIG    1        2.381   1.400  -0.004  0.00  0.00    +0.128 A 
ATOM      4  S   LIG    1        3.904   2.296   0.030  0.00  0.00    +0.062 S 
ATOM      5  N   LIG    1        3.468   3.884  -0.238  0.00  0.00    -0.167 NA
ATOM      6  H   LIG    1        3.346   4.009  -1.243  0.00  0.00    +0.150 HD
ATOM      7  C   LIG    1        2.229   4.335   0.427  0.00  0.00    +0.192 C 
ATOM      8  O   LIG    1        4.401   2.220   1.360  0.00  0.00    -0.153 OA
ATOM      9  O   LIG    1        4.659   1.876  -1.098  0.00  0.00    -0.153 OA
ATOM     10  C   LIG    1        2.396   0.021  -0.021  0.00  0.00    +0.060 A 
ATOM     11  C   LIG    1        1.207  -0.685  -0.018  0.00  0.00    +0.125 A 
ATOM     12  N   LIG    1        1.125   3.485  -0.012  0.00  0.00    -0.324 N 
ATOM     13  H   LIG    1        0.315   3.911  -0.331  0.00  0.00    +0.148 HD
ATOM     14  C   LIG    1        0.002  -0.004   0.002  0.00  0.00    +0.069 A 
ATOM     15 CL   LIG    1       -1.491  -0.889   0.017  0.00  0.00    -0.081 Cl
ENDROOT
BRANCH   7  16
ATOM     16  C   LIG    1        1.943   5.790   0.049  0.00  0.00    +0.207 C 
ATOM     17 CL   LIG    1        1.744   5.918  -1.738  0.00  0.00    -0.101 Cl
ATOM     18 CL   LIG    1        3.319   6.829   0.577  0.00  0.00    -0.101 Cl
ENDBRANCH   7  16
BRANCH  11  19
ATOM     19  S   LIG    1        1.226  -2.447  -0.037  0.00  0.00    +0.057 S 
ATOM     20  O   LIG    1        2.591  -2.839  -0.028  0.00  0.00    -0.153 OA
ATOM     21  O   LIG    1        0.324  -2.851  -1.059  0.00  0.00    -0.153 OA
BRANCH  19  22
ATOM     22  N   LIG    1        0.577  -2.960   1.397  0.00  0.00    -0.203 NA
ATOM     23  H   LIG    1        0.498  -3.909   1.582  0.00  0.00    +0.144 HD
ATOM     24  H   LIG    1        0.275  -2.311   2.052  0.00  0.00    +0.144 HD
ENDBRANCH  19  22
ENDBRANCH  11  19
TORSDOF 3
