REMARK  Name = ZINC00953335
REMARK                            x       y       z     vdW  Elec       q    Type
REMARK                         _______ _______ _______ _____ _____    ______ ____
ROOT
ATOM      1  N   LIG    1        0.153 -10.274   2.434  0.00  0.00    -0.285 N 
ATOM      2  H   LIG    1        0.234 -10.574   3.353  0.00  0.00    +0.155 HD
ATOM      3  C   LIG    1        0.065 -11.177   1.436  0.00  0.00    +0.220 C 
ATOM      4  O   LIG    1        0.059 -10.806   0.282  0.00  0.00    -0.275 OA
ENDROOT
BRANCH   1   8
ATOM      5  C   LIG    1        0.075  -6.198   1.569  0.00  0.00    +0.007 A 
ATOM      6  C   LIG    1       -0.663  -7.092   0.791  0.00  0.00    +0.012 A 
ATOM      7  C   LIG    1       -0.635  -8.439   1.079  0.00  0.00    +0.024 A 
ATOM      8  C   LIG    1        0.127  -8.908   2.144  0.00  0.00    +0.033 A 
ATOM      9  C   LIG    1        0.863  -8.020   2.921  0.00  0.00    +0.024 A 
ATOM     10  C   LIG    1        0.844  -6.673   2.634  0.00  0.00    +0.012 A 
BRANCH   5  18
ATOM     11  C   LIG    1       -0.122   1.474  -0.118  0.00  0.00    +0.044 C 
ATOM     12  C   LIG    1        0.106   0.089   0.432  0.00  0.00    -0.049 A 
ATOM     13  C   LIG    1        0.940  -0.102   1.525  0.00  0.00    +0.005 A 
ATOM     14  C   LIG    1        1.166  -1.338   2.044  0.00  0.00    +0.029 A 
ATOM     15  C   LIG    1        0.554  -2.484   1.481  0.00  0.00    +0.079 A 
ATOM     16  C   LIG    1       -0.290  -2.256   0.368  0.00  0.00    +0.040 A 
ATOM     17  S   LIG    1       -0.845  -3.897  -0.028  0.00  0.00    -0.067 S 
ATOM     18  C   LIG    1        0.047  -4.753   1.263  0.00  0.00    +0.109 A 
ATOM     19  N   LIG    1        0.672  -3.768   1.871  0.00  0.00    -0.239 NA
ATOM     20  C   LIG    1       -0.516  -1.002  -0.144  0.00  0.00    +0.020 A 
ENDBRANCH   5  18
ENDBRANCH   1   8
BRANCH   3  21
ATOM     21  C   LIG    1       -0.027 -12.646   1.756  0.00  0.00    +0.078 C 
ATOM     22  C   LIG    1        1.217 -13.077   2.537  0.00  0.00    +0.030 C 
ATOM     23  C   LIG    1        1.104 -14.563   2.890  0.00  0.00    +0.110 C 
ATOM     24  N   LIG    1        0.873 -15.326   1.656  0.00  0.00    -0.176 NA
ATOM     25  C   LIG    1       -0.244 -14.937   0.784  0.00  0.00    +0.110 C 
ATOM     26  C   LIG    1       -0.116 -13.447   0.455  0.00  0.00    +0.030 C 
BRANCH  24  27
ATOM     27  S   LIG    1        1.852 -16.600   1.255  0.00  0.00    +0.067 S 
ATOM     28  O   LIG    1        3.089 -16.386   1.920  0.00  0.00    -0.152 OA
ATOM     29  O   LIG    1        1.761 -16.754  -0.154  0.00  0.00    -0.152 OA
BRANCH  27  30
ATOM     30  C   LIG    1        1.142 -18.047   1.967  0.00  0.00    +0.143 A 
ATOM     31  C   LIG    1        0.240 -18.907   1.433  0.00  0.00    +0.036 A 
ATOM     32  C   LIG    1       -0.180 -19.989   2.183  0.00  0.00    +0.010 A 
ATOM     33  C   LIG    1        0.321 -20.158   3.431  0.00  0.00    +0.047 A 
ATOM     34  S   LIG    1        1.429 -18.766   3.576  0.00  0.00    -0.077 S 
ENDBRANCH  27  30
ENDBRANCH  24  27
ENDBRANCH   3  21
TORSDOF 5
