REMARK  Name = ZINC00897408
REMARK                            x       y       z     vdW  Elec       q    Type
REMARK                         _______ _______ _______ _____ _____    ______ ____
ROOT
ATOM      1  C   LIG    1       -1.411  -0.528   0.012  0.00  0.00    +0.250 C 
ATOM      2  N   LIG    1       -2.090  -0.657  -1.144  0.00  0.00    -0.283 N 
ATOM      3  H   LIG    1       -1.697  -0.347  -1.975  0.00  0.00    +0.155 HD
ATOM      4  O   LIG    1       -1.935  -0.838   1.061  0.00  0.00    -0.272 OA
ENDROOT
BRANCH   2   5
ATOM      5  C   LIG    1       -3.360  -1.237  -1.147  0.00  0.00    +0.034 A 
ATOM      6  C   LIG    1       -4.222  -1.024  -0.076  0.00  0.00    +0.024 A 
ATOM      7  C   LIG    1       -5.475  -1.594  -0.075  0.00  0.00    +0.021 A 
ATOM      8  C   LIG    1       -5.880  -2.389  -1.152  0.00  0.00    +0.064 A 
ATOM      9  C   LIG    1       -5.011  -2.601  -2.225  0.00  0.00    +0.074 A 
ATOM     10  C   LIG    1       -3.761  -2.022  -2.222  0.00  0.00    +0.037 A 
BRANCH   9  11
ATOM     11  C   LIG    1       -5.443  -3.457  -3.388  0.00  0.00    +0.419 C 
ATOM     12  F   LIG    1       -6.581  -2.899  -3.980  0.00  0.00    -0.166 F 
ATOM     13  F   LIG    1       -5.739  -4.746  -2.933  0.00  0.00    -0.166 F 
ATOM     14  F   LIG    1       -4.411  -3.520  -4.330  0.00  0.00    -0.166 F 
ENDBRANCH   9  11
BRANCH   8  15
ATOM     15  C   LIG    1       -7.183  -2.984  -1.154  0.00  0.00    +0.100 C 
ATOM     16  N   LIG    1       -8.216  -3.456  -1.156  0.00  0.00    -0.191 NA
ENDBRANCH   8  15
ENDBRANCH   2   5
BRANCH   1  18
ATOM     17  C   LIG    1       -0.029   1.532   0.019  0.00  0.00    +0.053 C 
ATOM     18  C   LIG    1        0.000   0.002   0.002  0.00  0.00    +0.158 C 
BRANCH  18  19
ATOM     19  O   LIG    1        0.670  -0.449  -1.177  0.00  0.00    -0.378 OA
ATOM     20  H   LIG    1        0.726  -1.411  -1.254  0.00  0.00    +0.211 HD
ENDBRANCH  18  19
BRANCH  18  21
ATOM     21  C   LIG    1        0.745  -0.507   1.238  0.00  0.00    +0.215 C 
BRANCH  21  22
ATOM     22  S   LIG    1        2.393   0.248   1.304  0.00  0.00    +0.000 S 
ATOM     23  O   LIG    1        2.283   1.642   1.557  0.00  0.00    -0.169 OA
ATOM     24  O   LIG    1        3.195  -0.234   0.235  0.00  0.00    -0.169 OA
BRANCH  22  25
ATOM     25  C   LIG    1        3.137  -0.415   2.758  0.00  0.00    +0.088 A 
ATOM     26  C   LIG    1        2.981   0.232   3.970  0.00  0.00    +0.030 A 
ATOM     27  C   LIG    1        3.563  -0.288   5.110  0.00  0.00    +0.040 A 
ATOM     28  C   LIG    1        4.303  -1.456   5.039  0.00  0.00    +0.124 A 
ATOM     29  F   LIG    1        4.873  -1.964   6.153  0.00  0.00    -0.205 F 
ATOM     30  C   LIG    1        4.458  -2.103   3.825  0.00  0.00    +0.040 A 
ATOM     31  C   LIG    1        3.870  -1.585   2.686  0.00  0.00    +0.030 A 
ENDBRANCH  22  25
ENDBRANCH  21  22
ENDBRANCH  18  21
ENDBRANCH   1  18
TORSDOF 8
