REMARK  Name = ZINC00896090
REMARK                            x       y       z     vdW  Elec       q    Type
REMARK                         _______ _______ _______ _____ _____    ______ ____
ROOT
ATOM      1  CA  LIG    1        2.210  -0.086   1.169  0.00  0.00    +0.036 C 
ENDROOT
BRANCH   1   2
ATOM      2  N   LIG    1        2.857  -0.752   0.030  0.00  0.00    +0.387 N 
ATOM      3  H1  LIG    1        2.802  -1.752   0.151  0.00  0.00    -0.089 HD
ATOM      4  H2  LIG    1        3.825  -0.472  -0.018  0.00  0.00    -0.089 HD
ATOM      5  H3  LIG    1        2.388  -0.490  -0.824  0.00  0.00    -0.089 HD
ENDBRANCH   1   2
BRANCH   1   6
ATOM      6  C   LIG    1        2.910  -0.477   2.444  0.00  0.00    +0.290 C 
ATOM      7  O   LIG    1        3.736  -1.374   2.435  0.00  0.00    -0.253 OA
BRANCH   6   8
ATOM      8  OXT LIG    1        2.651   0.102   3.485  0.00  0.00    -0.482 OA
ATOM      9  HXT LIG    1        2.016   0.792   3.491  0.00  0.00    +0.295 HD
ENDBRANCH   6   8
ENDBRANCH   1   6
BRANCH   1  10
ATOM     10  C   LIG    1        0.742  -0.511   1.242  0.00  0.00    +0.009 C 
BRANCH  10  12
ATOM     11  C   LIG    1       -0.019   1.526   0.010  0.00  0.00    +0.019 C 
ATOM     12  C   LIG    1        0.002  -0.004   0.002  0.00  0.00    +0.093 C 
BRANCH  12  13
ATOM     13  C   LIG    1       -1.412  -0.526   0.013  0.00  0.00    +0.308 C 
ATOM     14  O   LIG    1       -2.175  -0.236  -0.893  0.00  0.00    -0.251 OA
BRANCH  13  15
ATOM     15  O   LIG    1       -1.792  -1.237   0.927  0.00  0.00    -0.480 OA
ATOM     16  H   LIG    1       -1.206  -1.459   1.623  0.00  0.00    +0.295 HD
ENDBRANCH  13  15
ENDBRANCH  12  13
ENDBRANCH  10  12
ENDBRANCH   1  10
TORSDOF 7
