REMARK  Name = ZINC00846685
REMARK                            x       y       z     vdW  Elec       q    Type
REMARK                         _______ _______ _______ _____ _____    ______ ____
ROOT
ATOM      1  C   LIG    1       -0.103  -6.352  -1.200  0.00  0.00    +0.164 C 
ENDROOT
BRANCH   1   4
ATOM      2  N   LIG    1        0.100  -4.183  -0.028  0.00  0.00    -0.284 N 
ATOM      3  H   LIG    1        0.194  -4.674   0.803  0.00  0.00    +0.155 HD
ATOM      4  C   LIG    1       -0.013  -4.847  -1.195  0.00  0.00    +0.238 C 
ATOM      5  O   LIG    1       -0.044  -4.235  -2.242  0.00  0.00    -0.273 OA
BRANCH   2  10
ATOM      6  C   LIG    1        0.031   1.490   0.023  0.00  0.00    +0.044 C 
ATOM      7  C   LIG    1        0.049  -0.017   0.009  0.00  0.00    -0.050 A 
ATOM      8  C   LIG    1        0.637  -0.691  -1.046  0.00  0.00    +0.005 A 
ATOM      9  C   LIG    1        0.655  -2.071  -1.062  0.00  0.00    +0.024 A 
ATOM     10  C   LIG    1        0.084  -2.784  -0.015  0.00  0.00    +0.036 A 
ATOM     11  C   LIG    1       -0.505  -2.105   1.043  0.00  0.00    -0.029 A 
ATOM     12  C   LIG    1       -1.127  -2.874   2.180  0.00  0.00    +0.045 C 
ATOM     13  C   LIG    1       -0.516  -0.723   1.055  0.00  0.00    +0.008 A 
ENDBRANCH   2  10
ENDBRANCH   1   4
BRANCH   1  14
ATOM     14  N   LIG    1       -0.219  -6.830  -2.580  0.00  0.00    -0.300 N 
ATOM     15  H   LIG    1        0.123  -6.291  -3.310  0.00  0.00    +0.150 HD
ATOM     16  C   LIG    1       -0.801  -8.018  -2.834  0.00  0.00    +0.246 C 
ATOM     17  O   LIG    1       -1.230  -8.694  -1.919  0.00  0.00    -0.270 OA
BRANCH  16  18
ATOM     18  C   LIG    1       -0.918  -8.500  -4.224  0.00  0.00    +0.058 A 
ATOM     19  C   LIG    1       -0.326  -7.784  -5.268  0.00  0.00    +0.015 A 
ATOM     20  C   LIG    1       -0.439  -8.239  -6.563  0.00  0.00    +0.001 A 
ATOM     21  C   LIG    1       -1.137  -9.404  -6.838  0.00  0.00    +0.002 A 
ATOM     22  C   LIG    1       -1.727 -10.122  -5.817  0.00  0.00    +0.024 A 
ATOM     23  C   LIG    1       -1.620  -9.682  -4.505  0.00  0.00    +0.046 A 
BRANCH  23  24
ATOM     24  N   LIG    1       -2.209 -10.407  -3.473  0.00  0.00    -0.281 N 
ATOM     25  H   LIG    1       -2.461  -9.961  -2.649  0.00  0.00    +0.155 HD
ATOM     26  C   LIG    1       -2.432 -11.728  -3.619  0.00  0.00    +0.248 C 
ATOM     27  O   LIG    1       -2.025 -12.307  -4.609  0.00  0.00    -0.270 OA
BRANCH  26  28
ATOM     28  C   LIG    1       -3.168 -12.472  -2.579  0.00  0.00    +0.037 A 
ATOM     29  C   LIG    1       -3.640 -11.807  -1.444  0.00  0.00    +0.016 A 
ATOM     30  C   LIG    1       -4.327 -12.505  -0.476  0.00  0.00    +0.046 A 
ATOM     31  C   LIG    1       -4.550 -13.869  -0.626  0.00  0.00    +0.120 A 
ATOM     32  C   LIG    1       -4.082 -14.534  -1.754  0.00  0.00    +0.046 A 
ATOM     33  C   LIG    1       -3.399 -13.842  -2.729  0.00  0.00    +0.016 A 
BRANCH  31  34
ATOM     34  O   LIG    1       -5.227 -14.553   0.330  0.00  0.00    -0.495 OA
ATOM     35  C   LIG    1       -5.421 -15.952   0.113  0.00  0.00    +0.277 C 
ENDBRANCH  31  34
ENDBRANCH  26  28
ENDBRANCH  23  24
ENDBRANCH  16  18
ENDBRANCH   1  14
BRANCH   1  36
ATOM     36  C   LIG    1        1.157  -6.940  -0.561  0.00  0.00    +0.067 C 
BRANCH  36  37
ATOM     37  C   LIG    1        1.014  -8.436  -0.454  0.00  0.00    -0.045 A 
ATOM     38  C   LIG    1        0.452  -8.996   0.678  0.00  0.00    +0.007 A 
ATOM     39  C   LIG    1        0.320 -10.368   0.779  0.00  0.00    +0.045 A 
ATOM     40  C   LIG    1        0.753 -11.183  -0.257  0.00  0.00    +0.117 A 
ATOM     41  C   LIG    1        1.317 -10.618  -1.392  0.00  0.00    +0.045 A 
ATOM     42  C   LIG    1        1.441  -9.246  -1.490  0.00  0.00    +0.007 A 
BRANCH  40  43
ATOM     43  O   LIG    1        0.625 -12.533  -0.160  0.00  0.00    -0.507 OA
ATOM     44  H   LIG    1       -0.211 -12.874  -0.505  0.00  0.00    +0.292 HD
ENDBRANCH  40  43
ENDBRANCH  36  37
ENDBRANCH   1  36
TORSDOF 10
