REMARK  Name = ZINC01017885
REMARK                            x       y       z     vdW  Elec       q    Type
REMARK                         _______ _______ _______ _____ _____    ______ ____
ROOT
ATOM      1  C   LIG    1        3.645  -0.792   0.021  0.00  0.00    +0.007 A 
ATOM      2  C   LIG    1        4.012  -1.574  -1.083  0.00  0.00    +0.036 A 
ATOM      3  C   LIG    1        5.272  -2.130  -1.139  0.00  0.00    +0.053 A 
ATOM      4  N   LIG    1        6.174  -1.932  -0.130  0.00  0.00    -0.321 N 
ATOM      5  H   LIG    1        7.054  -2.334  -0.192  0.00  0.00    +0.169 HD
ATOM      6  C   LIG    1        5.861  -1.188   0.947  0.00  0.00    +0.267 A 
ATOM      7  O   LIG    1        6.682  -1.027   1.833  0.00  0.00    -0.266 OA
ATOM      8  C   LIG    1        4.583  -0.589   1.052  0.00  0.00    +0.124 A 
ENDROOT
BRANCH   3   9
ATOM      9  C   LIG    1        5.654  -2.951  -2.303  0.00  0.00    +0.041 A 
ATOM     10  C   LIG    1        5.571  -2.422  -3.594  0.00  0.00    +0.028 A 
ATOM     11  C   LIG    1        5.929  -3.195  -4.678  0.00  0.00    +0.019 A 
ATOM     12 BR   LIG    1        5.816  -2.478  -6.424  0.00  0.00    -0.050 Br
ATOM     13  C   LIG    1        6.370  -4.496  -4.493  0.00  0.00    +0.019 A 
ATOM     14  C   LIG    1        6.456  -5.031  -3.223  0.00  0.00    +0.047 A 
ATOM     15  C   LIG    1        6.106  -4.266  -2.121  0.00  0.00    +0.126 A 
BRANCH  15  16
ATOM     16  O   LIG    1        6.196  -4.789  -0.872  0.00  0.00    -0.506 OA
ATOM     17  H   LIG    1        5.958  -4.270  -0.129  0.00  0.00    +0.292 HD
ENDBRANCH  15  16
ENDBRANCH   3   9
BRANCH   1  21
ATOM     18  C   LIG    1       -0.225   0.947   0.246  0.00  0.00    +0.000 A 
ATOM     19  C   LIG    1        0.890   1.759   0.147  0.00  0.00    +0.001 A 
ATOM     20  C   LIG    1        2.150   1.201   0.073  0.00  0.00    +0.008 A 
ATOM     21  C   LIG    1        2.297  -0.187   0.100  0.00  0.00    -0.016 A 
ATOM     22  C   LIG    1        1.168  -1.001   0.201  0.00  0.00    +0.008 A 
ATOM     23  C   LIG    1       -0.086  -0.430   0.273  0.00  0.00    +0.001 A 
ENDBRANCH   1  21
BRANCH   8  24
ATOM     24  C   LIG    1        4.246   0.208   2.193  0.00  0.00    +0.105 C 
ATOM     25  N   LIG    1        3.979   0.840   3.098  0.00  0.00    -0.191 NA
ENDBRANCH   8  24
TORSDOF 4
