REMARK  Name = ZINC01427777
REMARK                            x       y       z     vdW  Elec       q    Type
REMARK                         _______ _______ _______ _____ _____    ______ ____
ROOT
ATOM      1  C   LIG    1       -2.013   4.286   1.242  0.00  0.00    +0.099 A 
ATOM      2  C   LIG    1       -0.814   5.013   1.339  0.00  0.00    +0.128 A 
ATOM      3  N   LIG    1       -0.123   5.341   0.278  0.00  0.00    -0.250 NA
ATOM      4  C   LIG    1       -0.516   5.004  -0.959  0.00  0.00    +0.114 A 
ATOM      5  C   LIG    1       -1.710   4.272  -1.153  0.00  0.00    +0.026 A 
ATOM      6  C   LIG    1       -2.115   3.929  -2.450  0.00  0.00    +0.012 A 
ATOM      7  C   LIG    1       -1.352   4.293  -3.519  0.00  0.00    +0.004 A 
ATOM      8  C   LIG    1       -0.175   5.014  -3.342  0.00  0.00    +0.048 A 
ATOM      9  C   LIG    1        0.250   5.372  -2.082  0.00  0.00    +0.146 A 
ATOM     10  C   LIG    1       -2.481   3.901  -0.024  0.00  0.00    +0.056 A 
ENDROOT
BRANCH   1  11
ATOM     11  C   LIG    1       -2.767   3.931   2.453  0.00  0.00    +0.342 C 
ATOM     12  O   LIG    1       -3.750   3.221   2.370  0.00  0.00    -0.245 OA
BRANCH  11  13
ATOM     13  O   LIG    1       -2.369   4.394   3.655  0.00  0.00    -0.461 OA
BRANCH  13  15
ATOM     14  C   LIG    1       -2.428   4.449   6.089  0.00  0.00    +0.048 C 
ATOM     15  C   LIG    1       -3.091   3.912   4.819  0.00  0.00    +0.229 C 
ENDBRANCH  13  15
ENDBRANCH  11  13
ENDBRANCH   1  11
BRANCH   9  16
ATOM     16  O   LIG    1        1.401   6.076  -1.924  0.00  0.00    -0.493 OA
ATOM     17  C   LIG    1        2.124   6.413  -3.109  0.00  0.00    +0.277 C 
ENDBRANCH   9  16
BRANCH  10  18
ATOM     18  N   LIG    1       -3.651   3.187  -0.164  0.00  0.00    -0.313 N 
ATOM     19  H   LIG    1       -4.613   3.717  -0.235  0.00  0.00    +0.152 HD
BRANCH  18  20
ATOM     20  C   LIG    1       -3.616   1.791  -0.215  0.00  0.00    +0.031 A 
ATOM     21  C   LIG    1       -2.417   1.117  -0.022  0.00  0.00    +0.023 A 
ATOM     22  C   LIG    1       -2.387  -0.263  -0.069  0.00  0.00    +0.002 A 
ATOM     23  C   LIG    1       -3.547  -0.973  -0.318  0.00  0.00    +0.000 A 
ATOM     24  C   LIG    1       -4.742  -0.305  -0.517  0.00  0.00    +0.002 A 
ATOM     25  C   LIG    1       -4.780   1.075  -0.466  0.00  0.00    +0.023 A 
ENDBRANCH  18  20
ENDBRANCH  10  18
TORSDOF 6
