REMARK  Name = ZINC00856798
REMARK                            x       y       z     vdW  Elec       q    Type
REMARK                         _______ _______ _______ _____ _____    ______ ____
ROOT
ATOM      1  C   LIG    1       -0.918   1.529  -0.955  0.00  0.00    +0.027 C 
ENDROOT
BRANCH   1   2
ATOM      2  C   LIG    1       -0.015   0.968  -2.055  0.00  0.00    +0.027 C 
BRANCH   2   7
ATOM      3  C   LIG    1        3.817   2.885  -2.882  0.00  0.00    +0.041 C 
ATOM      4  C   LIG    1        3.761   1.369  -2.683  0.00  0.00    +0.064 C 
ATOM      5  C   LIG    1        4.705   0.689  -3.678  0.00  0.00    +0.041 C 
ATOM      6  C   LIG    1        2.331   0.876  -2.917  0.00  0.00    +0.038 C 
ATOM      7  C   LIG    1        1.403   1.515  -1.879  0.00  0.00    +0.001 C 
ATOM      8  C   LIG    1        1.913   1.175  -0.476  0.00  0.00    +0.032 C 
ATOM      9  C   LIG    1        3.360   1.657  -0.336  0.00  0.00    +0.161 C 
ATOM     10  O   LIG    1        4.163   1.048  -1.350  0.00  0.00    -0.374 OA
ENDBRANCH   2   7
BRANCH   2  11
ATOM     11  C   LIG    1       -0.549   1.381  -3.402  0.00  0.00    -0.002 A 
ATOM     12  C   LIG    1       -0.672   2.721  -3.716  0.00  0.00    +0.007 A 
ATOM     13  C   LIG    1       -1.158   3.100  -4.954  0.00  0.00    +0.001 A 
ATOM     14  C   LIG    1       -1.532   2.140  -5.877  0.00  0.00    +0.004 A 
ATOM     15  C   LIG    1       -1.415   0.799  -5.566  0.00  0.00    +0.046 A 
ATOM     16  C   LIG    1       -0.923   0.416  -4.326  0.00  0.00    +0.124 A 
BRANCH  16  17
ATOM     17  O   LIG    1       -0.808  -0.902  -4.017  0.00  0.00    -0.495 OA
ATOM     18  C   LIG    1       -1.212  -1.840  -5.017  0.00  0.00    +0.277 C 
ENDBRANCH  16  17
ENDBRANCH   2  11
ENDBRANCH   1   2
BRANCH   1  19
ATOM     19  C   LIG    1       -2.308   0.899  -1.065  0.00  0.00    +0.109 C 
BRANCH  19  20
ATOM     20  N   LIG    1       -3.134   1.338   0.063  0.00  0.00    -0.291 N 
ATOM     21  C   LIG    1       -3.091   0.667   1.231  0.00  0.00    +0.282 C 
ATOM     22  O   LIG    1       -3.843   0.974   2.137  0.00  0.00    -0.267 OA
BRANCH  21  23
ATOM     23  C   LIG    1       -2.137  -0.433   1.410  0.00  0.00    +0.189 A 
ATOM     24  C   LIG    1       -2.066  -1.265   2.491  0.00  0.00    +0.054 A 
ATOM     25  C   LIG    1       -1.017  -2.163   2.240  0.00  0.00    +0.042 A 
ATOM     26  C   LIG    1       -0.495  -1.839   1.036  0.00  0.00    +0.196 A 
ATOM     27  O   LIG    1       -1.173  -0.796   0.539  0.00  0.00    -0.458 OA
ENDBRANCH  21  23
BRANCH  20  28
ATOM     28  C   LIG    1       -4.006   2.506  -0.079  0.00  0.00    +0.143 C 
BRANCH  28  29
ATOM     29  C   LIG    1       -5.360   2.065  -0.573  0.00  0.00    -0.030 A 
ATOM     30  C   LIG    1       -5.614   2.005  -1.931  0.00  0.00    +0.009 A 
ATOM     31  C   LIG    1       -6.852   1.596  -2.386  0.00  0.00    +0.046 A 
ATOM     32  C   LIG    1       -7.845   1.255  -1.479  0.00  0.00    +0.120 A 
ATOM     33  C   LIG    1       -7.590   1.321  -0.117  0.00  0.00    +0.046 A 
ATOM     34  C   LIG    1       -6.348   1.726   0.333  0.00  0.00    +0.009 A 
BRANCH  32  35
ATOM     35  O   LIG    1       -9.066   0.856  -1.924  0.00  0.00    -0.495 OA
ATOM     36  C   LIG    1       -9.258   0.812  -3.339  0.00  0.00    +0.277 C 
ENDBRANCH  32  35
ENDBRANCH  28  29
ENDBRANCH  20  28
ENDBRANCH  19  20
ENDBRANCH   1  19
TORSDOF 10
