REMARK  Name = ZINC00968279
REMARK                            x       y       z     vdW  Elec       q    Type
REMARK                         _______ _______ _______ _____ _____    ______ ____
ROOT
ATOM      1  C   LIG    1        0.088  -4.689  -3.809  0.00  0.00    +0.276 C 
ENDROOT
BRANCH   1  10
ATOM      2  C   LIG    1       -0.018   1.503   0.010  0.00  0.00    +0.048 C 
ATOM      3  C   LIG    1        0.002  -0.004   0.002  0.00  0.00    -0.002 A 
ATOM      4  C   LIG    1        0.006  -0.689  -1.196  0.00  0.00    -0.002 A 
ATOM      5  C   LIG    1       -0.013   0.074  -2.496  0.00  0.00    +0.048 C 
ATOM      6  C   LIG    1        0.026  -2.079  -1.210  0.00  0.00    +0.128 A 
ATOM      7  C   LIG    1        0.045  -2.778  -0.015  0.00  0.00    +0.001 A 
ATOM      8  C   LIG    1        0.078  -4.285   0.012  0.00  0.00    +0.043 C 
ATOM      9  C   LIG    1       -0.357  -4.836  -1.348  0.00  0.00    +0.056 C 
ATOM     10  C   LIG    1        0.417  -4.088  -2.441  0.00  0.00    +0.142 C 
ATOM     11  C   LIG    1        1.920  -4.199  -2.176  0.00  0.00    +0.059 C 
ATOM     12  C   LIG    1        0.039  -2.091   1.186  0.00  0.00    -0.002 A 
ATOM     13  C   LIG    1        0.054  -2.852   2.487  0.00  0.00    +0.048 C 
ATOM     14  O   LIG    1        0.023  -2.715  -2.411  0.00  0.00    -0.482 OA
ATOM     15  C   LIG    1        0.023  -0.705   1.198  0.00  0.00    +0.123 A 
BRANCH  15  16
ATOM     16  O   LIG    1        0.022  -0.034   2.381  0.00  0.00    -0.506 OA
ATOM     17  H   LIG    1       -0.861   0.147   2.731  0.00  0.00    +0.292 HD
ENDBRANCH  15  16
ENDBRANCH   1  10
BRANCH   1  18
ATOM     18  O   LIG    1        0.897  -4.067  -4.809  0.00  0.00    -0.488 OA
BRANCH  18  19
ATOM     19  C   LIG    1        0.727  -4.490  -6.090  0.00  0.00    +0.121 A 
ATOM     20  C   LIG    1       -0.202  -5.478  -6.378  0.00  0.00    +0.046 A 
ATOM     21  C   LIG    1       -0.373  -5.906  -7.681  0.00  0.00    +0.007 A 
ATOM     22  C   LIG    1        0.382  -5.350  -8.696  0.00  0.00    -0.046 A 
ATOM     23  C   LIG    1        1.310  -4.365  -8.412  0.00  0.00    +0.007 A 
ATOM     24  C   LIG    1        1.480  -3.929  -7.112  0.00  0.00    +0.046 A 
BRANCH  22  25
ATOM     25  C   LIG    1        0.195  -5.818 -10.116  0.00  0.00    +0.059 C 
BRANCH  25  26
ATOM     26  C   LIG    1       -0.880  -4.968 -10.796  0.00  0.00    +0.146 C 
ATOM     27  C   LIG    1       -1.121  -5.421 -12.229  0.00  0.00    +0.234 C 
ATOM     28  N   LIG    1       -0.849  -4.522 -13.161  0.00  0.00    -0.246 N 
ATOM     29  H   LIG    1       -0.987  -4.767 -14.089  0.00  0.00    +0.158 HD
ATOM     30  C   LIG    1       -0.391  -3.287 -12.889  0.00  0.00    +0.279 C 
ATOM     31  O   LIG    1       -0.115  -2.399 -13.673  0.00  0.00    -0.263 OA
ATOM     32  O   LIG    1       -1.533  -6.529 -12.498  0.00  0.00    -0.274 OA
ATOM     33  S   LIG    1       -0.282  -3.253 -11.104  0.00  0.00    -0.054 S 
ENDBRANCH  25  26
ENDBRANCH  22  25
ENDBRANCH  18  19
ENDBRANCH   1  18
TORSDOF 6
