REMARK  Name = ZINC01001756
REMARK                            x       y       z     vdW  Elec       q    Type
REMARK                         _______ _______ _______ _____ _____    ______ ____
ROOT
ATOM      1  C   LIG    1       -5.238   2.068  -0.172  0.00  0.00    +0.136 A 
ATOM      2  C   LIG    1       -5.744   3.348  -0.224  0.00  0.00    +0.050 A 
ATOM      3  C   LIG    1       -4.656   4.221  -0.148  0.00  0.00    +0.050 A 
ATOM      4  C   LIG    1       -3.520   3.437  -0.053  0.00  0.00    +0.130 A 
ATOM      5  O   LIG    1       -3.898   2.142  -0.075  0.00  0.00    -0.455 OA
ENDROOT
BRANCH   4   6
ATOM      6  C   LIG    1       -2.194   3.910   0.044  0.00  0.00    +0.066 C 
ATOM      7  C   LIG    1       -1.153   3.027   0.053  0.00  0.00    +0.082 C 
ATOM      8  C   LIG    1       -1.158   1.615  -0.160  0.00  0.00    +0.258 C 
ATOM      9  N   LIG    1       -0.004   0.974  -0.094  0.00  0.00    -0.243 N 
ATOM     10  H   LIG    1        0.018   0.014  -0.232  0.00  0.00    +0.159 HD
ATOM     11  C   LIG    1        1.147   1.637   0.156  0.00  0.00    +0.283 C 
ATOM     12  O   LIG    1        2.278   1.196   0.242  0.00  0.00    -0.262 OA
ATOM     13  O   LIG    1       -2.194   1.019  -0.390  0.00  0.00    -0.269 OA
ATOM     14  S   LIG    1        0.588   3.325   0.329  0.00  0.00    -0.026 S 
ENDBRANCH   4   6
BRANCH   1  22
ATOM     15  C   LIG    1       -7.424   0.886  -0.322  0.00  0.00    +0.014 A 
ATOM     16  C   LIG    1       -8.160  -0.279  -0.373  0.00  0.00    +0.040 A 
ATOM     17  C   LIG    1       -7.523  -1.508  -0.312  0.00  0.00    +0.142 A 
ATOM     18  F   LIG    1       -8.251  -2.646  -0.357  0.00  0.00    -0.204 F 
ATOM     19  C   LIG    1       -6.141  -1.575  -0.205  0.00  0.00    +0.077 A 
ATOM     20 CL   LIG    1       -5.352  -3.119  -0.129  0.00  0.00    -0.081 Cl
ATOM     21  C   LIG    1       -5.394  -0.416  -0.160  0.00  0.00    +0.034 A 
ATOM     22  C   LIG    1       -6.032   0.826  -0.221  0.00  0.00    +0.019 A 
ENDBRANCH   1  22
TORSDOF 2
