REMARK  Name = ZINC00829773
REMARK                            x       y       z     vdW  Elec       q    Type
REMARK                         _______ _______ _______ _____ _____    ______ ____
ROOT
ATOM      1  N   LIG    1        2.570  -6.773   1.047  0.00  0.00    -0.194 N 
ENDROOT
BRANCH   1   2
ATOM      2  C   LIG    1        2.544  -7.228  -0.273  0.00  0.00    +0.052 A 
ATOM      3  C   LIG    1        3.424  -6.700  -1.209  0.00  0.00    +0.025 A 
ATOM      4  C   LIG    1        3.396  -7.153  -2.514  0.00  0.00    +0.005 A 
ATOM      5  C   LIG    1        2.492  -8.130  -2.889  0.00  0.00    -0.050 A 
ATOM      6  C   LIG    1        2.464  -8.621  -4.313  0.00  0.00    +0.044 C 
ATOM      7  C   LIG    1        1.615  -8.658  -1.960  0.00  0.00    +0.005 A 
ATOM      8  C   LIG    1        1.641  -8.214  -0.652  0.00  0.00    +0.025 A 
ENDBRANCH   1   2
BRANCH   1   9
ATOM      9  S   LIG    1        1.219  -6.086   1.713  0.00  0.00    +0.075 S 
ATOM     10  O   LIG    1        0.121  -6.478   0.900  0.00  0.00    -0.150 OA
ATOM     11  O   LIG    1        1.270  -6.356   3.107  0.00  0.00    -0.150 OA
BRANCH   9  15
ATOM     12  C   LIG    1        1.631  -1.600   1.250  0.00  0.00    +0.121 A 
ATOM     13  C   LIG    1        1.014  -2.347   0.257  0.00  0.00    +0.047 A 
ATOM     14  C   LIG    1        0.890  -3.715   0.401  0.00  0.00    +0.032 A 
ATOM     15  C   LIG    1        1.379  -4.340   1.532  0.00  0.00    +0.109 A 
ATOM     16  C   LIG    1        1.995  -3.598   2.523  0.00  0.00    +0.032 A 
ATOM     17  C   LIG    1        2.127  -2.230   2.382  0.00  0.00    +0.047 A 
BRANCH  12  18
ATOM     18  O   LIG    1        1.755  -0.254   1.111  0.00  0.00    -0.492 OA
BRANCH  18  20
ATOM     19  C   LIG    1        1.454   1.840  -0.059  0.00  0.00    +0.048 C 
ATOM     20  C   LIG    1        1.222   0.327  -0.081  0.00  0.00    +0.225 C 
ENDBRANCH  18  20
ENDBRANCH  12  18
ENDBRANCH   9  15
ENDBRANCH   1   9
BRANCH   1  21
ATOM     21  C   LIG    1        3.793  -6.904   1.843  0.00  0.00    +0.228 C 
BRANCH  21  22
ATOM     22  C   LIG    1        3.842  -8.275   2.467  0.00  0.00    +0.251 C 
ATOM     23  N   LIG    1        4.884  -8.623   3.247  0.00  0.00    -0.205 N 
ATOM     24  H   LIG    1        5.603  -7.991   3.407  0.00  0.00    +0.177 HD
ATOM     25  O   LIG    1        2.944  -9.065   2.266  0.00  0.00    -0.272 OA
BRANCH  23  26
ATOM     26  N   LIG    1        4.930  -9.897   3.827  0.00  0.00    -0.174 NA
ATOM     27  C   LIG    1        5.944 -10.236   4.586  0.00  0.00    +0.152 C 
ATOM     28  C   LIG    1        6.164 -11.530   5.273  0.00  0.00    +0.028 A 
ATOM     29  C   LIG    1        5.433 -12.712   5.335  0.00  0.00    +0.012 A 
ATOM     30  C   LIG    1        5.910 -13.773   6.078  0.00  0.00    +0.001 A 
ATOM     31  C   LIG    1        7.111 -13.661   6.758  0.00  0.00    +0.002 A 
ATOM     32  C   LIG    1        7.843 -12.492   6.702  0.00  0.00    +0.024 A 
ATOM     33  C   LIG    1        7.379 -11.412   5.959  0.00  0.00    +0.043 A 
ATOM     34  N   LIG    1        7.910 -10.146   5.740  0.00  0.00    -0.280 N 
ATOM     35  H   LIG    1        8.748  -9.832   6.114  0.00  0.00    +0.155 HD
ATOM     36  C   LIG    1        7.118  -9.413   4.939  0.00  0.00    +0.269 C 
ATOM     37  O   LIG    1        7.330  -8.272   4.572  0.00  0.00    -0.268 OA
ENDBRANCH  23  26
ENDBRANCH  21  22
ENDBRANCH   1  21
TORSDOF 8
