REMARK  Name = ZINC01047087
REMARK                            x       y       z     vdW  Elec       q    Type
REMARK                         _______ _______ _______ _____ _____    ______ ____
ROOT
ATOM      1  C   LIG    1        0.336  -2.769   2.442  0.00  0.00    +0.142 A 
ATOM      2  C   LIG    1       -0.906  -2.307   2.139  0.00  0.00    +0.075 A 
ATOM      3  C   LIG    1       -1.661  -2.291   3.329  0.00  0.00    +0.102 A 
ATOM      4  N   LIG    1       -0.895  -2.729   4.308  0.00  0.00    -0.164 NA
ATOM      5  N   LIG    1        0.362  -3.042   3.776  0.00  0.00    -0.217 N 
ENDROOT
BRANCH   5   6
ATOM      6  C   LIG    1        1.458  -3.543   4.492  0.00  0.00    +0.068 A 
ATOM      7  C   LIG    1        2.327  -4.444   3.892  0.00  0.00    +0.030 A 
ATOM      8  C   LIG    1        3.405  -4.938   4.599  0.00  0.00    +0.040 A 
ATOM      9  C   LIG    1        3.620  -4.535   5.906  0.00  0.00    +0.124 A 
ATOM     10  F   LIG    1        4.676  -5.019   6.597  0.00  0.00    -0.205 F 
ATOM     11  C   LIG    1        2.754  -3.636   6.507  0.00  0.00    +0.040 A 
ATOM     12  C   LIG    1        1.678  -3.136   5.801  0.00  0.00    +0.030 A 
ENDBRANCH   5   6
BRANCH   3  13
ATOM     13  C   LIG    1       -3.070  -1.858   3.457  0.00  0.00    +0.039 A 
ATOM     14  C   LIG    1       -3.860  -1.811   4.574  0.00  0.00    +0.018 A 
ATOM     15  C   LIG    1       -5.158  -1.366   4.448  0.00  0.00    +0.008 A 
ATOM     16  C   LIG    1       -5.613  -0.989   3.226  0.00  0.00    +0.046 A 
ATOM     17  S   LIG    1       -4.179  -1.253   2.196  0.00  0.00    -0.095 S 
ENDBRANCH   3  13
BRANCH   1  18
ATOM     18  N   LIG    1        1.389  -2.939   1.548  0.00  0.00    -0.199 N 
ATOM     19  H   LIG    1        2.208  -3.370   1.839  0.00  0.00    +0.175 HD
BRANCH  18  20
ATOM     20  S   LIG    1        1.245  -2.404  -0.013  0.00  0.00    +0.074 S 
ATOM     21  O   LIG    1        2.470  -2.714  -0.663  0.00  0.00    -0.150 OA
ATOM     22  O   LIG    1       -0.009  -2.872  -0.488  0.00  0.00    -0.150 OA
BRANCH  20  28
ATOM     23  C   LIG    1       -0.186   1.350   0.069  0.00  0.00    +0.005 A 
ATOM     24  C   LIG    1        0.965   2.113   0.139  0.00  0.00    +0.038 A 
ATOM     25  C   LIG    1        2.204   1.496   0.163  0.00  0.00    +0.125 A 
ATOM     26  F   LIG    1        3.329   2.240   0.231  0.00  0.00    -0.205 F 
ATOM     27  C   LIG    1        2.289   0.114   0.117  0.00  0.00    +0.067 A 
ATOM     28  C   LIG    1        1.137  -0.646   0.047  0.00  0.00    +0.111 A 
ATOM     29  C   LIG    1       -0.100  -0.029   0.023  0.00  0.00    +0.029 A 
ENDBRANCH  20  28
ENDBRANCH  18  20
ENDBRANCH   1  18
TORSDOF 5
