REMARK  Name = ZINC01326786
REMARK                            x       y       z     vdW  Elec       q    Type
REMARK                         _______ _______ _______ _____ _____    ______ ____
ROOT
ATOM      1  C   LIG    1       -3.561  -2.179   0.114  0.00  0.00    +0.033 A 
ATOM      2  C   LIG    1       -3.620  -0.791   0.116  0.00  0.00    +0.027 A 
ATOM      3  C   LIG    1       -4.838  -0.152   0.230  0.00  0.00    +0.047 A 
ATOM      4  C   LIG    1       -6.004  -0.896   0.342  0.00  0.00    +0.121 A 
ATOM      5  C   LIG    1       -5.946  -2.282   0.340  0.00  0.00    +0.047 A 
ATOM      6  C   LIG    1       -4.729  -2.922   0.221  0.00  0.00    +0.027 A 
ENDROOT
BRANCH   1   7
ATOM      7  N   LIG    1       -2.326  -2.827  -0.002  0.00  0.00    -0.299 N 
ATOM      8  H   LIG    1       -2.292  -3.791  -0.110  0.00  0.00    +0.154 HD
BRANCH   7  12
ATOM      9  C   LIG    1        1.895  -1.428  -2.075  0.00  0.00    +0.066 C 
ATOM     10  C   LIG    1        0.907  -1.391  -0.938  0.00  0.00    +0.045 A 
ATOM     11  C   LIG    1       -0.263  -2.143  -1.014  0.00  0.00    +0.067 A 
ATOM     12  C   LIG    1       -1.158  -2.097   0.038  0.00  0.00    +0.130 A 
ATOM     13  N   LIG    1       -0.863  -1.314   1.117  0.00  0.00    -0.182 N 
ATOM     14  C   LIG    1        0.298  -0.594   1.146  0.00  0.00    +0.255 A 
ATOM     15  N   LIG    1        0.321   0.066   2.299  0.00  0.00    -0.197 NA
ATOM     16  C   LIG    1       -0.776  -0.209   2.995  0.00  0.00    +0.247 A 
ATOM     17  N   LIG    1       -1.528  -1.044   2.320  0.00  0.00    -0.151 NA
ATOM     18  N   LIG    1        1.157  -0.652   0.123  0.00  0.00    -0.216 NA
ENDBRANCH   7  12
ENDBRANCH   1   7
BRANCH   4  19
ATOM     19  O   LIG    1       -7.204  -0.266   0.454  0.00  0.00    -0.487 OA
BRANCH  19  20
ATOM     20  C   LIG    1       -8.363  -1.094   0.566  0.00  0.00    +0.264 C 
BRANCH  20  21
ATOM     21  C   LIG    1       -9.591  -0.227   0.680  0.00  0.00    -0.010 A 
ATOM     22  C   LIG    1      -10.037   0.179   1.924  0.00  0.00    +0.007 A 
ATOM     23  C   LIG    1      -11.163   0.974   2.029  0.00  0.00    +0.000 A 
ATOM     24  C   LIG    1      -11.842   1.365   0.890  0.00  0.00    +0.000 A 
ATOM     25  C   LIG    1      -11.395   0.960  -0.354  0.00  0.00    +0.000 A 
ATOM     26  C   LIG    1      -10.266   0.168  -0.459  0.00  0.00    +0.007 A 
ENDBRANCH  20  21
ENDBRANCH  19  20
ENDBRANCH   4  19
TORSDOF 5
