REMARK  Name = ZINC00901012
REMARK                            x       y       z     vdW  Elec       q    Type
REMARK                         _______ _______ _______ _____ _____    ______ ____
ROOT
ATOM      1  CA  ASP A  1       -1.376  -0.512   0.012  0.00  0.00    +0.049 C 
ENDROOT
BRANCH   1   3
ATOM      2  C   ACE A  0       -0.018   1.465   0.010  0.00  0.00    -0.099 C 
ATOM      3  N   ASP A  1        0.002  -0.004   0.002  0.00  0.00    +0.386 N 
ATOM      4  H1  ASP A  1        0.490  -0.338   0.820  0.00  0.00    -0.085 HD
ATOM      5  H2  ASP A  1        0.474  -0.330  -0.828  0.00  0.00    -0.085 HD
ENDBRANCH   1   3
BRANCH   1   6
ATOM      6  C   ASP A  1       -2.067  -0.116  -1.267  0.00  0.00    +0.291 C 
ATOM      7  O   ASP A  1       -1.422   0.017  -2.292  0.00  0.00    -0.253 OA
BRANCH   6   8
ATOM      8  OXT ASP A  1       -3.272   0.071  -1.276  0.00  0.00    -0.482 OA
ATOM      9  HXT ASP A  1       -3.768  -0.031  -0.487  0.00  0.00    +0.295 HD
ENDBRANCH   6   8
ENDBRANCH   1   6
BRANCH   1  10
ATOM     10  CB  ASP A  1       -1.356  -2.038   0.130  0.00  0.00    +0.116 C 
BRANCH  10  11
ATOM     11  CG  ASP A  1       -0.776  -2.432   1.464  0.00  0.00    +0.304 C 
ATOM     12  OD1 ASP A  1       -0.412  -1.572   2.248  0.00  0.00    -0.251 OA
BRANCH  11  13
ATOM     13  OD2 ASP A  1       -0.670  -3.610   1.759  0.00  0.00    -0.481 OA
ATOM     14  HD2 ASP A  1       -0.950  -4.271   1.156  0.00  0.00    +0.295 HD
ENDBRANCH  11  13
ENDBRANCH  10  11
ENDBRANCH   1  10
TORSDOF 6
