REMARK  Name = ZINC00833967
REMARK                            x       y       z     vdW  Elec       q    Type
REMARK                         _______ _______ _______ _____ _____    ______ ____
ROOT
ATOM      1  C   LIG    1       -0.117   5.297  -0.057  0.00  0.00    -0.026 A 
ATOM      2  C   LIG    1        0.195   6.475  -0.658  0.00  0.00    +0.096 A 
ATOM      3  C   LIG    1        1.436   7.085  -0.393  0.00  0.00    +0.337 A 
ATOM      4  O   LIG    1        2.333   6.544   0.440  0.00  0.00    -0.422 OA
ATOM      5  C   LIG    1        2.056   5.376   1.056  0.00  0.00    +0.152 A 
ATOM      6  C   LIG    1        2.995   4.822   1.924  0.00  0.00    +0.067 A 
ATOM      7  C   LIG    1        4.296   5.548   2.122  0.00  0.00    +0.158 C 
ATOM      8  C   LIG    1        5.060   5.034   3.328  0.00  0.00    +0.060 C 
ATOM      9  C   LIG    1        4.501   5.696   4.589  0.00  0.00    +0.014 C 
ATOM     10  C   LIG    1        4.951   3.527   3.472  0.00  0.00    +0.176 C 
ATOM     11  C   LIG    1        5.725   2.862   2.332  0.00  0.00    +0.052 C 
ATOM     12  O   LIG    1        3.610   3.082   3.435  0.00  0.00    -0.488 OA
ATOM     13  C   LIG    1        2.727   3.632   2.573  0.00  0.00    +0.141 A 
ATOM     14  C   LIG    1        1.508   2.972   2.348  0.00  0.00    +0.059 A 
ATOM     15  C   LIG    1        1.192   1.698   3.030  0.00  0.00    +0.015 C 
ATOM     16  C   LIG    1        0.224   0.941   2.515  0.00  0.00    +0.020 C 
ATOM     17  C   LIG    1       -0.505   1.399   1.278  0.00  0.00    +0.124 C 
ATOM     18  C   LIG    1       -1.916   0.808   1.272  0.00  0.00    +0.060 C 
ATOM     19  C   LIG    1        0.252   0.918   0.037  0.00  0.00    +0.060 C 
ATOM     20  O   LIG    1       -0.591   2.826   1.258  0.00  0.00    -0.481 OA
ATOM     21  C   LIG    1        0.563   3.506   1.472  0.00  0.00    +0.143 A 
ATOM     22  O   LIG    1        1.702   8.141  -0.940  0.00  0.00    -0.245 OA
ATOM     23  C   LIG    1        0.832   4.720   0.827  0.00  0.00    +0.064 A 
ENDROOT
BRANCH   7  24
ATOM     24  O   LIG    1        4.028   6.940   2.304  0.00  0.00    -0.387 OA
ATOM     25  H   LIG    1        4.822   7.489   2.360  0.00  0.00    +0.210 HD
ENDBRANCH   7  24
BRANCH   1  26
ATOM     26  C   LIG    1       -1.438   4.621  -0.322  0.00  0.00    +0.036 C 
BRANCH  26  28
ATOM     27  C   LIG    1       -3.736   4.215   0.569  0.00  0.00    +0.004 C 
ATOM     28  C   LIG    1       -2.396   4.901   0.838  0.00  0.00    +0.001 C 
ENDBRANCH  26  28
ENDBRANCH   1  26
TORSDOF 3
