REMARK  Name = ZINC00901808
REMARK                            x       y       z     vdW  Elec       q    Type
REMARK                         _______ _______ _______ _____ _____    ______ ____
ROOT
ATOM      1  C   LIG    1        0.002  -0.004   0.002  0.00  0.00    +0.108 C 
ENDROOT
BRANCH   1   2
ATOM      2  O   LIG    1        0.566  -0.466  -1.227  0.00  0.00    -0.393 OA
ATOM      3  H   LIG    1        0.080  -0.183  -2.014  0.00  0.00    +0.210 HD
ENDBRANCH   1   2
BRANCH   1   4
ATOM      4  C   LIG    1       -0.019   1.526   0.010  0.00  0.00    +0.149 C 
BRANCH   4   5
ATOM      5  C   LIG    1        1.395   2.047  -0.000  0.00  0.00    +0.307 C 
ATOM      6  O   LIG    1        2.333   1.268  -0.013  0.00  0.00    -0.251 OA
BRANCH   5   7
ATOM      7  O   LIG    1        1.602   3.249   0.004  0.00  0.00    -0.481 OA
ATOM      8  H   LIG    1        0.881   3.848   0.014  0.00  0.00    +0.295 HD
ENDBRANCH   5   7
ENDBRANCH   4   5
ENDBRANCH   1   4
BRANCH   1   9
ATOM      9  C   LIG    1       -1.427  -0.534   0.139  0.00  0.00    -0.054 C 
BRANCH   9  10
ATOM     10  N   LIG    1       -1.397  -1.999   0.251  0.00  0.00    +0.380 N 
ATOM     11  H   LIG    1       -2.339  -2.348   0.341  0.00  0.00    -0.090 HD
ATOM     12  H   LIG    1       -0.861  -2.263   1.064  0.00  0.00    -0.090 HD
ATOM     13  H   LIG    1       -0.970  -2.391  -0.575  0.00  0.00    -0.090 HD
ENDBRANCH   9  10
ENDBRANCH   1   9
TORSDOF 6
