REMARK  Name = ZINC01147622
REMARK                            x       y       z     vdW  Elec       q    Type
REMARK                         _______ _______ _______ _____ _____    ______ ____
ROOT
ATOM      1  C   LIG    1       -5.690   3.052  -0.316  0.00  0.00    +0.000 A 
ATOM      2  C   LIG    1       -6.286   2.617   0.853  0.00  0.00    +0.002 A 
ATOM      3  C   LIG    1       -5.648   1.698   1.661  0.00  0.00    +0.024 A 
ATOM      4  C   LIG    1       -4.396   1.202   1.302  0.00  0.00    +0.043 A 
ATOM      5  C   LIG    1       -3.808   1.647   0.125  0.00  0.00    +0.015 A 
ATOM      6  C   LIG    1       -2.479   0.936   0.019  0.00  0.00    +0.176 C 
ATOM      7  C   LIG    1       -2.424   0.070   1.260  0.00  0.00    +0.257 C 
ATOM      8  O   LIG    1       -1.522  -0.675   1.579  0.00  0.00    -0.272 OA
ATOM      9  N   LIG    1       -3.563   0.282   1.940  0.00  0.00    -0.264 N 
ATOM     10  C   LIG    1       -4.447   2.564  -0.679  0.00  0.00    +0.009 A 
ENDROOT
BRANCH   6  11
ATOM     11  O   LIG    1       -2.433   0.127  -1.158  0.00  0.00    -0.374 OA
ATOM     12  H   LIG    1       -1.613  -0.374  -1.259  0.00  0.00    +0.211 HD
ENDBRANCH   6  11
BRANCH   6  13
ATOM     13  C   LIG    1       -1.330   1.946   0.019  0.00  0.00    +0.132 C 
BRANCH  13  14
ATOM     14  C   LIG    1       -0.014   1.210   0.009  0.00  0.00    +0.201 C 
ATOM     15  O   LIG    1        0.002  -0.004   0.002  0.00  0.00    -0.289 OA
BRANCH  14  16
ATOM     16  C   LIG    1        1.200   1.933   0.001  0.00  0.00    +0.170 A 
ATOM     17  C   LIG    1        2.470   1.392  -0.014  0.00  0.00    +0.053 A 
ATOM     18  C   LIG    1        3.363   2.471  -0.017  0.00  0.00    +0.042 A 
ATOM     19  C   LIG    1        2.623   3.604  -0.004  0.00  0.00    +0.196 A 
ATOM     20  O   LIG    1        1.325   3.278   0.001  0.00  0.00    -0.460 OA
ENDBRANCH  14  16
ENDBRANCH  13  14
ENDBRANCH   6  13
BRANCH   9  21
ATOM     21  C   LIG    1       -3.891  -0.375   3.208  0.00  0.00    +0.148 C 
BRANCH  21  22
ATOM     22  C   LIG    1       -3.380   0.459   4.354  0.00  0.00    -0.030 A 
ATOM     23  C   LIG    1       -2.106   0.248   4.847  0.00  0.00    +0.006 A 
ATOM     24  C   LIG    1       -1.635   1.017   5.895  0.00  0.00    +0.020 A 
ATOM     25  C   LIG    1       -2.442   1.990   6.457  0.00  0.00    +0.041 A 
ATOM     26 CL   LIG    1       -1.853   2.950   7.778  0.00  0.00    -0.084 Cl
ATOM     27  C   LIG    1       -3.719   2.196   5.966  0.00  0.00    +0.020 A 
ATOM     28  C   LIG    1       -4.187   1.431   4.915  0.00  0.00    +0.006 A 
ENDBRANCH  21  22
ENDBRANCH   9  21
TORSDOF 6
