REMARK  Name = ZINC00987999
REMARK                            x       y       z     vdW  Elec       q    Type
REMARK                         _______ _______ _______ _____ _____    ______ ____
ROOT
ATOM      1  C   LIG    1       -4.409   1.551  -2.088  0.00  0.00    +0.095 A 
ATOM      2  C   LIG    1       -4.993   2.447  -1.190  0.00  0.00    +0.078 A 
ATOM      3  C   LIG    1       -4.011   2.842  -0.293  0.00  0.00    +0.157 A 
ATOM      4  N   LIG    1       -4.032   3.676   0.756  0.00  0.00    -0.234 NA
ATOM      5  C   LIG    1       -2.953   3.897   1.472  0.00  0.00    +0.142 A 
ATOM      6  C   LIG    1       -1.749   3.263   1.153  0.00  0.00    +0.137 A 
ATOM      7  C   LIG    1       -1.708   2.400   0.076  0.00  0.00    +0.101 A 
ATOM      8  N   LIG    1       -2.855   2.198  -0.653  0.00  0.00    -0.212 N 
ATOM      9  N   LIG    1       -3.135   1.400  -1.767  0.00  0.00    -0.164 NA
ENDROOT
BRANCH   1  13
ATOM     10  C   LIG    1       -6.396  -0.369  -5.323  0.00  0.00    +0.120 A 
ATOM     11  C   LIG    1       -5.049  -0.616  -5.093  0.00  0.00    +0.046 A 
ATOM     12  C   LIG    1       -4.402   0.005  -4.045  0.00  0.00    +0.013 A 
ATOM     13  C   LIG    1       -5.102   0.881  -3.217  0.00  0.00    +0.002 A 
ATOM     14  C   LIG    1       -6.455   1.123  -3.447  0.00  0.00    +0.013 A 
ATOM     15  C   LIG    1       -7.095   0.502  -4.500  0.00  0.00    +0.046 A 
BRANCH  10  17
ATOM     16  C   LIG    1       -8.416  -0.684  -6.535  0.00  0.00    +0.277 C 
ATOM     17  O   LIG    1       -7.030  -0.983  -6.356  0.00  0.00    -0.495 OA
ENDBRANCH  10  17
ENDBRANCH   1  13
BRANCH   7  18
ATOM     18  C   LIG    1       -0.453   1.713  -0.289  0.00  0.00    +0.002 A 
ATOM     19  C   LIG    1        0.600   2.431  -0.859  0.00  0.00    +0.010 A 
ATOM     20  C   LIG    1        1.768   1.781  -1.203  0.00  0.00    +0.001 A 
ATOM     21  C   LIG    1        1.896   0.421  -0.985  0.00  0.00    +0.000 A 
ATOM     22  C   LIG    1        0.857  -0.297  -0.420  0.00  0.00    +0.001 A 
ATOM     23  C   LIG    1       -0.316   0.340  -0.071  0.00  0.00    +0.010 A 
ENDBRANCH   7  18
BRANCH   6  24
ATOM     24  S   LIG    1       -0.303   3.559   2.114  0.00  0.00    +0.029 S 
ATOM     25  O   LIG    1        0.671   2.619   1.682  0.00  0.00    -0.164 OA
ATOM     26  O   LIG    1       -0.726   3.651   3.467  0.00  0.00    -0.164 OA
BRANCH  24  27
ATOM     27  C   LIG    1        0.302   5.153   1.666  0.00  0.00    +0.094 A 
ATOM     28  C   LIG    1        1.311   5.271   0.729  0.00  0.00    +0.027 A 
ATOM     29  C   LIG    1        1.782   6.521   0.374  0.00  0.00    +0.002 A 
ATOM     30  C   LIG    1        1.251   7.653   0.964  0.00  0.00    +0.000 A 
ATOM     31  C   LIG    1        0.246   7.534   1.906  0.00  0.00    +0.002 A 
ATOM     32  C   LIG    1       -0.229   6.284   2.256  0.00  0.00    +0.027 A 
ENDBRANCH  24  27
ENDBRANCH   6  24
TORSDOF 5
