REMARK  Name = ZINC00896918
REMARK                            x       y       z     vdW  Elec       q    Type
REMARK                         _______ _______ _______ _____ _____    ______ ____
ROOT
ATOM      1  C   LIG    1       -0.017   1.378   0.010  0.00  0.00    +0.058 A 
ATOM      2  C   LIG    1        1.171   2.086   0.002  0.00  0.00    +0.108 A 
ATOM      3  C   LIG    1        2.378   1.413  -0.013  0.00  0.00    +0.050 A 
ATOM      4  C   LIG    1        2.398   0.030  -0.021  0.00  0.00    +0.063 A 
ATOM      5 CL   LIG    1        3.914  -0.816  -0.041  0.00  0.00    -0.082 Cl
ATOM      6  C   LIG    1        1.209  -0.679  -0.013  0.00  0.00    +0.086 A 
ATOM      7 CL   LIG    1        1.234  -2.415  -0.023  0.00  0.00    -0.080 Cl
ATOM      8  C   LIG    1        0.002  -0.004   0.002  0.00  0.00    +0.126 A 
ENDROOT
BRANCH   2   9
ATOM      9  S   LIG    1        1.145   3.848   0.012  0.00  0.00    +0.056 S 
ATOM     10  O   LIG    1       -0.111   4.239  -0.525  0.00  0.00    -0.153 OA
ATOM     11  O   LIG    1        2.379   4.275  -0.549  0.00  0.00    -0.153 OA
BRANCH   9  12
ATOM     12  N   LIG    1        1.153   4.329   1.596  0.00  0.00    -0.204 NA
ATOM     13  H   LIG    1        1.141   5.274   1.816  0.00  0.00    +0.144 HD
ATOM     14  H   LIG    1        1.169   3.666   2.304  0.00  0.00    +0.144 HD
ENDBRANCH   9  12
ENDBRANCH   2   9
BRANCH   8  15
ATOM     15  S   LIG    1       -1.512  -0.906   0.012  0.00  0.00    +0.057 S 
ATOM     16  O   LIG    1       -2.558   0.056   0.001  0.00  0.00    -0.153 OA
ATOM     17  O   LIG    1       -1.392  -1.889   1.031  0.00  0.00    -0.153 OA
BRANCH  15  18
ATOM     18  N   LIG    1       -1.604  -1.723  -1.425  0.00  0.00    -0.203 NA
ATOM     19  H   LIG    1       -2.373  -2.284  -1.615  0.00  0.00    +0.144 HD
ATOM     20  H   LIG    1       -0.891  -1.641  -2.077  0.00  0.00    +0.144 HD
ENDBRANCH  15  18
ENDBRANCH   8  15
TORSDOF 4
