REMARK  Name = ZINC01249433
REMARK                            x       y       z     vdW  Elec       q    Type
REMARK                         _______ _______ _______ _____ _____    ______ ____
ROOT
ATOM      1  C   LIG    1        2.159  -0.053  -1.157  0.00  0.00    +0.032 C 
ENDROOT
BRANCH   1   2
ATOM      2  C   LIG    1        2.268  -0.786  -2.470  0.00  0.00    -0.042 A 
ATOM      3  C   LIG    1        1.669  -2.022  -2.623  0.00  0.00    +0.004 A 
ATOM      4  C   LIG    1        1.770  -2.694  -3.827  0.00  0.00    +0.000 A 
ATOM      5  C   LIG    1        2.469  -2.130  -4.877  0.00  0.00    +0.000 A 
ATOM      6  C   LIG    1        3.068  -0.893  -4.724  0.00  0.00    +0.000 A 
ATOM      7  C   LIG    1        2.963  -0.219  -3.522  0.00  0.00    +0.004 A 
ENDBRANCH   1   2
BRANCH   1   8
ATOM      8  C   LIG    1        2.941  -0.793  -0.102  0.00  0.00    -0.042 A 
ATOM      9  C   LIG    1        4.080  -0.225   0.438  0.00  0.00    +0.004 A 
ATOM     10  C   LIG    1        4.797  -0.903   1.406  0.00  0.00    +0.000 A 
ATOM     11  C   LIG    1        4.376  -2.149   1.833  0.00  0.00    +0.000 A 
ATOM     12  C   LIG    1        3.236  -2.716   1.293  0.00  0.00    +0.000 A 
ATOM     13  C   LIG    1        2.517  -2.036   0.329  0.00  0.00    +0.004 A 
ENDBRANCH   1   8
BRANCH   1  14
ATOM     14  C   LIG    1        0.689   0.027  -0.739  0.00  0.00    -0.067 C 
BRANCH  14  16
ATOM     15  C   LIG    1        0.966   2.226   0.179  0.00  0.00    -0.097 C 
ATOM     16  N   LIG    1        0.570   0.843   0.476  0.00  0.00    +0.377 N 
ATOM     17  H   LIG    1        1.172   0.468   1.194  0.00  0.00    -0.083 HD
ATOM     18  C   LIG    1       -0.822   0.823   0.945  0.00  0.00    -0.097 C 
ENDBRANCH  14  16
ENDBRANCH   1  14
TORSDOF 4
