REMARK  Name = ZINC00726017
REMARK                            x       y       z     vdW  Elec       q    Type
REMARK                         _______ _______ _______ _____ _____    ______ ____
ROOT
ATOM      1  C   LIG    1       -2.531   1.681   0.022  0.00  0.00    +0.026 C 
ATOM      2  C   LIG    1       -1.240   2.078  -0.246  0.00  0.00    +0.102 C 
ATOM      3  C   LIG    1       -0.022   1.244  -0.233  0.00  0.00    +0.266 C 
ATOM      4  N   LIG    1        1.006   2.050  -0.559  0.00  0.00    -0.223 N 
ATOM      5  H   LIG    1        1.931   1.764  -0.630  0.00  0.00    +0.174 HD
ATOM      6  N   LIG    1        0.559   3.352  -0.780  0.00  0.00    -0.184 N 
ATOM      7  O   LIG    1        0.041   0.055   0.019  0.00  0.00    -0.268 OA
ATOM      8  C   LIG    1       -0.773   3.432  -0.605  0.00  0.00    +0.272 C 
ATOM      9  O   LIG    1       -1.462   4.428  -0.724  0.00  0.00    -0.268 OA
ENDROOT
BRANCH   6  10
ATOM     10  C   LIG    1        1.381   4.426  -1.136  0.00  0.00    +0.056 A 
ATOM     11  C   LIG    1        0.832   5.686  -1.338  0.00  0.00    +0.026 A 
ATOM     12  C   LIG    1        1.647   6.745  -1.684  0.00  0.00    +0.016 A 
ATOM     13  C   LIG    1        3.008   6.551  -1.839  0.00  0.00    +0.013 A 
ATOM     14  I   LIG    1        4.239   8.161  -2.371  0.00  0.00    -0.044 I 
ATOM     15  C   LIG    1        3.557   5.297  -1.643  0.00  0.00    +0.016 A 
ATOM     16  C   LIG    1        2.748   4.234  -1.292  0.00  0.00    +0.026 A 
ENDBRANCH   6  10
BRANCH   1  20
ATOM     17  C   LIG    1       -5.610   4.571   0.369  0.00  0.00    +0.000 A 
ATOM     18  C   LIG    1       -5.872   3.356  -0.241  0.00  0.00    +0.001 A 
ATOM     19  C   LIG    1       -4.877   2.410  -0.359  0.00  0.00    +0.008 A 
ATOM     20  C   LIG    1       -3.597   2.681   0.142  0.00  0.00    -0.024 A 
ATOM     21  C   LIG    1       -3.342   3.911   0.763  0.00  0.00    +0.008 A 
ATOM     22  C   LIG    1       -4.348   4.847   0.866  0.00  0.00    +0.001 A 
ENDBRANCH   1  20
TORSDOF 2
