REMARK  Name = ZINC01176210
REMARK                            x       y       z     vdW  Elec       q    Type
REMARK                         _______ _______ _______ _____ _____    ______ ____
ROOT
ATOM      1  C   LIG    1       -2.594   1.202   0.020  0.00  0.00    +0.040 C 
ATOM      2  C   LIG    1       -3.337   1.700   1.261  0.00  0.00    +0.084 C 
ATOM      3  C   LIG    1       -4.758   1.186   1.244  0.00  0.00    +0.115 C 
ATOM      4  C   LIG    1       -5.398   0.978   0.079  0.00  0.00    +0.046 C 
ATOM      5  C   LIG    1       -4.766   1.217  -1.157  0.00  0.00    +0.164 C 
ATOM      6  O   LIG    1       -5.383   1.034  -2.187  0.00  0.00    -0.292 OA
ATOM      7  C   LIG    1       -6.823   0.478   0.064  0.00  0.00    +0.101 C 
ATOM      8  C   LIG    1       -7.166  -0.141   1.389  0.00  0.00    +0.098 C 
ATOM      9  C   LIG    1       -6.417   0.128   2.486  0.00  0.00    +0.198 C 
ATOM     10  O   LIG    1       -5.359   0.952   2.425  0.00  0.00    -0.445 OA
ATOM     11  C   LIG    1       -3.341   1.695  -1.224  0.00  0.00    +0.088 C 
ENDROOT
BRANCH   7  12
ATOM     12  C   LIG    1       -7.754   1.632  -0.205  0.00  0.00    -0.034 A 
ATOM     13  C   LIG    1       -7.790   2.708   0.662  0.00  0.00    +0.007 A 
ATOM     14  C   LIG    1       -8.640   3.769   0.413  0.00  0.00    +0.033 A 
ATOM     15  C   LIG    1       -9.463   3.749  -0.697  0.00  0.00    +0.122 A 
ATOM     16  C   LIG    1       -9.431   2.671  -1.562  0.00  0.00    +0.033 A 
ATOM     17  C   LIG    1       -8.577   1.613  -1.316  0.00  0.00    +0.007 A 
BRANCH  15  18
ATOM     18  N   LIG    1      -10.378   4.882  -0.961  0.00  0.00    +0.006 N 
ATOM     19  O   LIG    1      -11.103   4.865  -1.940  0.00  0.00    -0.130 OA
BRANCH  18  20
ATOM     20  O   LIG    1      -10.406   5.832  -0.199  0.00  0.00    -0.396 OA
ATOM     21  H   LIG    1       -9.849   5.845   0.554  0.00  0.00    +0.329 HD
ENDBRANCH  18  20
ENDBRANCH  15  18
ENDBRANCH   7  12
BRANCH   1  24
ATOM     22  C   LIG    1        1.169   1.793   0.001  0.00  0.00    +0.008 A 
ATOM     23  C   LIG    1       -0.013   1.076   0.008  0.00  0.00    +0.011 A 
ATOM     24  C   LIG    1       -1.190   1.748   0.017  0.00  0.00    -0.006 A 
ATOM     25  S   LIG    1       -0.644   3.448   0.027  0.00  0.00    -0.101 S 
ATOM     26  C   LIG    1        1.115   3.148   0.008  0.00  0.00    +0.045 A 
ENDBRANCH   1  24
BRANCH   9  27
ATOM     27  N   LIG    1       -6.747  -0.454   3.685  0.00  0.00    -0.328 N 
ATOM     28  H   LIG    1       -6.217  -0.268   4.476  0.00  0.00    +0.145 HD
ATOM     29  H   LIG    1       -7.509  -1.051   3.740  0.00  0.00    +0.145 HD
ENDBRANCH   9  27
BRANCH   8  30
ATOM     30  C   LIG    1       -8.291  -1.021   1.494  0.00  0.00    +0.101 C 
ATOM     31  N   LIG    1       -9.184  -1.718   1.578  0.00  0.00    -0.191 NA
ENDBRANCH   8  30
TORSDOF 6
