REMARK  Name = ZINC01025210
REMARK                            x       y       z     vdW  Elec       q    Type
REMARK                         _______ _______ _______ _____ _____    ______ ____
ROOT
ATOM      1  C   LIG    1       -2.502  -0.391   0.012  0.00  0.00    +0.254 C 
ATOM      2  N   LIG    1       -3.142  -0.206   1.183  0.00  0.00    -0.280 N 
ATOM      3  H   LIG    1       -2.699  -0.421   2.018  0.00  0.00    +0.155 HD
ATOM      4  O   LIG    1       -3.091  -0.217  -1.038  0.00  0.00    -0.270 OA
ENDROOT
BRANCH   2   5
ATOM      5  C   LIG    1       -4.448   0.297   1.194  0.00  0.00    +0.053 A 
ATOM      6  C   LIG    1       -4.902   1.070   0.136  0.00  0.00    +0.034 A 
ATOM      7  C   LIG    1       -6.205   1.569   0.152  0.00  0.00    +0.001 A 
ATOM      8  C   LIG    1       -7.043   1.288   1.233  0.00  0.00    +0.011 A 
ATOM      9  C   LIG    1       -6.582   0.518   2.281  0.00  0.00    +0.022 A 
ATOM     10  C   LIG    1       -5.292   0.018   2.263  0.00  0.00    +0.062 A 
ATOM     11 CL   LIG    1       -4.723  -0.956   3.583  0.00  0.00    -0.082 Cl
BRANCH   7  12
ATOM     12  C   LIG    1       -6.696   2.393  -0.971  0.00  0.00    +0.084 C 
ATOM     13  C   LIG    1       -8.103   2.931  -0.951  0.00  0.00    +0.069 C 
ATOM     14  N   LIG    1       -5.918   2.652  -1.971  0.00  0.00    -0.092 NA
BRANCH  14  15
ATOM     15  O   LIG    1       -6.388   3.443  -3.047  0.00  0.00    -0.409 OA
ATOM     16  H   LIG    1       -5.736   3.582  -3.747  0.00  0.00    +0.328 HD
ENDBRANCH  14  15
ENDBRANCH   7  12
ENDBRANCH   2   5
BRANCH   1  19
ATOM     17  C   LIG    1       -0.032   1.525   0.006  0.00  0.00    +0.090 C 
ATOM     18  C   LIG    1        0.000   0.019   0.001  0.00  0.00    +0.147 A 
ATOM     19  C   LIG    1       -1.088  -0.804   0.003  0.00  0.00    +0.106 A 
ATOM     20  C   LIG    1       -0.577  -2.183  -0.004  0.00  0.00    +0.127 A 
ATOM     21  N   LIG    1        0.730  -2.105  -0.010  0.00  0.00    -0.077 NA
ATOM     22  O   LIG    1        1.099  -0.740  -0.013  0.00  0.00    -0.359 OA
BRANCH  20  23
ATOM     23  C   LIG    1       -1.387  -3.425  -0.004  0.00  0.00    +0.023 A 
ATOM     24  C   LIG    1       -2.779  -3.353  -0.002  0.00  0.00    +0.011 A 
ATOM     25  C   LIG    1       -3.528  -4.512  -0.003  0.00  0.00    +0.001 A 
ATOM     26  C   LIG    1       -2.901  -5.745  -0.004  0.00  0.00    +0.001 A 
ATOM     27  C   LIG    1       -1.520  -5.824  -0.005  0.00  0.00    +0.020 A 
ATOM     28  C   LIG    1       -0.759  -4.671  -0.011  0.00  0.00    +0.050 A 
ATOM     29 CL   LIG    1        0.974  -4.771  -0.021  0.00  0.00    -0.083 Cl
ENDBRANCH  20  23
ENDBRANCH   1  19
TORSDOF 5
