REMARK  Name = ZINC00896740
REMARK                            x       y       z     vdW  Elec       q    Type
REMARK                         _______ _______ _______ _____ _____    ______ ____
ROOT
ATOM      1  C   LIG    1        4.556   4.413  -0.021  0.00  0.00    +0.170 C 
ENDROOT
BRANCH   1   2
ATOM      2  C   LIG    1        4.261   5.704   0.700  0.00  0.00    +0.001 A 
ATOM      3  C   LIG    1        2.960   6.164   0.788  0.00  0.00    +0.009 A 
ATOM      4  C   LIG    1        2.689   7.347   1.448  0.00  0.00    +0.020 A 
ATOM      5  C   LIG    1        3.719   8.072   2.021  0.00  0.00    +0.042 A 
ATOM      6 CL   LIG    1        3.378   9.559   2.850  0.00  0.00    -0.083 Cl
ATOM      7  C   LIG    1        5.020   7.612   1.933  0.00  0.00    +0.040 A 
ATOM      8  C   LIG    1        5.291   6.425   1.276  0.00  0.00    +0.048 A 
ATOM      9 CL   LIG    1        6.923   5.844   1.170  0.00  0.00    -0.083 Cl
ENDBRANCH   1   2
BRANCH   1  10
ATOM     10  O   LIG    1        3.390   3.586  -0.013  0.00  0.00    -0.366 OA
BRANCH  10  11
ATOM     11  C   LIG    1        3.671   2.185  -0.023  0.00  0.00    +0.197 C 
BRANCH  11  14
ATOM     12  C   LIG    1       -0.017   1.379   0.010  0.00  0.00    +0.020 A 
ATOM     13  C   LIG    1        1.171   2.087   0.002  0.00  0.00    +0.009 A 
ATOM     14  C   LIG    1        2.377   1.413  -0.013  0.00  0.00    -0.004 A 
ATOM     15  C   LIG    1        2.397   0.029  -0.021  0.00  0.00    +0.048 A 
ATOM     16 CL   LIG    1        3.913  -0.817  -0.041  0.00  0.00    -0.083 Cl
ATOM     17  C   LIG    1        1.210  -0.679  -0.013  0.00  0.00    +0.040 A 
ATOM     18  C   LIG    1        0.002  -0.004   0.002  0.00  0.00    +0.042 A 
ATOM     19 CL   LIG    1       -1.489  -0.893   0.012  0.00  0.00    -0.083 Cl
ENDBRANCH  11  14
ENDBRANCH  10  11
ENDBRANCH   1  10
BRANCH   1  20
ATOM     20  C   LIG    1        4.957   4.716  -1.466  0.00  0.00    +0.159 C 
BRANCH  20  21
ATOM     21  N   LIG    1        5.359   3.474  -2.131  0.00  0.00    -0.336 N 
ATOM     22  C   LIG    1        6.621   2.945  -2.172  0.00  0.00    +0.104 A 
ATOM     23  C   LIG    1        6.542   1.804  -2.882  0.00  0.00    +0.101 A 
ATOM     24  N   LIG    1        5.267   1.639  -3.264  0.00  0.00    -0.352 N 
ATOM     25  H   LIG    1        4.930   0.897  -3.789  0.00  0.00    +0.166 HD
ATOM     26  C   LIG    1        4.551   2.633  -2.814  0.00  0.00    +0.173 A 
ENDBRANCH  20  21
ENDBRANCH   1  20
TORSDOF 6
