REMARK  Name = ZINC01027711
REMARK                            x       y       z     vdW  Elec       q    Type
REMARK                         _______ _______ _______ _____ _____    ______ ____
ROOT
ATOM      1  C   LIG    1        1.171   2.086   0.002  0.00  0.00    +0.007 A 
ATOM      2  C   LIG    1        2.377   1.411  -0.015  0.00  0.00    +0.033 A 
ATOM      3  C   LIG    1        2.396   0.029  -0.021  0.00  0.00    +0.122 A 
ATOM      4  C   LIG    1        1.208  -0.679  -0.013  0.00  0.00    +0.033 A 
ATOM      5  C   LIG    1        0.002  -0.004   0.002  0.00  0.00    +0.007 A 
ATOM      6  C   LIG    1       -0.017   1.378   0.010  0.00  0.00    -0.028 A 
ENDROOT
BRANCH   3   7
ATOM      7  N   LIG    1        3.688  -0.694  -0.037  0.00  0.00    +0.006 N 
ATOM      8  O   LIG    1        3.704  -1.912  -0.043  0.00  0.00    -0.130 OA
BRANCH   7   9
ATOM      9  O   LIG    1        4.734  -0.071  -0.044  0.00  0.00    -0.396 OA
ATOM     10  H   LIG    1        4.721   0.866  -0.040  0.00  0.00    +0.329 HD
ENDBRANCH   7   9
ENDBRANCH   3   7
BRANCH   6  11
ATOM     11  C   LIG    1       -1.332   2.114   0.020  0.00  0.00    +0.157 C 
BRANCH  11  12
ATOM     12  N   LIG    1       -1.752   2.345   1.404  0.00  0.00    -0.332 N 
ATOM     13  C   LIG    1       -1.446   3.434   2.175  0.00  0.00    +0.107 A 
ATOM     14  C   LIG    1       -2.030   3.240   3.373  0.00  0.00    +0.130 A 
ATOM     15  N   LIG    1       -2.674   2.064   3.335  0.00  0.00    -0.244 NA
ATOM     16  C   LIG    1       -2.517   1.525   2.157  0.00  0.00    +0.199 A 
ENDBRANCH  11  12
ENDBRANCH   6  11
TORSDOF 4
