REMARK  Name = ZINC01004419
REMARK                            x       y       z     vdW  Elec       q    Type
REMARK                         _______ _______ _______ _____ _____    ______ ____
ROOT
ATOM      1  C   LIG    1       -1.935   3.330   5.507  0.00  0.00    +0.155 C 
ATOM      2  N   LIG    1       -0.877   2.850   4.616  0.00  0.00    -0.280 N 
ATOM      3  C   LIG    1       -1.161   2.579   3.287  0.00  0.00    +0.168 A 
ATOM      4  C   LIG    1       -0.141   2.118   2.464  0.00  0.00    +0.152 A 
ATOM      5  N   LIG    1       -0.704   1.940   1.215  0.00  0.00    -0.313 N 
ATOM      6  C   LIG    1       -2.004   2.278   1.317  0.00  0.00    +0.203 A 
ATOM      7  C   LIG    1        1.153   1.951   3.000  0.00  0.00    +0.282 A 
ATOM      8  N   LIG    1        1.368   2.232   4.302  0.00  0.00    -0.262 N 
ATOM      9  C   LIG    1        2.708   2.055   4.867  0.00  0.00    +0.157 C 
ATOM     10  O   LIG    1        2.065   1.554   2.297  0.00  0.00    -0.265 OA
ATOM     11  N   LIG    1       -2.268   2.654   2.543  0.00  0.00    -0.218 NA
ATOM     12  C   LIG    1        0.371   2.672   5.089  0.00  0.00    +0.333 A 
ATOM     13  O   LIG    1        0.602   2.915   6.258  0.00  0.00    -0.246 OA
ENDROOT
BRANCH   5  14
ATOM     14  C   LIG    1       -0.018   1.468   0.010  0.00  0.00    +0.212 C 
BRANCH  14  15
ATOM     15  C   LIG    1        0.002  -0.004   0.002  0.00  0.00    -0.084 C 
ATOM     16  C   LIG    1        0.018  -1.178  -0.004  0.00  0.00    +0.005 C 
ENDBRANCH  14  15
ENDBRANCH   5  14
TORSDOF 2
