REMARK  Name = ZINC00897244
REMARK                            x       y       z     vdW  Elec       q    Type
REMARK                         _______ _______ _______ _____ _____    ______ ____
ROOT
ATOM      1  C   LIG    1       -0.019   1.526   0.010  0.00  0.00    +0.038 C 
ATOM      2  C   LIG    1        0.002  -0.004   0.002  0.00  0.00    +0.113 C 
ATOM      3  C   LIG    1       -1.413  -0.580  -0.086  0.00  0.00    +0.038 C 
ATOM      4  C   LIG    1        0.918  -0.558  -1.127  0.00  0.00    +0.213 C 
ATOM      5  N   LIG    1        1.415  -1.897  -0.797  0.00  0.00    -0.263 N 
ATOM      6  C   LIG    1        1.564  -2.196   0.634  0.00  0.00    +0.229 C 
ATOM      7  C   LIG    1        3.067  -2.201   0.421  0.00  0.00    +0.142 C 
ATOM      8  C   LIG    1        2.713  -2.168  -1.036  0.00  0.00    +0.221 C 
ATOM      9  O   LIG    1        3.356  -2.325  -2.052  0.00  0.00    -0.275 OA
ATOM     10  S   LIG    1        0.923  -0.680   1.457  0.00  0.00    -0.004 S 
ATOM     11  O   LIG    1       -0.003  -1.049   2.470  0.00  0.00    -0.172 OA
ATOM     12  O   LIG    1        2.008   0.182   1.770  0.00  0.00    -0.172 OA
ENDROOT
BRANCH   4  13
ATOM     13  C   LIG    1        0.133  -0.627  -2.411  0.00  0.00    +0.328 C 
ATOM     14  O   LIG    1        0.118   0.329  -3.168  0.00  0.00    -0.249 OA
BRANCH  13  15
ATOM     15  O   LIG    1       -0.486  -1.638  -2.693  0.00  0.00    -0.479 OA
ATOM     16  H   LIG    1       -0.474  -2.373  -2.112  0.00  0.00    +0.295 HD
ENDBRANCH  13  15
ENDBRANCH   4  13
TORSDOF 2
