REMARK  Name = ZINC00895313
REMARK                            x       y       z     vdW  Elec       q    Type
REMARK                         _______ _______ _______ _____ _____    ______ ____
ROOT
ATOM      1  C   LIG    1        0.002  -0.004   0.002  0.00  0.00    +0.202 C 
ENDROOT
BRANCH   1   2
ATOM      2  O   LIG    1        0.590  -0.479   1.215  0.00  0.00    -0.382 OA
ATOM      3  H   LIG    1        0.119  -0.205   2.014  0.00  0.00    +0.210 HD
ENDBRANCH   1   2
BRANCH   1   4
ATOM      4  C   LIG    1       -1.407  -0.525  -0.111  0.00  0.00    +0.256 C 
ATOM      5  O   LIG    1       -1.862  -1.230   0.757  0.00  0.00    -0.298 OA
ENDBRANCH   1   4
BRANCH   1   6
ATOM      6  C   LIG    1       -0.019   1.526   0.010  0.00  0.00    +0.194 C 
BRANCH   6   7
ATOM      7  O   LIG    1        1.322   2.020   0.000  0.00  0.00    -0.392 OA
ATOM      8  H   LIG    1        1.385   2.985   0.005  0.00  0.00    +0.210 HD
ENDBRANCH   6   7
ENDBRANCH   1   6
TORSDOF 4
