REMARK  Name = ZINC00803047
REMARK                            x       y       z     vdW  Elec       q    Type
REMARK                         _______ _______ _______ _____ _____    ______ ____
ROOT
ATOM      1  N   LIG    1        0.795  -0.411  -1.394  0.00  0.00    -0.207 N 
ATOM      2  C   LIG    1        0.150  -0.623  -2.692  0.00  0.00    +0.136 C 
ATOM      3  C   LIG    1        1.293  -0.975  -3.658  0.00  0.00    +0.058 C 
ATOM      4  C   LIG    1        2.538  -0.934  -2.799  0.00  0.00    -0.022 A 
ATOM      5  C   LIG    1        3.848  -1.163  -3.114  0.00  0.00    +0.020 A 
ATOM      6  C   LIG    1        4.837  -1.048  -2.132  0.00  0.00    +0.059 A 
ATOM      7  C   LIG    1        4.474  -0.712  -0.825  0.00  0.00    +0.017 A 
ATOM      8  C   LIG    1        3.154  -0.489  -0.515  0.00  0.00    +0.026 A 
ATOM      9  C   LIG    1        2.168  -0.596  -1.503  0.00  0.00    +0.054 A 
ENDROOT
BRANCH   1  11
ATOM     10  C   LIG    1       -0.022   1.810   0.012  0.00  0.00    +0.218 C 
ATOM     11  S   LIG    1        0.002  -0.004   0.002  0.00  0.00    +0.043 S 
ATOM     12  O   LIG    1       -1.315  -0.510  -0.168  0.00  0.00    -0.155 OA
ATOM     13  O   LIG    1        0.835  -0.488   1.046  0.00  0.00    -0.155 OA
ENDBRANCH   1  11
BRANCH   6  14
ATOM     14  C   LIG    1        6.251  -1.289  -2.472  0.00  0.00    +0.340 C 
ATOM     15  O   LIG    1        6.562  -1.581  -3.610  0.00  0.00    -0.245 OA
BRANCH  14  16
ATOM     16  O   LIG    1        7.199  -1.185  -1.520  0.00  0.00    -0.453 OA
BRANCH  16  17
ATOM     17  C   LIG    1        8.549  -1.431  -1.919  0.00  0.00    +0.311 C 
BRANCH  17  18
ATOM     18  C   LIG    1        9.462  -1.270  -0.731  0.00  0.00    +0.200 C 
ATOM     19  O   LIG    1        9.002  -0.973   0.351  0.00  0.00    -0.288 OA
BRANCH  18  20
ATOM     20  C   LIG    1       10.912  -1.473  -0.884  0.00  0.00    +0.021 A 
ATOM     21  C   LIG    1       11.446  -1.810  -2.131  0.00  0.00    +0.011 A 
ATOM     22  C   LIG    1       12.806  -1.997  -2.267  0.00  0.00    +0.001 A 
ATOM     23  C   LIG    1       13.640  -1.853  -1.172  0.00  0.00    +0.000 A 
ATOM     24  C   LIG    1       13.118  -1.521   0.066  0.00  0.00    +0.001 A 
ATOM     25  C   LIG    1       11.762  -1.324   0.216  0.00  0.00    +0.011 A 
ENDBRANCH  18  20
ENDBRANCH  17  18
ENDBRANCH  16  17
ENDBRANCH  14  16
ENDBRANCH   6  14
TORSDOF 6
