REMARK  Name = ZINC01039448
REMARK                            x       y       z     vdW  Elec       q    Type
REMARK                         _______ _______ _______ _____ _____    ______ ____
ROOT
ATOM      1  C   LIG    1       -8.448   0.880  -0.455  0.00  0.00    +0.068 C 
ATOM      2  C   LIG    1       -8.425   2.387  -0.437  0.00  0.00    +0.072 A 
ATOM      3  C   LIG    1       -7.276   3.195  -0.337  0.00  0.00    +0.062 A 
ATOM      4  C   LIG    1       -7.685   4.497  -0.363  0.00  0.00    +0.147 A 
ATOM      5  N   LIG    1       -9.029   4.500  -0.468  0.00  0.00    -0.136 N 
ATOM      6  N   LIG    1       -9.468   3.171  -0.509  0.00  0.00    -0.154 NA
ENDROOT
BRANCH   3   7
ATOM      7  C   LIG    1       -5.874   2.718  -0.230  0.00  0.00    +0.174 A 
ATOM      8  N   LIG    1       -4.881   3.583  -0.147  0.00  0.00    -0.204 NA
ATOM      9  C   LIG    1       -3.644   3.122  -0.053  0.00  0.00    +0.183 A 
ATOM     10  S   LIG    1       -3.904   1.407  -0.091  0.00  0.00    +0.050 S 
ATOM     11  N   LIG    1       -5.611   1.426  -0.216  0.00  0.00    -0.187 NA
BRANCH   9  12
ATOM     12  N   LIG    1       -2.455   3.823   0.044  0.00  0.00    -0.293 N 
ATOM     13  H   LIG    1       -2.453   4.789  -0.041  0.00  0.00    +0.154 HD
BRANCH  12  14
ATOM     14  C   LIG    1       -1.256   3.139   0.264  0.00  0.00    +0.033 A 
ATOM     15  C   LIG    1       -1.245   1.983   1.034  0.00  0.00    +0.023 A 
ATOM     16  C   LIG    1       -0.058   1.312   1.253  0.00  0.00    +0.002 A 
ATOM     17  C   LIG    1        1.118   1.785   0.699  0.00  0.00    +0.000 A 
ATOM     18  C   LIG    1        1.110   2.933  -0.072  0.00  0.00    +0.002 A 
ATOM     19  C   LIG    1       -0.073   3.611  -0.292  0.00  0.00    +0.023 A 
ENDBRANCH  12  14
ENDBRANCH   9  12
ENDBRANCH   3   7
BRANCH   5  20
ATOM     20  S   LIG    1       -9.994   5.844  -0.537  0.00  0.00    +0.099 S 
ATOM     21  O   LIG    1       -9.267   6.898   0.078  0.00  0.00    -0.146 OA
ATOM     22  O   LIG    1      -11.281   5.443  -0.087  0.00  0.00    -0.146 OA
BRANCH  20  23
ATOM     23  C   LIG    1      -10.166   6.275  -2.236  0.00  0.00    +0.114 A 
ATOM     24  C   LIG    1       -9.269   7.149  -2.822  0.00  0.00    +0.041 A 
ATOM     25  C   LIG    1       -9.402   7.484  -4.157  0.00  0.00    +0.057 A 
ATOM     26  C   LIG    1      -10.437   6.953  -4.903  0.00  0.00    +0.024 A 
ATOM     27  C   LIG    1      -11.337   6.084  -4.316  0.00  0.00    +0.057 A 
ATOM     28  C   LIG    1      -11.202   5.745  -2.982  0.00  0.00    +0.041 A 
BRANCH  25  29
ATOM     29  C   LIG    1       -8.421   8.432  -4.796  0.00  0.00    +0.417 C 
ATOM     30  F   LIG    1       -7.131   7.895  -4.713  0.00  0.00    -0.166 F 
ATOM     31  F   LIG    1       -8.458   9.662  -4.130  0.00  0.00    -0.166 F 
ATOM     32  F   LIG    1       -8.761   8.619  -6.140  0.00  0.00    -0.166 F 
ENDBRANCH  25  29
BRANCH  27  33
ATOM     33  C   LIG    1      -12.466   5.505  -5.130  0.00  0.00    +0.417 C 
ATOM     34  F   LIG    1      -12.797   4.239  -4.633  0.00  0.00    -0.166 F 
ATOM     35  F   LIG    1      -12.067   5.392  -6.466  0.00  0.00    -0.166 F 
ATOM     36  F   LIG    1      -13.581   6.345  -5.045  0.00  0.00    -0.166 F 
ENDBRANCH  27  33
ENDBRANCH  20  23
ENDBRANCH   5  20
TORSDOF 7
