REMARK  Name = ZINC01271441
REMARK                            x       y       z     vdW  Elec       q    Type
REMARK                         _______ _______ _______ _____ _____    ______ ____
ROOT
ATOM      1  C   LIG    1        0.640  -0.614   1.035  0.00  0.00    +0.147 C 
ATOM      2  C   LIG    1        1.202   0.139   2.026  0.00  0.00    +0.042 C 
ATOM      3  C   LIG    1        1.843  -0.492   3.099  0.00  0.00    +0.040 C 
ATOM      4  C   LIG    1        1.905  -1.906   3.151  0.00  0.00    +0.065 C 
ATOM      5  N   LIG    1        2.524  -2.489   4.190  0.00  0.00    -0.286 NA
ATOM      6  H   LIG    1        2.574  -3.456   4.241  0.00  0.00    +0.125 HD
ATOM      7  C   LIG    1        3.064  -1.753   5.142  0.00  0.00    +0.198 C 
ATOM      8  N   LIG    1        3.029  -0.424   5.132  0.00  0.00    -0.273 NA
ATOM      9  H   LIG    1        3.999  -0.110   5.154  0.00  0.00    +0.126 HD
ATOM     10  C   LIG    1        1.321  -2.659   2.125  0.00  0.00    +0.053 C 
ATOM     11  C   LIG    1        2.442   0.245   4.150  0.00  0.00    +0.126 C 
ATOM     12  C   LIG    1        0.692  -2.014   1.083  0.00  0.00    +0.148 C 
ENDROOT
BRANCH   7  13
ATOM     13  N   LIG    1        3.694  -2.392   6.197  0.00  0.00    -0.272 NA
ATOM     14  C   LIG    1        3.664  -3.857   6.309  0.00  0.00    +0.106 C 
ATOM     15  C   LIG    1        5.106  -4.370   6.400  0.00  0.00    +0.123 C 
ATOM     16  N   LIG    1        5.817  -3.596   7.427  0.00  0.00    -0.297 N 
ATOM     17  C   LIG    1        6.431  -4.217   8.453  0.00  0.00    +0.245 C 
ATOM     18  O   LIG    1        6.932  -3.565   9.345  0.00  0.00    -0.273 OA
ATOM     19  C   LIG    1        5.847  -2.131   7.314  0.00  0.00    +0.123 C 
ATOM     20  C   LIG    1        4.410  -1.617   7.220  0.00  0.00    +0.106 C 
BRANCH  17  21
ATOM     21  C   LIG    1        6.493  -5.723   8.494  0.00  0.00    +0.204 C 
ATOM     22  C   LIG    1        7.471  -6.249   7.414  0.00  0.00    +0.043 C 
ATOM     23  C   LIG    1        7.873  -7.620   8.023  0.00  0.00    +0.031 C 
ATOM     24  C   LIG    1        7.863  -7.321   9.538  0.00  0.00    +0.161 C 
ATOM     25  O   LIG    1        7.040  -6.165   9.746  0.00  0.00    -0.367 OA
ENDBRANCH  17  21
ENDBRANCH   7  13
BRANCH  11  26
ATOM     26  N   LIG    1        2.413   1.624   4.152  0.00  0.00    -0.315 NA
ATOM     27  H   LIG    1        2.827   2.116   4.878  0.00  0.00    +0.120 HD
ATOM     28  H   LIG    1        1.980   2.101   3.427  0.00  0.00    +0.120 HD
ENDBRANCH  11  26
BRANCH   1  30
ATOM     29  C   LIG    1       -0.003   1.430   0.002  0.00  0.00    +0.194 C 
ATOM     30  O   LIG    1        0.017   0.001  -0.006  0.00  0.00    -0.377 OA
ENDBRANCH   1  30
BRANCH  12  31
ATOM     31  O   LIG    1        0.119  -2.742   0.089  0.00  0.00    -0.377 OA
ATOM     32  C   LIG    1        0.206  -4.164   0.194  0.00  0.00    +0.194 C 
ENDBRANCH  12  31
TORSDOF 5
