REMARK  Name = ZINC01028598
REMARK                            x       y       z     vdW  Elec       q    Type
REMARK                         _______ _______ _______ _____ _____    ______ ____
ROOT
ATOM      1  C   LIG    1       -0.018   1.503   0.010  0.00  0.00    +0.045 C 
ATOM      2  C   LIG    1        0.002  -0.004   0.002  0.00  0.00    -0.032 A 
ATOM      3  C   LIG    1        0.006  -0.686  -1.158  0.00  0.00    +0.051 A 
ATOM      4  S   LIG    1        0.032  -2.388  -0.629  0.00  0.00    -0.080 S 
ATOM      5  C   LIG    1        0.037  -2.134   1.136  0.00  0.00    +0.095 A 
ATOM      6  C   LIG    1        0.024  -0.748   1.236  0.00  0.00    +0.040 A 
ENDROOT
BRANCH   6   7
ATOM      7  C   LIG    1        0.027  -0.071   2.543  0.00  0.00    +0.112 A 
ATOM      8  N   LIG    1        0.006   1.221   2.805  0.00  0.00    -0.239 NA
ATOM      9  C   LIG    1        0.012   1.703   4.064  0.00  0.00    +0.079 A 
ATOM     10  C   LIG    1       -0.008   3.055   4.481  0.00  0.00    +0.029 A 
ATOM     11  C   LIG    1        0.003   3.377   5.813  0.00  0.00    +0.002 A 
ATOM     12  C   LIG    1        0.034   2.398   6.796  0.00  0.00    +0.001 A 
ATOM     13  C   LIG    1        0.053   1.065   6.424  0.00  0.00    +0.017 A 
ATOM     14  C   LIG    1        0.043   0.733   5.093  0.00  0.00    +0.040 A 
ATOM     15  S   LIG    1        0.052  -0.790   4.178  0.00  0.00    -0.067 S 
ENDBRANCH   6   7
BRANCH   5  16
ATOM     16  N   LIG    1        0.055  -3.079   2.151  0.00  0.00    -0.209 N 
ATOM     17  H   LIG    1        0.055  -2.790   3.092  0.00  0.00    +0.174 HD
BRANCH  16  18
ATOM     18  S   LIG    1        0.075  -4.692   1.780  0.00  0.00    +0.073 S 
ATOM     19  O   LIG    1        1.322  -4.947   1.147  0.00  0.00    -0.150 OA
ATOM     20  O   LIG    1       -1.169  -4.982   1.157  0.00  0.00    -0.150 OA
BRANCH  18  21
ATOM     21  C   LIG    1        0.095  -5.577   3.303  0.00  0.00    +0.109 A 
ATOM     22  C   LIG    1        1.299  -5.903   3.898  0.00  0.00    +0.030 A 
ATOM     23  C   LIG    1        1.315  -6.597   5.093  0.00  0.00    +0.022 A 
ATOM     24  C   LIG    1        0.124  -6.966   5.694  0.00  0.00    +0.041 A 
ATOM     25 CL   LIG    1        0.143  -7.838   7.195  0.00  0.00    -0.084 Cl
ATOM     26  C   LIG    1       -1.081  -6.640   5.098  0.00  0.00    +0.022 A 
ATOM     27  C   LIG    1       -1.095  -5.941   3.906  0.00  0.00    +0.030 A 
ENDBRANCH  18  21
ENDBRANCH  16  18
ENDBRANCH   5  16
TORSDOF 4
