REMARK  Name = ZINC00813578
REMARK                            x       y       z     vdW  Elec       q    Type
REMARK                         _______ _______ _______ _____ _____    ______ ____
ROOT
ATOM      1  C   LIG    1       -2.001  -6.092  -0.011  0.00  0.00    +0.144 C 
ATOM      2  C   LIG    1       -2.354  -6.579   1.375  0.00  0.00    +0.066 C 
ATOM      3  C   LIG    1       -3.572  -7.168   1.283  0.00  0.00    +0.188 C 
ATOM      4  C   LIG    1       -4.043  -7.092  -0.118  0.00  0.00    +0.282 C 
ATOM      5  O   LIG    1       -5.101  -7.530  -0.523  0.00  0.00    -0.267 OA
ATOM      6  N   LIG    1       -3.126  -6.463  -0.877  0.00  0.00    -0.283 N 
ENDROOT
BRANCH   1  10
ATOM      7  C   LIG    1       -1.498  -1.848   0.006  0.00  0.00    +0.121 A 
ATOM      8  C   LIG    1       -0.388  -2.679  -0.003  0.00  0.00    +0.046 A 
ATOM      9  C   LIG    1       -0.553  -4.051  -0.008  0.00  0.00    +0.009 A 
ATOM     10  C   LIG    1       -1.823  -4.596  -0.005  0.00  0.00    -0.022 A 
ATOM     11  C   LIG    1       -2.932  -3.769   0.004  0.00  0.00    +0.009 A 
ATOM     12  C   LIG    1       -2.772  -2.397   0.016  0.00  0.00    +0.046 A 
BRANCH   7  13
ATOM     13  O   LIG    1       -1.339  -0.499   0.012  0.00  0.00    -0.492 OA
BRANCH  13  15
ATOM     14  C   LIG    1       -0.019   1.526   0.010  0.00  0.00    +0.048 C 
ATOM     15  C   LIG    1        0.002  -0.004   0.002  0.00  0.00    +0.225 C 
ENDBRANCH  13  15
ENDBRANCH   7  13
ENDBRANCH   1  10
BRANCH   2  16
ATOM     16  C   LIG    1       -1.567  -6.445   2.543  0.00  0.00    +0.162 C 
ATOM     17  C   LIG    1       -0.228  -5.759   2.474  0.00  0.00    +0.091 C 
ATOM     18  O   LIG    1       -1.971  -6.884   3.600  0.00  0.00    -0.292 OA
ENDBRANCH   2  16
BRANCH   3  19
ATOM     19  O   LIG    1       -4.247  -7.736   2.307  0.00  0.00    -0.502 OA
ATOM     20  H   LIG    1       -3.876  -7.742   3.167  0.00  0.00    +0.292 HD
ENDBRANCH   3  19
BRANCH   6  21
ATOM     21  C   LIG    1       -3.231  -6.196  -2.314  0.00  0.00    +0.114 C 
BRANCH  21  22
ATOM     22  C   LIG    1       -2.634  -7.367  -3.096  0.00  0.00    +0.056 C 
BRANCH  22  23
ATOM     23  C   LIG    1       -2.743  -7.093  -4.574  0.00  0.00    -0.021 A 
ATOM     24  C   LIG    1       -3.724  -7.503  -5.392  0.00  0.00    +0.087 A 
ATOM     25  N   LIG    1       -3.485  -7.063  -6.665  0.00  0.00    -0.360 N 
ATOM     26  C   LIG    1       -2.314  -6.340  -6.698  0.00  0.00    +0.047 A 
ATOM     27  C   LIG    1       -1.621  -5.684  -7.710  0.00  0.00    +0.026 A 
ATOM     28  C   LIG    1       -0.451  -5.017  -7.418  0.00  0.00    +0.002 A 
ATOM     29  C   LIG    1        0.053  -5.005  -6.125  0.00  0.00    +0.001 A 
ATOM     30  C   LIG    1       -0.609  -5.647  -5.116  0.00  0.00    +0.010 A 
ATOM     31  H   LIG    1       -4.056  -7.234  -7.431  0.00  0.00    +0.165 HD
ATOM     32  C   LIG    1       -1.801  -6.321  -5.388  0.00  0.00    +0.003 A 
ENDBRANCH  22  23
ENDBRANCH  21  22
ENDBRANCH   6  21
TORSDOF 8
