REMARK  Name = ZINC01386814
REMARK                            x       y       z     vdW  Elec       q    Type
REMARK                         _______ _______ _______ _____ _____    ______ ____
ROOT
ATOM      1  C   LIG    1        0.606  -0.608  -1.056  0.00  0.00    +0.162 A 
ATOM      2  C   LIG    1        1.162   0.157  -2.043  0.00  0.00    +0.062 A 
ATOM      3  C   LIG    1        1.784  -0.463  -3.133  0.00  0.00    +0.044 A 
ATOM      4  C   LIG    1        1.835  -1.877  -3.207  0.00  0.00    +0.080 A 
ATOM      5  N   LIG    1        2.438  -2.447  -4.262  0.00  0.00    -0.235 NA
ATOM      6  C   LIG    1        2.970  -1.705  -5.204  0.00  0.00    +0.223 A 
ATOM      7  N   LIG    1        2.947  -0.382  -5.177  0.00  0.00    -0.220 NA
ATOM      8  C   LIG    1        1.258  -2.641  -2.185  0.00  0.00    +0.078 A 
ATOM      9  C   LIG    1        2.376   0.282  -4.180  0.00  0.00    +0.130 A 
ATOM     10  C   LIG    1        0.657  -2.007  -1.120  0.00  0.00    +0.164 A 
ENDROOT
BRANCH   1  12
ATOM     11  C   LIG    1       -0.017   1.425   0.010  0.00  0.00    +0.277 C 
ATOM     12  O   LIG    1        0.002  -0.004   0.002  0.00  0.00    -0.491 OA
ENDBRANCH   1  12
BRANCH   9  13
ATOM     13  N   LIG    1        2.359   1.661  -4.166  0.00  0.00    -0.324 N 
ATOM     14  H   LIG    1        1.938   2.133  -3.431  0.00  0.00    +0.148 HD
BRANCH  13  15
ATOM     15  C   LIG    1        2.978   2.413  -5.261  0.00  0.00    +0.138 C 
BRANCH  15  16
ATOM     16  C   LIG    1        2.823   3.890  -5.005  0.00  0.00    -0.030 A 
ATOM     17  C   LIG    1        1.709   4.559  -5.476  0.00  0.00    +0.008 A 
ATOM     18  C   LIG    1        1.566   5.914  -5.242  0.00  0.00    +0.038 A 
ATOM     19  C   LIG    1        2.540   6.601  -4.537  0.00  0.00    +0.123 A 
ATOM     20  F   LIG    1        2.401   7.925  -4.308  0.00  0.00    -0.205 F 
ATOM     21  C   LIG    1        3.655   5.929  -4.066  0.00  0.00    +0.038 A 
ATOM     22  C   LIG    1        3.793   4.574  -4.296  0.00  0.00    +0.008 A 
ENDBRANCH  15  16
ENDBRANCH  13  15
ENDBRANCH   9  13
BRANCH  10  23
ATOM     23  O   LIG    1        0.102  -2.745  -0.124  0.00  0.00    -0.491 OA
ATOM     24  C   LIG    1        0.185  -4.167  -0.246  0.00  0.00    +0.277 C 
ENDBRANCH  10  23
TORSDOF 5
