REMARK  Name = ZINC01026781
REMARK                            x       y       z     vdW  Elec       q    Type
REMARK                         _______ _______ _______ _____ _____    ______ ____
ROOT
ATOM      1  N   LIG    1        0.020  -4.103   0.168  0.00  0.00    -0.277 N 
ENDROOT
BRANCH   1   2
ATOM      2  C   LIG    1        1.219  -4.819   0.265  0.00  0.00    +0.036 A 
ATOM      3  C   LIG    1        1.506  -5.541   1.416  0.00  0.00    +0.026 A 
ATOM      4  C   LIG    1        2.690  -6.247   1.509  0.00  0.00    +0.040 A 
ATOM      5  C   LIG    1        3.590  -6.233   0.457  0.00  0.00    +0.124 A 
ATOM      6  F   LIG    1        4.748  -6.923   0.551  0.00  0.00    -0.205 F 
ATOM      7  C   LIG    1        3.305  -5.514  -0.691  0.00  0.00    +0.040 A 
ATOM      8  C   LIG    1        2.120  -4.811  -0.791  0.00  0.00    +0.026 A 
ENDBRANCH   1   2
BRANCH   1  11
ATOM      9  N   LIG    1        1.148  -2.110   0.777  0.00  0.00    -0.338 N 
ATOM     10  H   LIG    1        1.985  -2.596   0.829  0.00  0.00    +0.168 HD
ATOM     11  C   LIG    1       -0.015  -2.777   0.503  0.00  0.00    +0.136 C 
BRANCH   9  16
ATOM     12  C   LIG    1        1.895   1.208   2.174  0.00  0.00    +0.003 A 
ATOM     13  C   LIG    1        1.091   2.010   1.386  0.00  0.00    +0.012 A 
ATOM     14  C   LIG    1        0.305   1.448   0.397  0.00  0.00    +0.057 A 
ATOM     15  C   LIG    1        0.322   0.083   0.192  0.00  0.00    +0.038 A 
ATOM     16  C   LIG    1        1.129  -0.726   0.981  0.00  0.00    +0.041 A 
ATOM     17  C   LIG    1        1.917  -0.159   1.975  0.00  0.00    +0.026 A 
BRANCH  14  18
ATOM     18  C   LIG    1       -0.571   2.327  -0.458  0.00  0.00    +0.417 C 
ATOM     19  F   LIG    1       -1.908   1.945  -0.304  0.00  0.00    -0.166 F 
ATOM     20  F   LIG    1       -0.200   2.191  -1.800  0.00  0.00    -0.166 F 
ATOM     21  F   LIG    1       -0.419   3.661  -0.065  0.00  0.00    -0.166 F 
ENDBRANCH  14  18
ENDBRANCH   9  16
BRANCH  11  22
ATOM     22  S   LIG    1       -1.468  -1.978   0.578  0.00  0.00    -0.109 S 
ATOM     23  H   LIG    1       -1.254  -0.681   0.928  0.00  0.00    +0.110 HD
ENDBRANCH  11  22
ENDBRANCH   1  11
BRANCH   1  24
ATOM     24  C   LIG    1       -1.198  -4.774  -0.292  0.00  0.00    +0.148 C 
BRANCH  24  25
ATOM     25  C   LIG    1       -1.300  -4.657  -1.791  0.00  0.00    -0.026 A 
ATOM     26  C   LIG    1       -1.952  -3.577  -2.356  0.00  0.00    +0.009 A 
ATOM     27  C   LIG    1       -2.048  -3.465  -3.731  0.00  0.00    +0.050 A 
ATOM     28  C   LIG    1       -1.491  -4.436  -4.546  0.00  0.00    +0.166 A 
ATOM     29  C   LIG    1       -0.834  -5.525  -3.977  0.00  0.00    +0.167 A 
ATOM     30  O   LIG    1       -0.378  -6.332  -4.979  0.00  0.00    -0.453 OA
ATOM     31  C   LIG    1       -1.115  -5.940  -6.153  0.00  0.00    +0.466 C 
ATOM     32  O   LIG    1       -1.446  -4.561  -5.904  0.00  0.00    -0.453 OA
ATOM     33  C   LIG    1       -0.737  -5.628  -2.599  0.00  0.00    +0.054 A 
ENDBRANCH  24  25
ENDBRANCH   1  24
TORSDOF 7
