REMARK  Name = ZINC00859479
REMARK                            x       y       z     vdW  Elec       q    Type
REMARK                         _______ _______ _______ _____ _____    ______ ____
ROOT
ATOM      1  C   LIG    1       -2.952   0.755   2.261  0.00  0.00    +0.120 A 
ATOM      2  C   LIG    1       -4.330   0.723   2.236  0.00  0.00    +0.042 A 
ATOM      3  C   LIG    1       -5.057   1.886   2.499  0.00  0.00    +0.039 A 
ATOM      4  C   LIG    1       -4.382   3.074   2.787  0.00  0.00    +0.014 A 
ATOM      5  C   LIG    1       -3.004   3.092   2.809  0.00  0.00    +0.018 A 
ATOM      6  C   LIG    1       -2.288   1.935   2.552  0.00  0.00    +0.044 A 
ATOM      7 BR   LIG    1       -0.398   1.967   2.592  0.00  0.00    -0.048 Br
ENDROOT
BRANCH   3   8
ATOM      8  C   LIG    1       -6.534   1.859   2.474  0.00  0.00    +0.248 C 
ATOM      9  N   LIG    1       -7.233   2.983   2.729  0.00  0.00    -0.281 N 
ATOM     10  H   LIG    1       -6.768   3.826   2.851  0.00  0.00    +0.155 HD
ATOM     11  O   LIG    1       -7.119   0.824   2.223  0.00  0.00    -0.270 OA
BRANCH   9  12
ATOM     12  C   LIG    1       -8.620   2.934   2.817  0.00  0.00    +0.048 A 
ATOM     13  C   LIG    1       -9.248   1.804   3.323  0.00  0.00    +0.024 A 
ATOM     14  C   LIG    1      -10.625   1.758   3.409  0.00  0.00    +0.002 A 
ATOM     15  C   LIG    1      -11.391   2.836   2.993  0.00  0.00    +0.001 A 
ATOM     16  C   LIG    1      -10.787   3.966   2.488  0.00  0.00    +0.017 A 
ATOM     17  C   LIG    1       -9.393   4.030   2.399  0.00  0.00    +0.080 A 
BRANCH  17  18
ATOM     18  C   LIG    1       -8.740   5.237   1.866  0.00  0.00    +0.339 C 
ATOM     19  O   LIG    1       -9.406   6.231   1.612  0.00  0.00    -0.245 OA
BRANCH  18  20
ATOM     20  O   LIG    1       -7.531   5.245   1.678  0.00  0.00    -0.477 OA
ATOM     21  H   LIG    1       -7.021   4.484   1.873  0.00  0.00    +0.295 HD
ENDBRANCH  18  20
ENDBRANCH  17  18
ENDBRANCH   9  12
ENDBRANCH   3   8
BRANCH   1  22
ATOM     22  S   LIG    1       -2.033  -0.712   1.929  0.00  0.00    +0.062 S 
ATOM     23  O   LIG    1       -1.012  -0.784   2.915  0.00  0.00    -0.153 OA
ATOM     24  O   LIG    1       -2.982  -1.751   1.737  0.00  0.00    -0.153 OA
BRANCH  22  25
ATOM     25  N   LIG    1       -1.270  -0.493   0.475  0.00  0.00    -0.177 NA
BRANCH  25  27
ATOM     26  C   LIG    1        0.208   1.319  -0.242  0.00  0.00    +0.022 C 
ATOM     27  C   LIG    1        0.125  -0.049   0.439  0.00  0.00    +0.106 C 
ENDBRANCH  25  27
BRANCH  25  28
ATOM     28  C   LIG    1       -1.992  -0.743  -0.775  0.00  0.00    +0.106 C 
ATOM     29  C   LIG    1       -1.705  -2.168  -1.253  0.00  0.00    +0.022 C 
ENDBRANCH  25  28
ENDBRANCH  22  25
ENDBRANCH   1  22
TORSDOF 8
