REMARK  Name = ZINC00875118
REMARK                            x       y       z     vdW  Elec       q    Type
REMARK                         _______ _______ _______ _____ _____    ______ ____
ROOT
ATOM      1  N   LIG    1        1.425  -3.064   5.659  0.00  0.00    -0.304 N 
ENDROOT
BRANCH   1   2
ATOM      2  C   LIG    1        2.154  -4.139   5.298  0.00  0.00    +0.138 C 
ATOM      3  S   LIG    1        1.385  -5.498   4.596  0.00  0.00    -0.018 S 
BRANCH   2   4
ATOM      4  N   LIG    1        3.489  -4.144   5.488  0.00  0.00    -0.297 N 
ATOM      5  H   LIG    1        3.935  -3.345   5.810  0.00  0.00    +0.154 HD
BRANCH   4  10
ATOM      6  C   LIG    1        6.492  -8.833   4.409  0.00  0.00    +0.044 C 
ATOM      7  C   LIG    1        5.694  -7.587   4.696  0.00  0.00    -0.050 A 
ATOM      8  C   LIG    1        6.186  -6.351   4.319  0.00  0.00    +0.005 A 
ATOM      9  C   LIG    1        5.457  -5.207   4.581  0.00  0.00    +0.023 A 
ATOM     10  C   LIG    1        4.229  -5.300   5.222  0.00  0.00    +0.033 A 
ATOM     11  C   LIG    1        3.741  -6.543   5.604  0.00  0.00    +0.023 A 
ATOM     12  C   LIG    1        4.471  -7.683   5.334  0.00  0.00    +0.005 A 
ENDBRANCH   4  10
ENDBRANCH   2   4
ENDBRANCH   1   2
BRANCH   1  13
ATOM     13  C   LIG    1       -0.025  -3.060   5.452  0.00  0.00    +0.147 C 
BRANCH  13  14
ATOM     14  C   LIG    1       -0.336  -2.497   4.088  0.00  0.00    +0.035 A 
ATOM     15  C   LIG    1       -0.513  -3.334   3.037  0.00  0.00    +0.020 A 
ATOM     16  C   LIG    1       -0.813  -2.756   1.726  0.00  0.00    -0.001 A 
ATOM     17  C   LIG    1       -1.006  -3.569   0.603  0.00  0.00    +0.010 A 
ATOM     18  C   LIG    1       -1.284  -2.998  -0.606  0.00  0.00    +0.001 A 
ATOM     19  C   LIG    1       -1.384  -1.619  -0.730  0.00  0.00    +0.005 A 
ATOM     20  C   LIG    1       -1.192  -0.798   0.360  0.00  0.00    -0.026 A 
ATOM     21  C   LIG    1       -1.296   0.697   0.210  0.00  0.00    +0.046 C 
ATOM     22  C   LIG    1       -0.907  -1.357   1.602  0.00  0.00    +0.052 A 
ATOM     23  N   LIG    1       -0.715  -0.561   2.711  0.00  0.00    -0.322 N 
ATOM     24  H   LIG    1       -0.780   0.403   2.624  0.00  0.00    +0.169 HD
ATOM     25  C   LIG    1       -0.440  -1.101   3.911  0.00  0.00    +0.254 A 
ATOM     26  O   LIG    1       -0.277  -0.366   4.870  0.00  0.00    -0.268 OA
ENDBRANCH  13  14
ENDBRANCH   1  13
BRANCH   1  27
ATOM     27  C   LIG    1        2.084  -1.901   6.259  0.00  0.00    +0.142 C 
BRANCH  27  28
ATOM     28  C   LIG    1        2.123  -2.063   7.757  0.00  0.00    -0.026 A 
ATOM     29  C   LIG    1        1.084  -1.578   8.530  0.00  0.00    +0.009 A 
ATOM     30  C   LIG    1        1.113  -1.730   9.904  0.00  0.00    +0.050 A 
ATOM     31  C   LIG    1        2.189  -2.357  10.510  0.00  0.00    +0.166 A 
ATOM     32  C   LIG    1        3.238  -2.841   9.731  0.00  0.00    +0.167 A 
ATOM     33  O   LIG    1        4.166  -3.410  10.554  0.00  0.00    -0.453 OA
ATOM     34  C   LIG    1        3.871  -2.909  11.872  0.00  0.00    +0.466 C 
ATOM     35  O   LIG    1        2.460  -2.624  11.821  0.00  0.00    -0.453 OA
ATOM     36  C   LIG    1        3.199  -2.691   8.355  0.00  0.00    +0.054 A 
ENDBRANCH  27  28
ENDBRANCH   1  27
TORSDOF 7
