REMARK  Name = ZINC00975814
REMARK                            x       y       z     vdW  Elec       q    Type
REMARK                         _______ _______ _______ _____ _____    ______ ____
ROOT
ATOM      1  C   LIG    1       -5.238   2.069  -0.168  0.00  0.00    +0.137 A 
ATOM      2  C   LIG    1       -5.744   3.348  -0.220  0.00  0.00    +0.050 A 
ATOM      3  C   LIG    1       -4.656   4.221  -0.146  0.00  0.00    +0.050 A 
ATOM      4  C   LIG    1       -3.520   3.437  -0.052  0.00  0.00    +0.130 A 
ATOM      5  O   LIG    1       -3.898   2.142  -0.073  0.00  0.00    -0.455 OA
ENDROOT
BRANCH   4   6
ATOM      6  C   LIG    1       -2.194   3.910   0.044  0.00  0.00    +0.066 C 
ATOM      7  C   LIG    1       -1.153   3.027   0.052  0.00  0.00    +0.082 C 
ATOM      8  C   LIG    1       -1.158   1.616  -0.161  0.00  0.00    +0.258 C 
ATOM      9  N   LIG    1       -0.004   0.974  -0.097  0.00  0.00    -0.243 N 
ATOM     10  H   LIG    1        0.017   0.014  -0.235  0.00  0.00    +0.159 HD
ATOM     11  C   LIG    1        1.147   1.637   0.152  0.00  0.00    +0.283 C 
ATOM     12  O   LIG    1        2.278   1.196   0.236  0.00  0.00    -0.262 OA
ATOM     13  O   LIG    1       -2.195   1.020  -0.391  0.00  0.00    -0.269 OA
ATOM     14  S   LIG    1        0.588   3.325   0.326  0.00  0.00    -0.026 S 
ENDBRANCH   4   6
BRANCH   1  17
ATOM     15  C   LIG    1       -6.433  -1.353  -1.146  0.00  0.00    +0.002 A 
ATOM     16  C   LIG    1       -5.688  -0.193  -1.107  0.00  0.00    +0.013 A 
ATOM     17  C   LIG    1       -6.032   0.826  -0.216  0.00  0.00    +0.037 A 
ATOM     18  C   LIG    1       -7.129   0.660   0.635  0.00  0.00    +0.070 A 
ATOM     19 CL   LIG    1       -7.562   1.917   1.752  0.00  0.00    -0.081 Cl
ATOM     20  C   LIG    1       -7.870  -0.504   0.581  0.00  0.00    +0.060 A 
ATOM     21 CL   LIG    1       -9.237  -0.711   1.630  0.00  0.00    -0.082 Cl
ATOM     22  C   LIG    1       -7.521  -1.509  -0.306  0.00  0.00    +0.021 A 
ENDBRANCH   1  17
TORSDOF 2
