REMARK  Name = ZINC01213187
REMARK                            x       y       z     vdW  Elec       q    Type
REMARK                         _______ _______ _______ _____ _____    ______ ____
ROOT
ATOM      1  C   LIG    1        5.133   0.304  -0.398  0.00  0.00    +0.029 A 
ATOM      2  C   LIG    1        5.650   0.612   0.860  0.00  0.00    +0.036 A 
ATOM      3  C   LIG    1        6.877   1.248   0.965  0.00  0.00    +0.049 A 
ATOM      4  C   LIG    1        7.591   1.578  -0.181  0.00  0.00    +0.028 A 
ATOM      5  C   LIG    1        7.082   1.276  -1.430  0.00  0.00    +0.048 A 
ATOM      6  C   LIG    1        5.860   0.635  -1.547  0.00  0.00    +0.125 A 
ENDROOT
BRANCH   1  15
ATOM      7  C   LIG    1        0.270   1.819  -0.811  0.00  0.00    +0.001 A 
ATOM      8  C   LIG    1        1.491   2.479  -0.699  0.00  0.00    +0.001 A 
ATOM      9  C   LIG    1        2.658   1.783  -0.602  0.00  0.00    +0.009 A 
ATOM     10  C   LIG    1        2.632   0.380  -0.615  0.00  0.00    -0.007 A 
ATOM     11  C   LIG    1        1.391  -0.293  -0.729  0.00  0.00    -0.017 A 
ATOM     12  C   LIG    1        1.361  -1.698  -0.741  0.00  0.00    +0.012 A 
ATOM     13  C   LIG    1        2.519  -2.407  -0.644  0.00  0.00    +0.046 A 
ATOM     14  C   LIG    1        3.751  -1.763  -0.531  0.00  0.00    +0.125 A 
ATOM     15  C   LIG    1        3.824  -0.376  -0.517  0.00  0.00    +0.035 A 
ATOM     16  C   LIG    1        0.207   0.460  -0.827  0.00  0.00    +0.008 A 
BRANCH  14  17
ATOM     17  O   LIG    1        4.889  -2.498  -0.436  0.00  0.00    -0.506 OA
ATOM     18  H   LIG    1        5.296  -2.705  -1.288  0.00  0.00    +0.292 HD
ENDBRANCH  14  17
ENDBRANCH   1  15
BRANCH   3  19
ATOM     19  N   LIG    1        7.398   1.558   2.226  0.00  0.00    -0.216 N 
ATOM     20  H   LIG    1        6.832   1.970   2.897  0.00  0.00    +0.174 HD
BRANCH  19  21
ATOM     21  S   LIG    1        8.982   1.220   2.574  0.00  0.00    +0.074 S 
ATOM     22  O   LIG    1        9.174   1.540   3.944  0.00  0.00    -0.150 OA
ATOM     23  O   LIG    1        9.759   1.805   1.538  0.00  0.00    -0.150 OA
BRANCH  21  24
ATOM     24  C   LIG    1        9.185  -0.525   2.431  0.00  0.00    +0.128 A 
ATOM     25  C   LIG    1       10.022  -1.046   1.462  0.00  0.00    +0.050 A 
ATOM     26  C   LIG    1       10.182  -2.416   1.351  0.00  0.00    +0.043 A 
ATOM     27 CL   LIG    1       11.232  -3.070   0.133  0.00  0.00    -0.083 Cl
ATOM     28  C   LIG    1        9.504  -3.264   2.209  0.00  0.00    +0.021 A 
ATOM     29  C   LIG    1        8.668  -2.743   3.177  0.00  0.00    +0.023 A 
ATOM     30  C   LIG    1        8.512  -1.372   3.293  0.00  0.00    +0.068 A 
ATOM     31 CL   LIG    1        7.467  -0.717   4.514  0.00  0.00    -0.082 Cl
ENDBRANCH  21  24
ENDBRANCH  19  21
ENDBRANCH   3  19
BRANCH   6  32
ATOM     32  O   LIG    1        5.364   0.332  -2.776  0.00  0.00    -0.506 OA
ATOM     33  H   LIG    1        4.816   1.030  -3.162  0.00  0.00    +0.292 HD
ENDBRANCH   6  32
TORSDOF 6
