REMARK  Name = ZINC00976551
REMARK                            x       y       z     vdW  Elec       q    Type
REMARK                         _______ _______ _______ _____ _____    ______ ____
ROOT
ATOM      1  C   LIG    1        3.250   0.086  -0.459  0.00  0.00    +0.140 C 
ATOM      2  N   LIG    1        1.815   0.380  -0.407  0.00  0.00    -0.255 N 
ATOM      3  C   LIG    1        1.296   1.623  -0.442  0.00  0.00    +0.242 C 
ATOM      4  C   LIG    1       -0.207   1.441  -0.364  0.00  0.00    +0.171 C 
ATOM      5  N   LIG    1       -0.376  -0.020  -0.289  0.00  0.00    -0.296 N 
ATOM      6  O   LIG    1        1.904   2.669  -0.519  0.00  0.00    -0.273 OA
ATOM      7  C   LIG    1        0.860  -0.552  -0.321  0.00  0.00    +0.143 C 
ATOM      8  S   LIG    1        1.173  -2.234  -0.257  0.00  0.00    -0.018 S 
ENDROOT
BRANCH   4   9
ATOM      9  C   LIG    1       -0.767   2.113   0.891  0.00  0.00    +0.128 C 
BRANCH   9  10
ATOM     10  C   LIG    1       -0.701   3.611   0.731  0.00  0.00    +0.219 C 
ATOM     11  N   LIG    1       -1.016   4.413   1.767  0.00  0.00    -0.285 N 
ATOM     12  H   LIG    1       -1.355   4.031   2.591  0.00  0.00    +0.155 HD
ATOM     13  O   LIG    1       -0.365   4.093  -0.330  0.00  0.00    -0.275 OA
BRANCH  11  14
ATOM     14  C   LIG    1       -0.855   5.793   1.653  0.00  0.00    +0.033 A 
ATOM     15  C   LIG    1        0.186   6.310   0.888  0.00  0.00    +0.024 A 
ATOM     16  C   LIG    1        0.345   7.672   0.769  0.00  0.00    +0.017 A 
ATOM     17  C   LIG    1       -0.535   8.537   1.426  0.00  0.00    +0.059 A 
ATOM     18  C   LIG    1       -1.577   8.014   2.198  0.00  0.00    +0.017 A 
ATOM     19  C   LIG    1       -1.733   6.651   2.309  0.00  0.00    +0.024 A 
BRANCH  17  20
ATOM     20  C   LIG    1       -0.365   9.996   1.305  0.00  0.00    +0.339 C 
ATOM     21  O   LIG    1       -1.132  10.747   1.877  0.00  0.00    -0.245 OA
BRANCH  20  22
ATOM     22  O   LIG    1        0.639  10.498   0.561  0.00  0.00    -0.464 OA
ATOM     23  C   LIG    1        0.746  11.945   0.487  0.00  0.00    +0.280 C 
ENDBRANCH  20  22
ENDBRANCH  17  20
ENDBRANCH  11  14
ENDBRANCH   9  10
ENDBRANCH   4   9
BRANCH   5  24
ATOM     24  C   LIG    1       -1.642  -0.752  -0.198  0.00  0.00    +0.142 C 
BRANCH  24  25
ATOM     25  C   LIG    1       -2.155  -1.043  -1.585  0.00  0.00    -0.030 A 
ATOM     26  C   LIG    1       -2.993  -0.141  -2.214  0.00  0.00    +0.009 A 
ATOM     27  C   LIG    1       -3.460  -0.403  -3.487  0.00  0.00    +0.046 A 
ATOM     28  C   LIG    1       -3.096  -1.577  -4.131  0.00  0.00    +0.120 A 
ATOM     29  C   LIG    1       -2.259  -2.482  -3.495  0.00  0.00    +0.046 A 
ATOM     30  C   LIG    1       -1.790  -2.213  -2.224  0.00  0.00    +0.009 A 
BRANCH  28  31
ATOM     31  O   LIG    1       -3.558  -1.839  -5.381  0.00  0.00    -0.495 OA
ATOM     32  C   LIG    1       -4.416  -0.862  -5.974  0.00  0.00    +0.277 C 
ENDBRANCH  28  31
ENDBRANCH  24  25
ENDBRANCH   5  24
TORSDOF 8
