REMARK  Name = ZINC01336325
REMARK                            x       y       z     vdW  Elec       q    Type
REMARK                         _______ _______ _______ _____ _____    ______ ____
ROOT
ATOM      1  C   LIG    1        4.541   5.489   1.355  0.00  0.00    +0.063 C 
ATOM      2  C   LIG    1        3.145   6.109   1.455  0.00  0.00    +0.030 C 
ATOM      3  C   LIG    1        2.326   5.712   0.223  0.00  0.00    +0.109 C 
ATOM      4  N   LIG    1        2.329   4.248   0.104  0.00  0.00    -0.297 N 
ATOM      5  C   LIG    1        1.171   3.564   0.009  0.00  0.00    +0.247 C 
ATOM      6  O   LIG    1        0.115   4.163  -0.047  0.00  0.00    -0.270 OA
ATOM      7  C   LIG    1        3.618   3.543   0.096  0.00  0.00    +0.109 C 
ATOM      8  C   LIG    1        4.423   3.964   1.324  0.00  0.00    +0.030 C 
ENDROOT
BRANCH   5   9
ATOM      9  C   LIG    1        1.187   2.087  -0.025  0.00  0.00    +0.037 A 
ATOM     10  C   LIG    1        0.366   1.357   0.837  0.00  0.00    +0.014 A 
ATOM     11  C   LIG    1        0.384  -0.021   0.800  0.00  0.00    +0.021 A 
ATOM     12  C   LIG    1        1.215  -0.682  -0.090  0.00  0.00    +0.041 A 
ATOM     13 CL   LIG    1        1.233  -2.417  -0.130  0.00  0.00    -0.084 Cl
ATOM     14  C   LIG    1        2.031   0.037  -0.948  0.00  0.00    +0.021 A 
ATOM     15  C   LIG    1        2.021   1.415  -0.920  0.00  0.00    +0.014 A 
ENDBRANCH   5   9
BRANCH   1  16
ATOM     16  C   LIG    1        5.361   5.905   2.549  0.00  0.00    +0.166 C 
ATOM     17  O   LIG    1        4.818   6.129   3.610  0.00  0.00    -0.292 OA
BRANCH  16  24
ATOM     18  C   LIG    1        7.451   5.775   1.207  0.00  0.00    +0.014 A 
ATOM     19  C   LIG    1        8.818   5.908   1.099  0.00  0.00    +0.039 A 
ATOM     20  C   LIG    1        9.570   6.290   2.200  0.00  0.00    +0.123 A 
ATOM     21  F   LIG    1       10.911   6.413   2.089  0.00  0.00    -0.205 F 
ATOM     22  C   LIG    1        8.951   6.548   3.415  0.00  0.00    +0.039 A 
ATOM     23  C   LIG    1        7.585   6.425   3.535  0.00  0.00    +0.014 A 
ATOM     24  C   LIG    1        6.820   6.039   2.428  0.00  0.00    +0.018 A 
ENDBRANCH  16  24
ENDBRANCH   1  16
TORSDOF 3
