REMARK  Name = ZINC01094958
REMARK                            x       y       z     vdW  Elec       q    Type
REMARK                         _______ _______ _______ _____ _____    ______ ____
ROOT
ATOM      1  C   LIG    1        5.786  -1.866   1.477  0.00  0.00    +0.066 C 
ATOM      2  C   LIG    1        6.522  -2.284   2.593  0.00  0.00    +0.132 C 
ATOM      3  C   LIG    1        7.790  -2.985   2.434  0.00  0.00    +0.229 C 
ATOM      4  N   LIG    1        8.167  -3.621   1.378  0.00  0.00    -0.230 NA
ATOM      5  C   LIG    1        7.375  -3.755   0.160  0.00  0.00    +0.205 C 
ATOM      6  S   LIG    1        6.435  -2.231  -0.126  0.00  0.00    -0.085 S 
ENDROOT
BRANCH   5   7
ATOM      7  C   LIG    1        8.292  -4.008  -1.009  0.00  0.00    +0.029 A 
ATOM      8  C   LIG    1        9.540  -3.416  -1.050  0.00  0.00    +0.010 A 
ATOM      9  C   LIG    1       10.381  -3.648  -2.123  0.00  0.00    +0.001 A 
ATOM     10  C   LIG    1        9.976  -4.473  -3.156  0.00  0.00    +0.004 A 
ATOM     11  C   LIG    1        8.730  -5.067  -3.119  0.00  0.00    +0.046 A 
ATOM     12  C   LIG    1        7.886  -4.841  -2.042  0.00  0.00    +0.123 A 
BRANCH  12  13
ATOM     13  O   LIG    1        6.662  -5.429  -2.000  0.00  0.00    -0.506 OA
ATOM     14  H   LIG    1        5.960  -4.906  -2.411  0.00  0.00    +0.292 HD
ENDBRANCH  12  13
ENDBRANCH   5   7
BRANCH   2  15
ATOM     15  C   LIG    1        6.022  -2.018   3.908  0.00  0.00    +0.106 C 
ATOM     16  N   LIG    1        5.626  -1.806   4.952  0.00  0.00    -0.191 NA
ENDBRANCH   2  15
BRANCH   3  17
ATOM     17  O   LIG    1        8.643  -2.967   3.484  0.00  0.00    -0.492 OA
ATOM     18  H   LIG    1        8.408  -2.516   4.271  0.00  0.00    +0.294 HD
ENDBRANCH   3  17
BRANCH   1  19
ATOM     19  S   LIG    1        4.257  -1.011   1.666  0.00  0.00    -0.112 S 
BRANCH  19  20
ATOM     20  C   LIG    1        3.711  -0.707  -0.038  0.00  0.00    +0.110 C 
BRANCH  20  24
ATOM     21  C   LIG    1       -0.017   1.378   0.010  0.00  0.00    +0.000 A 
ATOM     22  C   LIG    1        1.171   2.086   0.002  0.00  0.00    +0.000 A 
ATOM     23  C   LIG    1        2.377   1.411  -0.013  0.00  0.00    +0.004 A 
ATOM     24  C   LIG    1        2.396   0.029  -0.020  0.00  0.00    -0.037 A 
ATOM     25  C   LIG    1        1.208  -0.679  -0.012  0.00  0.00    +0.004 A 
ATOM     26  C   LIG    1        0.002  -0.004   0.002  0.00  0.00    +0.000 A 
ENDBRANCH  20  24
ENDBRANCH  19  20
ENDBRANCH   1  19
TORSDOF 7
