REMARK  Name = ZINC00828109
REMARK                            x       y       z     vdW  Elec       q    Type
REMARK                         _______ _______ _______ _____ _____    ______ ____
ROOT
ATOM      1  C   LIG    1       -2.073   0.531   3.713  0.00  0.00    +0.096 C 
ATOM      2  C   LIG    1       -3.070  -0.523   4.109  0.00  0.00    +0.008 A 
ATOM      3  C   LIG    1       -2.642  -1.675   4.742  0.00  0.00    +0.008 A 
ATOM      4  C   LIG    1       -3.555  -2.646   5.108  0.00  0.00    +0.002 A 
ATOM      5  C   LIG    1       -4.900  -2.468   4.841  0.00  0.00    +0.024 A 
ATOM      6  C   LIG    1       -5.334  -1.319   4.209  0.00  0.00    +0.083 A 
ATOM      7 CL   LIG    1       -7.023  -1.097   3.874  0.00  0.00    -0.080 Cl
ATOM      8  C   LIG    1       -4.417  -0.341   3.840  0.00  0.00    +0.150 A 
ATOM      9  O   LIG    1       -4.843   0.783   3.219  0.00  0.00    -0.458 OA
ATOM     10  C   LIG    1       -4.094   1.900   3.247  0.00  0.00    +0.114 C 
ATOM     11  C   LIG    1       -4.788   3.223   3.025  0.00  0.00    +0.081 C 
ATOM     12  C   LIG    1       -3.829   4.199   2.340  0.00  0.00    -0.021 C 
ATOM     13  C   LIG    1       -3.411   3.638   0.979  0.00  0.00    +0.012 C 
ATOM     14  C   LIG    1       -4.519   5.552   2.153  0.00  0.00    +0.012 C 
ATOM     15  C   LIG    1       -2.593   4.370   3.229  0.00  0.00    +0.086 C 
ATOM     16  C   LIG    1       -1.983   3.018   3.479  0.00  0.00    +0.164 C 
ATOM     17  O   LIG    1       -0.790   2.933   3.694  0.00  0.00    -0.292 OA
ATOM     18  C   LIG    1       -2.767   1.849   3.469  0.00  0.00    +0.045 C 
ENDROOT
BRANCH   1  24
ATOM     19  C   LIG    1       -0.019   1.526   0.010  0.00  0.00    +0.012 C 
ATOM     20  C   LIG    1        0.002  -0.004   0.002  0.00  0.00    -0.021 C 
ATOM     21  C   LIG    1       -1.434  -0.537   0.028  0.00  0.00    +0.086 C 
ATOM     22  C   LIG    1       -2.101  -0.104   1.307  0.00  0.00    +0.164 C 
ATOM     23  O   LIG    1       -3.312   0.069   1.327  0.00  0.00    -0.292 OA
ATOM     24  C   LIG    1       -1.367   0.100   2.454  0.00  0.00    +0.044 C 
ATOM     25  C   LIG    1       -0.002  -0.081   2.478  0.00  0.00    +0.102 C 
ATOM     26  C   LIG    1        0.713  -0.500  -1.259  0.00  0.00    +0.012 C 
ATOM     27  C   LIG    1        0.742  -0.514   1.242  0.00  0.00    +0.080 C 
BRANCH  25  28
ATOM     28  O   LIG    1        0.614   0.112   3.517  0.00  0.00    -0.511 OA
ATOM     29  H   LIG    1        0.158   0.382   4.289  0.00  0.00    +0.292 HD
ENDBRANCH  25  28
ENDBRANCH   1  24
TORSDOF 2
