REMARK  Name = ZINC00970406
REMARK                            x       y       z     vdW  Elec       q    Type
REMARK                         _______ _______ _______ _____ _____    ______ ____
ROOT
ATOM      1  C   LIG    1       -1.624  -1.893   2.906  0.00  0.00    +0.077 C 
ATOM      2  C   LIG    1       -3.082  -2.213   3.088  0.00  0.00    +0.004 A 
ATOM      3  C   LIG    1       -4.024  -1.637   2.257  0.00  0.00    +0.008 A 
ATOM      4  C   LIG    1       -5.365  -1.928   2.423  0.00  0.00    +0.001 A 
ATOM      5  C   LIG    1       -5.767  -2.797   3.421  0.00  0.00    +0.004 A 
ATOM      6  C   LIG    1       -4.830  -3.376   4.253  0.00  0.00    +0.046 A 
ATOM      7  C   LIG    1       -3.481  -3.085   4.089  0.00  0.00    +0.132 A 
ATOM      8  O   LIG    1       -2.564  -3.652   4.906  0.00  0.00    -0.460 OA
ATOM      9  C   LIG    1       -1.357  -3.081   5.072  0.00  0.00    +0.113 C 
ATOM     10  C   LIG    1       -0.577  -3.427   6.319  0.00  0.00    +0.081 C 
ATOM     11  C   LIG    1        0.277  -2.232   6.737  0.00  0.00    -0.021 C 
ATOM     12  C   LIG    1        1.094  -2.595   7.978  0.00  0.00    +0.012 C 
ATOM     13  C   LIG    1       -0.619  -1.029   7.040  0.00  0.00    +0.012 C 
ATOM     14  C   LIG    1        1.222  -1.892   5.579  0.00  0.00    +0.086 C 
ATOM     15  C   LIG    1        0.403  -1.628   4.345  0.00  0.00    +0.164 C 
ATOM     16  O   LIG    1        0.837  -0.880   3.491  0.00  0.00    -0.292 OA
ATOM     17  C   LIG    1       -0.855  -2.231   4.161  0.00  0.00    +0.042 C 
ENDROOT
BRANCH   1  24
ATOM     18  C   LIG    1       -1.303   1.594  -0.317  0.00  0.00    +0.012 C 
ATOM     19  C   LIG    1       -1.470   0.074  -0.373  0.00  0.00    -0.022 C 
ATOM     20  C   LIG    1       -1.546  -0.376  -1.833  0.00  0.00    +0.012 C 
ATOM     21  C   LIG    1       -2.759  -0.324   0.351  0.00  0.00    +0.082 C 
ATOM     22  C   LIG    1       -2.657   0.088   1.802  0.00  0.00    +0.145 C 
ATOM     23  O   LIG    1       -3.500   0.788   2.310  0.00  0.00    -0.297 OA
ATOM     24  C   LIG    1       -1.467  -0.402   2.602  0.00  0.00    +0.133 C 
ATOM     25  C   LIG    1       -0.229  -0.176   1.758  0.00  0.00    +0.145 C 
ATOM     26  O   LIG    1        0.763   0.324   2.231  0.00  0.00    -0.297 OA
ATOM     27  C   LIG    1       -0.271  -0.595   0.305  0.00  0.00    +0.082 C 
ENDBRANCH   1  24
TORSDOF 1
