REMARK  Name = ZINC00828108
REMARK                            x       y       z     vdW  Elec       q    Type
REMARK                         _______ _______ _______ _____ _____    ______ ____
ROOT
ATOM      1  C   LIG    1       -2.544   4.537   0.042  0.00  0.00    +0.096 C 
ATOM      2  C   LIG    1       -1.233   3.800   0.038  0.00  0.00    +0.008 A 
ATOM      3  C   LIG    1       -0.045   4.507   0.035  0.00  0.00    +0.008 A 
ATOM      4  C   LIG    1        1.163   3.834   0.026  0.00  0.00    +0.002 A 
ATOM      5  C   LIG    1        1.185   2.452   0.020  0.00  0.00    +0.024 A 
ATOM      6  C   LIG    1        0.001   1.741   0.025  0.00  0.00    +0.083 A 
ATOM      7 CL   LIG    1        0.030   0.005   0.017  0.00  0.00    -0.080 Cl
ATOM      8  C   LIG    1       -1.216   2.415   0.029  0.00  0.00    +0.150 A 
ATOM      9  O   LIG    1       -2.372   1.715   0.046  0.00  0.00    -0.458 OA
ATOM     10  C   LIG    1       -3.506   2.288  -0.393  0.00  0.00    +0.114 C 
ATOM     11  C   LIG    1       -4.623   1.380  -0.853  0.00  0.00    +0.081 C 
ATOM     12  C   LIG    1       -5.426   2.069  -1.958  0.00  0.00    -0.021 C 
ATOM     13  C   LIG    1       -6.579   1.165  -2.398  0.00  0.00    +0.012 C 
ATOM     14  C   LIG    1       -4.514   2.359  -3.152  0.00  0.00    +0.012 C 
ATOM     15  C   LIG    1       -5.983   3.384  -1.403  0.00  0.00    +0.086 C 
ATOM     16  C   LIG    1       -4.840   4.220  -0.894  0.00  0.00    +0.164 C 
ATOM     17  O   LIG    1       -4.943   5.430  -0.889  0.00  0.00    -0.292 OA
ATOM     18  C   LIG    1       -3.654   3.626  -0.424  0.00  0.00    +0.045 C 
ENDROOT
BRANCH   1  24
ATOM     19  C   LIG    1       -5.413   5.735   3.084  0.00  0.00    +0.012 C 
ATOM     20  C   LIG    1       -4.075   5.873   3.813  0.00  0.00    -0.021 C 
ATOM     21  C   LIG    1       -4.317   6.374   5.239  0.00  0.00    +0.012 C 
ATOM     22  C   LIG    1       -3.183   6.865   3.062  0.00  0.00    +0.080 C 
ATOM     23  C   LIG    1       -2.888   6.337   1.684  0.00  0.00    +0.102 C 
ATOM     24  C   LIG    1       -2.844   5.015   1.439  0.00  0.00    +0.044 C 
ATOM     25  C   LIG    1       -3.065   4.070   2.452  0.00  0.00    +0.164 C 
ATOM     26  O   LIG    1       -3.009   2.884   2.192  0.00  0.00    -0.292 OA
ATOM     27  C   LIG    1       -3.373   4.513   3.859  0.00  0.00    +0.086 C 
BRANCH  23  28
ATOM     28  O   LIG    1       -2.668   7.203   0.677  0.00  0.00    -0.511 OA
ATOM     29  H   LIG    1       -2.489   6.696  -0.166  0.00  0.00    +0.292 HD
ENDBRANCH  23  28
ENDBRANCH   1  24
TORSDOF 2
