REMARK  Name = ZINC00897320
REMARK                            x       y       z     vdW  Elec       q    Type
REMARK                         _______ _______ _______ _____ _____    ______ ____
ROOT
ATOM      1  C   LIG    1       -0.017   1.381   0.010  0.00  0.00    +0.024 A 
ATOM      2  C   LIG    1        1.167   2.094   0.002  0.00  0.00    +0.050 A 
ATOM      3  C   LIG    1        2.378   1.422  -0.013  0.00  0.00    +0.157 A 
ATOM      4  C   LIG    1        2.397   0.027  -0.021  0.00  0.00    +0.089 A 
ATOM      5  N   LIG    1        3.739  -0.353  -0.036  0.00  0.00    -0.288 N 
ATOM      6  H   LIG    1        4.077  -1.262  -0.043  0.00  0.00    +0.172 HD
ATOM      7  C   LIG    1        4.479   0.773  -0.037  0.00  0.00    +0.419 A 
ATOM      8  O   LIG    1        5.694   0.814  -0.048  0.00  0.00    -0.223 OA
ATOM      9  C   LIG    1        1.207  -0.682  -0.013  0.00  0.00    +0.049 A 
ATOM     10  O   LIG    1        3.668   1.842  -0.023  0.00  0.00    -0.408 OA
ATOM     11  C   LIG    1        0.002  -0.004   0.002  0.00  0.00    +0.043 A 
ATOM     12 CL   LIG    1       -1.491  -0.890   0.011  0.00  0.00    -0.083 Cl
ENDROOT
TORSDOF 0
