REMARK  Name = ZINC01113805
REMARK                            x       y       z     vdW  Elec       q    Type
REMARK                         _______ _______ _______ _____ _____    ______ ____
ROOT
ATOM      1  C   LIG    1        1.256   1.968   0.001  0.00  0.00    +0.038 A 
ATOM      2  C   LIG    1        1.237   3.362   0.003  0.00  0.00    +0.026 A 
ATOM      3  C   LIG    1        2.435   4.075  -0.001  0.00  0.00    +0.038 A 
ATOM      4  C   LIG    1        3.652   3.395  -0.015  0.00  0.00    +0.026 A 
ATOM      5  C   LIG    1        3.671   2.001  -0.022  0.00  0.00    +0.038 A 
ATOM      6  C   LIG    1        2.473   1.287  -0.015  0.00  0.00    +0.026 A 
ENDROOT
BRANCH   1   9
ATOM      7  N   LIG    1       -1.191   1.869   0.018  0.00  0.00    -0.304 N 
ATOM      8  H   LIG    1       -1.204   2.839   0.023  0.00  0.00    +0.149 HD
ATOM      9  C   LIG    1       -0.014   1.211   0.009  0.00  0.00    +0.244 C 
ATOM     10  O   LIG    1        0.002  -0.004   0.002  0.00  0.00    -0.270 OA
BRANCH   7  11
ATOM     11  C   LIG    1       -2.449   1.120   0.020  0.00  0.00    +0.179 C 
BRANCH  11  14
ATOM     12  C   LIG    1       -5.244   3.445  -0.586  0.00  0.00    +0.041 A 
ATOM     13  C   LIG    1       -4.218   2.592  -1.055  0.00  0.00    +0.046 A 
ATOM     14  C   LIG    1       -3.608   2.083   0.030  0.00  0.00    +0.122 A 
ATOM     15  O   LIG    1       -4.210   2.575   1.125  0.00  0.00    -0.466 OA
ATOM     16  C   LIG    1       -5.199   3.406   0.757  0.00  0.00    +0.195 A 
ENDBRANCH  11  14
ENDBRANCH   7  11
ENDBRANCH   1   9
BRANCH   3  17
ATOM     17  C   LIG    1        2.415   5.554   0.008  0.00  0.00    +0.244 C 
ATOM     18  N   LIG    1        1.239   6.212   0.021  0.00  0.00    -0.304 N 
ATOM     19  H   LIG    1        0.405   5.716   0.026  0.00  0.00    +0.149 HD
ATOM     20  O   LIG    1        3.459   6.176   0.002  0.00  0.00    -0.270 OA
BRANCH  18  21
ATOM     21  C   LIG    1        1.219   7.677   0.030  0.00  0.00    +0.179 C 
BRANCH  21  22
ATOM     22  C   LIG    1       -0.209   8.160   0.045  0.00  0.00    +0.122 A 
ATOM     23  C   LIG    1       -0.944   8.406   1.144  0.00  0.00    +0.046 A 
ATOM     24  C   LIG    1       -2.215   8.837   0.698  0.00  0.00    +0.041 A 
ATOM     25  C   LIG    1       -2.180   8.829  -0.647  0.00  0.00    +0.195 A 
ATOM     26  O   LIG    1       -0.960   8.423  -1.037  0.00  0.00    -0.466 OA
ENDBRANCH  21  22
ENDBRANCH  18  21
ENDBRANCH   3  17
BRANCH   5  27
ATOM     27  C   LIG    1        4.961   1.279  -0.037  0.00  0.00    +0.244 C 
ATOM     28  N   LIG    1        6.119   1.969  -0.045  0.00  0.00    -0.304 N 
ATOM     29  H   LIG    1        6.106   2.939  -0.040  0.00  0.00    +0.149 HD
ATOM     30  O   LIG    1        4.978   0.064  -0.043  0.00  0.00    -0.270 OA
BRANCH  28  31
ATOM     31  C   LIG    1        7.397   1.254  -0.060  0.00  0.00    +0.179 C 
BRANCH  31  32
ATOM     32  C   LIG    1        8.529   2.248  -0.065  0.00  0.00    +0.122 A 
ATOM     33  C   LIG    1        9.130   2.762   1.023  0.00  0.00    +0.046 A 
ATOM     34  C   LIG    1       10.130   3.647   0.559  0.00  0.00    +0.041 A 
ATOM     35  C   LIG    1       10.081   3.621  -0.785  0.00  0.00    +0.195 A 
ATOM     36  O   LIG    1        9.113   2.768  -1.158  0.00  0.00    -0.466 OA
ENDBRANCH  31  32
ENDBRANCH  28  31
ENDBRANCH   5  27
TORSDOF 9
