REMARK  Name = ZINC01037297
REMARK                            x       y       z     vdW  Elec       q    Type
REMARK                         _______ _______ _______ _____ _____    ______ ____
ROOT
ATOM      1  C   LIG    1        1.816  -0.947   4.490  0.00  0.00    +0.268 C 
ATOM      2  N   LIG    1        2.906  -1.575   4.973  0.00  0.00    -0.227 N 
ATOM      3  H   LIG    1        3.347  -2.258   4.444  0.00  0.00    +0.173 HD
ATOM      4  O   LIG    1        1.262  -0.090   5.154  0.00  0.00    -0.268 OA
ENDROOT
BRANCH   1  14
ATOM      5  C   LIG    1       -2.142   0.176   0.788  0.00  0.00    +0.008 C 
ATOM      6  C   LIG    1       -1.163  -0.891   0.371  0.00  0.00    -0.002 C 
ATOM      7  C   LIG    1       -1.282  -1.508  -0.853  0.00  0.00    +0.022 C 
ATOM      8  C   LIG    1       -0.380  -2.490  -1.234  0.00  0.00    +0.052 C 
ATOM      9  C   LIG    1       -0.524  -3.158  -2.577  0.00  0.00    +0.024 C 
ATOM     10  N   LIG    1        0.603  -2.844  -0.429  0.00  0.00    -0.301 NA
ATOM     11  H   LIG    1        1.225  -3.532  -0.713  0.00  0.00    +0.123 HD
ATOM     12  C   LIG    1        0.759  -2.283   0.751  0.00  0.00    +0.126 C 
ATOM     13  S   LIG    1        1.934  -2.502   2.064  0.00  0.00    -0.099 S 
ATOM     14  C   LIG    1        1.313  -1.285   3.208  0.00  0.00    +0.089 C 
ATOM     15  C   LIG    1        0.222  -0.759   2.554  0.00  0.00    +0.026 C 
ATOM     16  C   LIG    1       -0.102  -1.270   1.231  0.00  0.00    +0.064 C 
BRANCH  15  17
ATOM     17  N   LIG    1       -0.549   0.235   3.141  0.00  0.00    -0.360 N 
ATOM     18  H   LIG    1       -0.561   0.333   4.106  0.00  0.00    +0.142 HD
ATOM     19  H   LIG    1       -1.076   0.831   2.586  0.00  0.00    +0.142 HD
ENDBRANCH  15  17
ENDBRANCH   1  14
BRANCH   2  20
ATOM     20  N   LIG    1        3.403  -1.240   6.240  0.00  0.00    -0.210 N 
ATOM     21  C   LIG    1        4.611  -0.430   6.323  0.00  0.00    +0.226 C 
ATOM     22  C   LIG    1        5.258  -0.555   7.669  0.00  0.00    +0.239 C 
ATOM     23  N   LIG    1        4.601  -0.988   8.749  0.00  0.00    -0.261 N 
ATOM     24  C   LIG    1        3.198  -1.377   8.717  0.00  0.00    +0.211 C 
ATOM     25  O   LIG    1        6.427  -0.250   7.783  0.00  0.00    -0.273 OA
ATOM     26  C   LIG    1        2.745  -1.674   7.319  0.00  0.00    +0.250 C 
ATOM     27  O   LIG    1        1.743  -2.339   7.162  0.00  0.00    -0.272 OA
BRANCH  23  28
ATOM     28  C   LIG    1        5.291  -1.071   9.964  0.00  0.00    +0.037 A 
ATOM     29  C   LIG    1        5.424   0.053  10.768  0.00  0.00    +0.023 A 
ATOM     30  C   LIG    1        6.106  -0.033  11.966  0.00  0.00    +0.002 A 
ATOM     31  C   LIG    1        6.656  -1.237  12.365  0.00  0.00    +0.000 A 
ATOM     32  C   LIG    1        6.525  -2.358  11.567  0.00  0.00    +0.002 A 
ATOM     33  C   LIG    1        5.840  -2.281  10.371  0.00  0.00    +0.023 A 
ENDBRANCH  23  28
ENDBRANCH   2  20
TORSDOF 4
