REMARK  Name = ZINC00860566
REMARK                            x       y       z     vdW  Elec       q    Type
REMARK                         _______ _______ _______ _____ _____    ______ ____
ROOT
ATOM      1  N   LIG    1       -1.141  -1.950  -0.294  0.00  0.00    -0.270 N 
ATOM      2  C   LIG    1       -1.282  -0.580  -0.235  0.00  0.00    +0.169 A 
ATOM      3  N   LIG    1       -2.571  -0.325  -0.246  0.00  0.00    -0.128 NA
ATOM      4  N   LIG    1       -3.236  -1.423  -0.301  0.00  0.00    -0.122 NA
ATOM      5  C   LIG    1       -2.413  -2.450  -0.329  0.00  0.00    +0.197 A 
ENDROOT
BRANCH   1   9
ATOM      6  C   LIG    1        2.419  -4.117  -0.344  0.00  0.00    +0.000 A 
ATOM      7  C   LIG    1        1.580  -4.194   0.752  0.00  0.00    +0.002 A 
ATOM      8  C   LIG    1        0.400  -3.477   0.772  0.00  0.00    +0.026 A 
ATOM      9  C   LIG    1        0.056  -2.679  -0.311  0.00  0.00    +0.051 A 
ATOM     10  C   LIG    1        0.898  -2.607  -1.412  0.00  0.00    +0.026 A 
ATOM     11  C   LIG    1        2.080  -3.322  -1.423  0.00  0.00    +0.002 A 
ENDBRANCH   1   9
BRANCH   2  12
ATOM     12  C   LIG    1       -0.191   0.414  -0.178  0.00  0.00    +0.022 A 
ATOM     13  C   LIG    1        1.106   0.038   0.196  0.00  0.00    +0.031 A 
ATOM     14  C   LIG    1        2.095   0.998   0.236  0.00  0.00    +0.111 A 
ATOM     15  N   LIG    1        1.832   2.254  -0.072  0.00  0.00    -0.263 NA
ATOM     16  C   LIG    1        0.625   2.651  -0.429  0.00  0.00    +0.111 A 
ATOM     17  C   LIG    1       -0.423   1.758  -0.496  0.00  0.00    +0.031 A 
ENDBRANCH   2  12
BRANCH   5  18
ATOM     18  S   LIG    1       -2.867  -4.151  -0.405  0.00  0.00    -0.076 S 
BRANCH  18  19
ATOM     19  C   LIG    1       -4.670  -3.994  -0.429  0.00  0.00    +0.173 C 
BRANCH  19  20
ATOM     20  C   LIG    1       -5.292  -5.365  -0.495  0.00  0.00    +0.227 C 
ATOM     21  N   LIG    1       -6.633  -5.496  -0.523  0.00  0.00    -0.285 N 
ATOM     22  H   LIG    1       -7.196  -4.708  -0.571  0.00  0.00    +0.155 HD
ATOM     23  O   LIG    1       -4.586  -6.351  -0.523  0.00  0.00    -0.275 OA
BRANCH  21  24
ATOM     24  C   LIG    1       -7.213  -6.769  -0.482  0.00  0.00    +0.035 A 
ATOM     25  C   LIG    1       -8.405  -7.013  -1.151  0.00  0.00    +0.023 A 
ATOM     26  C   LIG    1       -8.973  -8.271  -1.114  0.00  0.00    +0.003 A 
ATOM     27  C   LIG    1       -8.361  -9.286  -0.402  0.00  0.00    +0.020 A 
ATOM     28  C   LIG    1       -7.175  -9.046   0.271  0.00  0.00    +0.043 A 
ATOM     29 CL   LIG    1       -6.411 -10.324   1.164  0.00  0.00    -0.083 Cl
ATOM     30  C   LIG    1       -6.600  -7.790   0.233  0.00  0.00    +0.043 A 
ENDBRANCH  21  24
ENDBRANCH  19  20
ENDBRANCH  18  19
ENDBRANCH   5  18
TORSDOF 6
