REMARK  Name = ZINC00898952
REMARK                            x       y       z     vdW  Elec       q    Type
REMARK                         _______ _______ _______ _____ _____    ______ ____
ROOT
ATOM      1  C   LIG    1        2.491  -2.491  -4.360  0.00  0.00    +0.139 A 
ATOM      2  C   LIG    1        2.520  -3.850  -4.409  0.00  0.00    +0.098 A 
ATOM      3  C   LIG    1        3.143  -4.496  -5.502  0.00  0.00    +0.197 A 
ATOM      4  C   LIG    1        3.736  -3.642  -6.546  0.00  0.00    +0.113 A 
ATOM      5  C   LIG    1        4.372  -4.196  -7.663  0.00  0.00    +0.177 A 
ATOM      6  C   LIG    1        4.918  -3.360  -8.623  0.00  0.00    +0.208 A 
ATOM      7  C   LIG    1        4.834  -1.977  -8.476  0.00  0.00    +0.209 A 
ATOM      8  C   LIG    1        4.204  -1.422  -7.371  0.00  0.00    +0.209 A 
ATOM      9  C   LIG    1        3.651  -2.247  -6.399  0.00  0.00    +0.188 A 
ATOM     10  O   LIG    1        3.187  -5.713  -5.579  0.00  0.00    -0.287 OA
ATOM     11  O   LIG    1        3.031  -1.722  -5.319  0.00  0.00    -0.451 OA
ENDROOT
BRANCH   1  15
ATOM     12  C   LIG    1        0.605  -0.607  -1.055  0.00  0.00    +0.120 A 
ATOM     13  C   LIG    1        1.172   0.166  -2.061  0.00  0.00    +0.046 A 
ATOM     14  C   LIG    1        1.785  -0.441  -3.135  0.00  0.00    +0.015 A 
ATOM     15  C   LIG    1        1.836  -1.836  -3.211  0.00  0.00    +0.018 A 
ATOM     16  C   LIG    1        1.264  -2.609  -2.196  0.00  0.00    +0.015 A 
ATOM     17  C   LIG    1        0.659  -1.994  -1.124  0.00  0.00    +0.046 A 
BRANCH  12  19
ATOM     18  C   LIG    1       -0.017   1.425   0.010  0.00  0.00    +0.277 C 
ATOM     19  O   LIG    1        0.002  -0.004   0.002  0.00  0.00    -0.495 OA
ENDBRANCH  12  19
ENDBRANCH   1  15
BRANCH   5  20
ATOM     20  O   LIG    1        4.454  -5.546  -7.804  0.00  0.00    -0.503 OA
ATOM     21  H   LIG    1        3.709  -5.937  -8.281  0.00  0.00    +0.292 HD
ENDBRANCH   5  20
BRANCH   6  22
ATOM     22  O   LIG    1        5.538  -3.891  -9.713  0.00  0.00    -0.488 OA
ATOM     23  C   LIG    1        4.726  -4.145 -10.862  0.00  0.00    +0.277 C 
ENDBRANCH   6  22
BRANCH   7  24
ATOM     24  O   LIG    1        5.373  -1.165  -9.424  0.00  0.00    -0.501 OA
ATOM     25  H   LIG    1        4.761  -0.930 -10.135  0.00  0.00    +0.292 HD
ENDBRANCH   7  24
BRANCH   8  26
ATOM     26  O   LIG    1        4.129  -0.069  -7.239  0.00  0.00    -0.488 OA
ATOM     27  C   LIG    1        2.987   0.576  -7.806  0.00  0.00    +0.277 C 
ENDBRANCH   8  26
TORSDOF 6
