REMARK  Name = ZINC01251594
REMARK                            x       y       z     vdW  Elec       q    Type
REMARK                         _______ _______ _______ _____ _____    ______ ____
ROOT
ATOM      1  C   LIG    1       -4.561   2.275  -1.571  0.00  0.00    +0.139 C 
ATOM      2  N   LIG    1       -3.124   2.484  -1.373  0.00  0.00    -0.258 N 
ATOM      3  C   LIG    1       -2.416   1.558  -0.749  0.00  0.00    +0.258 C 
ATOM      4  C   LIG    1       -0.972   1.831  -0.582  0.00  0.00    +0.077 C 
ATOM      5  S   LIG    1       -0.841   3.432  -1.366  0.00  0.00    -0.061 S 
ATOM      6  C   LIG    1       -0.013   1.076   0.008  0.00  0.00    +0.028 C 
ATOM      7  O   LIG    1       -2.926   0.535  -0.333  0.00  0.00    -0.269 OA
ATOM      8  C   LIG    1       -2.554   3.617  -1.833  0.00  0.00    +0.120 C 
ATOM      9  S   LIG    1       -3.296   4.921  -2.658  0.00  0.00    -0.027 S 
ENDROOT
BRANCH   6  10
ATOM     10  C   LIG    1        1.401   1.459  -0.112  0.00  0.00    -0.021 A 
ATOM     11  C   LIG    1        1.780   2.488  -0.983  0.00  0.00    +0.008 A 
ATOM     12  C   LIG    1        3.107   2.846  -1.086  0.00  0.00    +0.003 A 
ATOM     13  C   LIG    1        4.067   2.184  -0.340  0.00  0.00    +0.038 A 
ATOM     14  C   LIG    1        3.703   1.161   0.520  0.00  0.00    +0.124 A 
ATOM     15  F   LIG    1        4.647   0.520   1.244  0.00  0.00    -0.205 F 
ATOM     16  C   LIG    1        2.376   0.794   0.639  0.00  0.00    +0.046 A 
ENDBRANCH   6  10
TORSDOF 1
