REMARK  Name = ZINC00762977
REMARK                            x       y       z     vdW  Elec       q    Type
REMARK                         _______ _______ _______ _____ _____    ______ ____
ROOT
ATOM      1  N   LIG    1        3.647   1.828   0.147  0.00  0.00    -0.337 N 
ATOM      2  C   LIG    1        2.361   1.381   0.306  0.00  0.00    +0.050 A 
ATOM      3  C   LIG    1        1.147   2.059   0.367  0.00  0.00    +0.026 A 
ATOM      4  C   LIG    1        0.006   1.291   0.533  0.00  0.00    +0.002 A 
ATOM      5  C   LIG    1        0.054  -0.089   0.635  0.00  0.00    +0.001 A 
ATOM      6  C   LIG    1        1.236  -0.785   0.580  0.00  0.00    +0.010 A 
ATOM      7  C   LIG    1        2.406  -0.035   0.413  0.00  0.00    +0.004 A 
ATOM      8  C   LIG    1        3.797  -0.405   0.318  0.00  0.00    -0.014 A 
ATOM      9  C   LIG    1        4.457  -1.752   0.420  0.00  0.00    +0.044 C 
ATOM     10  C   LIG    1        5.733  -1.815  -0.422  0.00  0.00    +0.061 C 
ATOM     11  C   LIG    1        6.539  -0.552  -0.281  0.00  0.00    +0.054 A 
ATOM     12  N   LIG    1        7.862  -0.357  -0.362  0.00  0.00    -0.236 N 
ATOM     13  N   LIG    1        8.116   1.014  -0.196  0.00  0.00    -0.174 NA
ATOM     14  C   LIG    1        6.975   1.634  -0.006  0.00  0.00    +0.145 A 
ATOM     15  C   LIG    1        5.963   0.680  -0.040  0.00  0.00    +0.040 A 
ATOM     16  C   LIG    1        4.499   0.765   0.132  0.00  0.00    +0.057 A 
ENDROOT
BRANCH  12  17
ATOM     17  C   LIG    1        8.827  -1.351  -0.574  0.00  0.00    +0.066 A 
ATOM     18  C   LIG    1        8.594  -2.361  -1.498  0.00  0.00    +0.028 A 
ATOM     19  C   LIG    1        9.549  -3.336  -1.709  0.00  0.00    +0.002 A 
ATOM     20  C   LIG    1       10.732  -3.313  -0.993  0.00  0.00    +0.000 A 
ATOM     21  C   LIG    1       10.965  -2.312  -0.068  0.00  0.00    +0.002 A 
ATOM     22  C   LIG    1       10.016  -1.331   0.143  0.00  0.00    +0.028 A 
ENDBRANCH  12  17
BRANCH   1  23
ATOM     23  C   LIG    1        4.044   3.232   0.015  0.00  0.00    +0.151 C 
BRANCH  23  24
ATOM     24  C   LIG    1        4.325   3.815   1.401  0.00  0.00    +0.117 C 
BRANCH  24  25
ATOM     25  O   LIG    1        3.117   3.834   2.164  0.00  0.00    -0.392 OA
ATOM     26  H   LIG    1        2.411   4.364   1.770  0.00  0.00    +0.210 HD
ENDBRANCH  24  25
BRANCH  24  27
ATOM     27  C   LIG    1        4.859   5.241   1.256  0.00  0.00    -0.049 C 
BRANCH  27  28
ATOM     28  N   LIG    1        5.241   5.753   2.586  0.00  0.00    +0.382 N 
ATOM     29  H   LIG    1        5.968   5.147   2.985  0.00  0.00    -0.085 HD
ATOM     30  H   LIG    1        4.417   5.749   3.199  0.00  0.00    -0.085 HD
BRANCH  28  32
ATOM     31  C   LIG    1        4.593   8.118   2.499  0.00  0.00    -0.014 C 
ATOM     32  C   LIG    1        5.760   7.129   2.475  0.00  0.00    -0.078 C 
ATOM     33  C   LIG    1        6.691   7.410   3.656  0.00  0.00    -0.014 C 
ENDBRANCH  28  32
ENDBRANCH  27  28
ENDBRANCH  24  27
ENDBRANCH  23  24
ENDBRANCH   1  23
TORSDOF 7
