REMARK  Name = ZINC00732524
REMARK                            x       y       z     vdW  Elec       q    Type
REMARK                         _______ _______ _______ _____ _____    ______ ____
ROOT
ATOM      1  N   LIG    1        5.945  -0.627  -0.262  0.00  0.00    -0.248 N 
ATOM      2  H   LIG    1        5.955  -1.597  -0.267  0.00  0.00    +0.158 HD
ATOM      3  C   LIG    1        4.777   0.034  -0.145  0.00  0.00    +0.310 C 
ATOM      4  N   LIG    1        3.622  -0.653  -0.036  0.00  0.00    -0.269 N 
ATOM      5  H   LIG    1        3.638  -1.620   0.036  0.00  0.00    +0.156 HD
ATOM      6  O   LIG    1        4.764   1.250  -0.139  0.00  0.00    -0.252 OA
ENDROOT
BRANCH   4   7
ATOM      7  C   LIG    1        2.400   0.030  -0.028  0.00  0.00    +0.036 A 
ATOM      8  C   LIG    1        2.248   1.193  -0.771  0.00  0.00    +0.025 A 
ATOM      9  C   LIG    1        1.041   1.865  -0.761  0.00  0.00    +0.023 A 
ATOM     10  C   LIG    1       -0.016   1.380  -0.012  0.00  0.00    +0.059 A 
ATOM     11 CL   LIG    1       -1.529   2.232   0.004  0.00  0.00    -0.082 Cl
ATOM     12  C   LIG    1        0.132   0.221   0.730  0.00  0.00    +0.061 A 
ATOM     13 CL   LIG    1       -1.196  -0.384   1.669  0.00  0.00    -0.082 Cl
ATOM     14  C   LIG    1        1.338  -0.455   0.723  0.00  0.00    +0.044 A 
ENDBRANCH   4   7
BRANCH   1  18
ATOM     15  C   LIG    1        9.396   0.439  -0.592  0.00  0.00    +0.061 A 
ATOM     16  C   LIG    1        9.164   1.774  -0.564  0.00  0.00    +0.072 A 
ATOM     17  S   LIG    1        7.386   1.799  -0.390  0.00  0.00    -0.060 S 
ATOM     18  C   LIG    1        7.136   0.081  -0.374  0.00  0.00    +0.166 A 
ATOM     19  N   LIG    1        8.366  -0.380  -0.490  0.00  0.00    -0.229 NA
BRANCH  15  20
ATOM     20  C   LIG    1       10.797  -0.098  -0.731  0.00  0.00    +0.176 C 
BRANCH  20  21
ATOM     21  C   LIG    1       11.087  -1.044   0.406  0.00  0.00    +0.313 C 
ATOM     22  O   LIG    1       10.243  -1.260   1.243  0.00  0.00    -0.250 OA
BRANCH  21  23
ATOM     23  O   LIG    1       12.284  -1.647   0.488  0.00  0.00    -0.465 OA
BRANCH  23  25
ATOM     24  C   LIG    1       13.904  -3.133   1.536  0.00  0.00    +0.048 C 
ATOM     25  C   LIG    1       12.493  -2.545   1.610  0.00  0.00    +0.229 C 
ENDBRANCH  23  25
ENDBRANCH  21  23
ENDBRANCH  20  21
ENDBRANCH  15  20
ENDBRANCH   1  18
TORSDOF 6
