REMARK  Name = ZINC01406369
REMARK                            x       y       z     vdW  Elec       q    Type
REMARK                         _______ _______ _______ _____ _____    ______ ____
ROOT
ATOM      1  C   LIG    1        1.672   2.788   6.635  0.00  0.00    +0.040 A 
ATOM      2  C   LIG    1        0.487   2.370   5.988  0.00  0.00    +0.044 A 
ATOM      3  C   LIG    1        0.742   2.372   4.649  0.00  0.00    +0.102 A 
ATOM      4  N   LIG    1        2.047   2.772   4.457  0.00  0.00    -0.356 N 
ATOM      5  H   LIG    1        2.487   2.857   3.597  0.00  0.00    +0.165 HD
ATOM      6  C   LIG    1        2.611   3.030   5.647  0.00  0.00    +0.095 A 
ENDROOT
BRANCH   3   7
ATOM      7  C   LIG    1       -0.209   2.004   3.592  0.00  0.00    +0.261 C 
ATOM      8  N   LIG    1        0.170   2.048   2.300  0.00  0.00    -0.307 N 
ATOM      9  H   LIG    1        1.071   2.322   2.067  0.00  0.00    +0.149 HD
ATOM     10  O   LIG    1       -1.339   1.659   3.884  0.00  0.00    -0.269 OA
BRANCH   8  11
ATOM     11  C   LIG    1       -0.778   1.681   1.245  0.00  0.00    +0.073 C 
ATOM     12  C   LIG    1       -0.027   1.204  -0.015  0.00  0.00    +0.022 C 
ATOM     13  C   LIG    1       -0.813   1.737  -1.225  0.00  0.00    +0.002 C 
ATOM     14  C   LIG    1       -2.016   2.520  -0.659  0.00  0.00    +0.002 C 
ATOM     15  C   LIG    1       -1.568   2.925   0.767  0.00  0.00    +0.022 C 
ENDBRANCH   8  11
ENDBRANCH   3   7
BRANCH   1  16
ATOM     16  C   LIG    1        1.870   2.940   8.087  0.00  0.00    +0.197 C 
ATOM     17  O   LIG    1        0.933   2.792   8.848  0.00  0.00    -0.287 OA
BRANCH  16  22
ATOM     18  C   LIG    1        5.717   3.891   9.618  0.00  0.00    +0.003 A 
ATOM     19  C   LIG    1        4.810   4.903   9.360  0.00  0.00    +0.021 A 
ATOM     20  C   LIG    1        3.558   4.602   8.862  0.00  0.00    +0.053 A 
ATOM     21 CL   LIG    1        2.421   5.873   8.538  0.00  0.00    -0.083 Cl
ATOM     22  C   LIG    1        3.208   3.270   8.619  0.00  0.00    +0.059 A 
ATOM     23  C   LIG    1        4.128   2.253   8.889  0.00  0.00    +0.053 A 
ATOM     24 CL   LIG    1        3.702   0.595   8.598  0.00  0.00    -0.083 Cl
ATOM     25  C   LIG    1        5.378   2.571   9.381  0.00  0.00    +0.021 A 
ENDBRANCH  16  22
ENDBRANCH   1  16
TORSDOF 4
