REMARK  Name = ZINC00752431
REMARK                            x       y       z     vdW  Elec       q    Type
REMARK                         _______ _______ _______ _____ _____    ______ ____
ROOT
ATOM      1  C   LIG    1       -1.829  -1.562   3.433  0.00  0.00    +0.034 C 
ATOM      2  C   LIG    1       -2.269  -2.281   2.157  0.00  0.00    +0.083 C 
ATOM      3  C   LIG    1       -2.245  -1.316   0.995  0.00  0.00    +0.115 C 
ATOM      4  C   LIG    1       -2.501  -0.008   1.184  0.00  0.00    +0.046 C 
ATOM      5  C   LIG    1       -2.776   0.506   2.466  0.00  0.00    +0.164 C 
ATOM      6  O   LIG    1       -3.014   1.690   2.595  0.00  0.00    -0.292 OA
ATOM      7  C   LIG    1       -2.497   0.952   0.019  0.00  0.00    +0.102 C 
ATOM      8  C   LIG    1       -2.623   0.193  -1.272  0.00  0.00    +0.098 C 
ATOM      9  C   LIG    1       -2.355  -1.132  -1.321  0.00  0.00    +0.198 C 
ATOM     10  O   LIG    1       -1.966  -1.806  -0.228  0.00  0.00    -0.445 OA
ATOM     11  C   LIG    1       -2.780  -0.385   3.679  0.00  0.00    +0.088 C 
ENDROOT
BRANCH   7  12
ATOM     12  C   LIG    1       -1.206   1.730   0.017  0.00  0.00    -0.027 A 
ATOM     13  C   LIG    1       -0.013   1.076   0.023  0.00  0.00    +0.005 A 
ATOM     14  C   LIG    1        1.191   1.778   0.015  0.00  0.00    +0.001 A 
ATOM     15  C   LIG    1        1.207   3.140   0.008  0.00  0.00    +0.008 A 
ATOM     16  C   LIG    1       -0.005   3.850   0.007  0.00  0.00    -0.018 A 
ATOM     17  C   LIG    1       -0.028   5.255   0.000  0.00  0.00    +0.008 A 
ATOM     18  C   LIG    1       -1.221   5.909   0.001  0.00  0.00    +0.001 A 
ATOM     19  C   LIG    1       -2.425   5.206   0.007  0.00  0.00    +0.001 A 
ATOM     20  C   LIG    1       -2.442   3.845   0.014  0.00  0.00    +0.009 A 
ATOM     21  C   LIG    1       -1.229   3.135   0.015  0.00  0.00    -0.014 A 
ENDBRANCH   7  12
BRANCH   1  25
ATOM     22  C   LIG    1       -2.005  -4.262   6.738  0.00  0.00    +0.000 A 
ATOM     23  C   LIG    1       -0.803  -3.674   6.389  0.00  0.00    +0.000 A 
ATOM     24  C   LIG    1       -0.747  -2.800   5.320  0.00  0.00    +0.004 A 
ATOM     25  C   LIG    1       -1.891  -2.514   4.599  0.00  0.00    -0.043 A 
ATOM     26  C   LIG    1       -3.094  -3.099   4.951  0.00  0.00    +0.004 A 
ATOM     27  C   LIG    1       -3.149  -3.976   6.018  0.00  0.00    +0.000 A 
ENDBRANCH   1  25
BRANCH   9  28
ATOM     28  N   LIG    1       -2.483  -1.801  -2.513  0.00  0.00    -0.328 N 
ATOM     29  H   LIG    1       -2.764  -1.324  -3.309  0.00  0.00    +0.145 HD
ATOM     30  H   LIG    1       -2.293  -2.751  -2.558  0.00  0.00    +0.145 HD
ENDBRANCH   9  28
BRANCH   8  31
ATOM     31  C   LIG    1       -3.031   0.877  -2.463  0.00  0.00    +0.101 C 
ATOM     32  N   LIG    1       -3.354   1.419  -3.407  0.00  0.00    -0.191 NA
ENDBRANCH   8  31
TORSDOF 4
