REMARK  Name = ZINC00896220
REMARK                            x       y       z     vdW  Elec       q    Type
REMARK                         _______ _______ _______ _____ _____    ______ ____
ROOT
ATOM      1  C   LIG    1        1.350   1.549  -0.003  0.00  0.00    -0.036 C 
ATOM      2  N   LIG    1       -0.013   1.001   0.011  0.00  0.00    +0.384 N 
ATOM      3  H   LIG    1        0.030  -0.023  -0.050  0.00  0.00    -0.085 HD
ATOM      4  H   LIG    1       -0.480   1.272   0.885  0.00  0.00    -0.085 HD
ATOM      5  C   LIG    1       -0.777   1.528  -1.135  0.00  0.00    -0.077 C 
ATOM      6  C   LIG    1       -1.077   3.006  -0.882  0.00  0.00    +0.016 C 
ATOM      7  C   LIG    1        0.191   3.731  -0.508  0.00  0.00    -0.044 A 
ATOM      8  C   LIG    1        0.205   5.116  -0.582  0.00  0.00    +0.053 A 
ATOM      9  C   LIG    1        1.343   5.824  -0.240  0.00  0.00    +0.162 A 
ATOM     10  C   LIG    1        2.479   5.139   0.182  0.00  0.00    +0.159 A 
ATOM     11  C   LIG    1        2.461   3.758   0.252  0.00  0.00    +0.051 A 
ATOM     12  C   LIG    1        1.317   3.052  -0.093  0.00  0.00    -0.054 A 
ENDROOT
BRANCH   9  13
ATOM     13  O   LIG    1        1.352   7.182  -0.314  0.00  0.00    -0.491 OA
ATOM     14  C   LIG    1        0.149   7.815  -0.755  0.00  0.00    +0.277 C 
ENDBRANCH   9  13
BRANCH  10  15
ATOM     15  O   LIG    1        3.603   5.825   0.523  0.00  0.00    -0.503 OA
ATOM     16  H   LIG    1        4.210   5.977  -0.214  0.00  0.00    +0.292 HD
ENDBRANCH  10  15
BRANCH   1  17
ATOM     17  C   LIG    1        2.068   1.137   1.284  0.00  0.00    +0.024 C 
BRANCH  17  21
ATOM     18  C   LIG    1        2.535  -3.113   1.359  0.00  0.00    +0.161 A 
ATOM     19  C   LIG    1        1.402  -2.528   1.901  0.00  0.00    +0.049 A 
ATOM     20  C   LIG    1        1.257  -1.154   1.881  0.00  0.00    +0.007 A 
ATOM     21  C   LIG    1        2.234  -0.360   1.310  0.00  0.00    -0.045 A 
ATOM     22  C   LIG    1        3.367  -0.938   0.766  0.00  0.00    +0.052 A 
ATOM     23  C   LIG    1        3.522  -2.314   0.789  0.00  0.00    +0.159 A 
BRANCH  18  25
ATOM     24  C   LIG    1        1.630  -5.221   1.984  0.00  0.00    +0.277 C 
ATOM     25  O   LIG    1        2.683  -4.465   1.383  0.00  0.00    -0.491 OA
ENDBRANCH  18  25
BRANCH  23  26
ATOM     26  O   LIG    1        4.636  -2.884   0.255  0.00  0.00    -0.503 OA
ATOM     27  H   LIG    1        5.363  -2.990   0.884  0.00  0.00    +0.292 HD
ENDBRANCH  23  26
ENDBRANCH  17  21
ENDBRANCH   1  17
TORSDOF 6
