REMARK  Name = ZINC00812583
REMARK                            x       y       z     vdW  Elec       q    Type
REMARK                         _______ _______ _______ _____ _____    ______ ____
ROOT
ATOM      1  C   LIG    1        5.564  -0.551  -0.055  0.00  0.00    +0.246 A 
ATOM      2  C   LIG    1        6.397  -1.678  -0.075  0.00  0.00    +0.114 A 
ATOM      3  C   LIG    1        7.687  -1.243  -0.084  0.00  0.00    +0.143 A 
ATOM      4  N   LIG    1        7.661   0.115  -0.071  0.00  0.00    -0.112 N 
ATOM      5  N   LIG    1        6.321   0.520  -0.058  0.00  0.00    -0.110 NA
ENDROOT
BRANCH   3   6
ATOM      6  N   LIG    1        8.825  -2.044  -0.103  0.00  0.00    -0.342 N 
ATOM      7  H   LIG    1        9.705  -1.637  -0.108  0.00  0.00    +0.144 HD
ATOM      8  H   LIG    1        8.738  -3.010  -0.112  0.00  0.00    +0.144 HD
ENDBRANCH   3   6
BRANCH   4   9
ATOM      9  S   LIG    1        8.982   1.114  -0.075  0.00  0.00    +0.101 S 
ATOM     10  O   LIG    1       10.063   0.361   0.458  0.00  0.00    -0.146 OA
ATOM     11  O   LIG    1        8.560   2.347   0.493  0.00  0.00    -0.146 OA
BRANCH   9  12
ATOM     12  C   LIG    1        9.380   1.445  -1.759  0.00  0.00    +0.113 A 
ATOM     13  C   LIG    1       10.254   0.616  -2.438  0.00  0.00    +0.032 A 
ATOM     14  C   LIG    1       10.566   0.875  -3.759  0.00  0.00    +0.040 A 
ATOM     15  C   LIG    1       10.003   1.964  -4.403  0.00  0.00    +0.124 A 
ATOM     16  F   LIG    1       10.308   2.217  -5.694  0.00  0.00    -0.205 F 
ATOM     17  C   LIG    1        9.128   2.793  -3.722  0.00  0.00    +0.040 A 
ATOM     18  C   LIG    1        8.813   2.529  -2.402  0.00  0.00    +0.032 A 
ENDBRANCH   9  12
ENDBRANCH   4   9
BRANCH   1  19
ATOM     19  O   LIG    1        4.205  -0.565  -0.042  0.00  0.00    -0.400 OA
BRANCH  19  20
ATOM     20  C   LIG    1        3.559   0.619  -0.029  0.00  0.00    +0.381 C 
ATOM     21  O   LIG    1        4.192   1.657  -0.030  0.00  0.00    -0.241 OA
BRANCH  20  24
ATOM     22  C   LIG    1       -0.016   1.347   0.009  0.00  0.00    +0.042 A 
ATOM     23  C   LIG    1        1.319   1.779  -0.001  0.00  0.00    +0.056 A 
ATOM     24  C   LIG    1        2.095   0.654  -0.014  0.00  0.00    +0.212 A 
ATOM     25  O   LIG    1        1.276  -0.418  -0.012  0.00  0.00    -0.456 OA
ATOM     26  C   LIG    1        0.002  -0.004   0.002  0.00  0.00    +0.196 A 
ENDBRANCH  20  24
ENDBRANCH  19  20
ENDBRANCH   1  19
TORSDOF 6
