REMARK  Name = ZINC01230938
REMARK                            x       y       z     vdW  Elec       q    Type
REMARK                         _______ _______ _______ _____ _____    ______ ____
ROOT
ATOM      1  C   LIG    1        2.523   1.590  -0.013  0.00  0.00    +0.028 C 
ATOM      2  C   LIG    1        1.253   1.945  -0.331  0.00  0.00    +0.078 C 
ATOM      3  C   LIG    1        0.040   1.107  -0.439  0.00  0.00    +0.272 C 
ATOM      4  N   LIG    1       -1.079   1.727  -0.775  0.00  0.00    -0.189 N 
ATOM      5  C   LIG    1       -1.109   3.057  -0.997  0.00  0.00    +0.135 C 
ATOM      6  S   LIG    1       -2.447   4.033  -1.432  0.00  0.00    -0.026 S 
ATOM      7  O   LIG    1        0.070  -0.092  -0.234  0.00  0.00    -0.268 OA
ATOM      8  S   LIG    1        0.586   3.554  -0.734  0.00  0.00    -0.060 S 
ENDROOT
BRANCH   1  15
ATOM      9  C   LIG    1        3.378   3.810  -0.736  0.00  0.00    +0.009 A 
ATOM     10  C   LIG    1        4.402   4.727  -0.837  0.00  0.00    +0.020 A 
ATOM     11  C   LIG    1        5.662   4.420  -0.349  0.00  0.00    +0.041 A 
ATOM     12 CL   LIG    1        6.947   5.579  -0.486  0.00  0.00    -0.084 Cl
ATOM     13  C   LIG    1        5.902   3.193   0.248  0.00  0.00    +0.020 A 
ATOM     14  C   LIG    1        4.886   2.268   0.361  0.00  0.00    +0.009 A 
ATOM     15  C   LIG    1        3.611   2.571  -0.130  0.00  0.00    -0.024 A 
ENDBRANCH   1  15
BRANCH   4  16
ATOM     16  N   LIG    1       -2.232   1.005  -0.895  0.00  0.00    -0.246 NA
ATOM     17  H   LIG    1       -2.119   0.250  -1.555  0.00  0.00    +0.141 HD
ATOM     18  H   LIG    1       -3.006   1.599  -1.155  0.00  0.00    +0.141 HD
ENDBRANCH   4  16
TORSDOF 2
