REMARK  Name = ZINC01372365
REMARK                            x       y       z     vdW  Elec       q    Type
REMARK                         _______ _______ _______ _____ _____    ______ ____
ROOT
ATOM      1  C   LIG    1       -5.538   2.032   6.881  0.00  0.00    +0.278 A 
ATOM      2  N   LIG    1       -6.306   3.095   6.901  0.00  0.00    -0.101 NA
ATOM      3  N   LIG    1       -6.984   3.108   7.995  0.00  0.00    -0.111 NA
ATOM      4  C   LIG    1       -6.673   2.070   8.713  0.00  0.00    +0.224 A 
ATOM      5  O   LIG    1       -5.752   1.363   8.030  0.00  0.00    -0.415 OA
ENDROOT
BRANCH   1   6
ATOM      6  S   LIG    1       -4.428   1.569   5.593  0.00  0.00    -0.061 S 
BRANCH   6   7
ATOM      7  C   LIG    1       -4.706   2.931   4.434  0.00  0.00    +0.114 C 
BRANCH   7  12
ATOM      8  C   LIG    1       -1.763   3.107   2.070  0.00  0.00    +0.120 A 
ATOM      9  C   LIG    1       -2.241   2.391   0.983  0.00  0.00    +0.045 A 
ATOM     10  C   LIG    1       -3.513   1.853   1.017  0.00  0.00    +0.004 A 
ATOM     11  C   LIG    1       -4.309   2.028   2.134  0.00  0.00    +0.005 A 
ATOM     12  C   LIG    1       -3.835   2.742   3.219  0.00  0.00    -0.034 A 
ATOM     13  C   LIG    1       -2.562   3.277   3.192  0.00  0.00    +0.050 A 
BRANCH   8  15
ATOM     14  C   LIG    1        0.256   3.418   0.854  0.00  0.00    +0.277 C 
ATOM     15  O   LIG    1       -0.512   3.637   2.039  0.00  0.00    -0.495 OA
ENDBRANCH   8  15
ENDBRANCH   7  12
ENDBRANCH   6   7
ENDBRANCH   1   6
BRANCH   4  16
ATOM     16  C   LIG    1       -7.240   1.721  10.065  0.00  0.00    +0.153 C 
BRANCH  16  17
ATOM     17  C   LIG    1       -8.464   0.861   9.890  0.00  0.00    +0.059 A 
ATOM     18  C   LIG    1       -8.555  -0.348  10.494  0.00  0.00    +0.072 A 
ATOM     19  S   LIG    1      -10.169  -0.877   9.940  0.00  0.00    -0.060 S 
ATOM     20  C   LIG    1      -10.547   0.519   8.980  0.00  0.00    +0.163 A 
ATOM     21  N   LIG    1       -9.471   1.266   9.139  0.00  0.00    -0.229 NA
BRANCH  20  22
ATOM     22  N   LIG    1      -11.688   0.782   8.236  0.00  0.00    -0.294 N 
ATOM     23  H   LIG    1      -11.734   1.675   7.596  0.00  0.00    +0.154 HD
BRANCH  22  24
ATOM     24  C   LIG    1      -12.779  -0.089   8.299  0.00  0.00    +0.034 A 
ATOM     25  C   LIG    1      -13.073  -0.753   9.484  0.00  0.00    +0.023 A 
ATOM     26  C   LIG    1      -14.152  -1.612   9.543  0.00  0.00    +0.003 A 
ATOM     27  C   LIG    1      -14.941  -1.813   8.425  0.00  0.00    +0.020 A 
ATOM     28  C   LIG    1      -14.652  -1.153   7.244  0.00  0.00    +0.043 A 
ATOM     29 CL   LIG    1      -15.646  -1.409   5.843  0.00  0.00    -0.083 Cl
ATOM     30  C   LIG    1      -13.576  -0.288   7.179  0.00  0.00    +0.043 A 
ENDBRANCH  22  24
ENDBRANCH  20  22
ENDBRANCH  16  17
ENDBRANCH   4  16
TORSDOF 8
