REMARK  Name = ZINC00953703
REMARK                            x       y       z     vdW  Elec       q    Type
REMARK                         _______ _______ _______ _____ _____    ______ ____
ROOT
ATOM      1  C   LIG    1       -3.315  -1.304   1.243  0.00  0.00    +0.069 A 
ATOM      2  C   LIG    1       -3.543  -2.738   1.196  0.00  0.00    -0.023 A 
ATOM      3  C   LIG    1       -4.845  -3.092   1.243  0.00  0.00    -0.004 A 
ATOM      4  C   LIG    1       -5.401  -4.483   1.212  0.00  0.00    +0.043 C 
ATOM      5  C   LIG    1       -4.292  -5.435   0.740  0.00  0.00    +0.005 C 
ATOM      6  C   LIG    1       -3.014  -5.138   1.530  0.00  0.00    +0.005 C 
ATOM      7  S   LIG    1       -5.724  -1.561   1.345  0.00  0.00    -0.077 S 
ATOM      8  C   LIG    1       -2.442  -3.784   1.105  0.00  0.00    +0.037 C 
ATOM      9  C   LIG    1       -4.432  -0.488   1.333  0.00  0.00    +0.085 A 
ENDROOT
BRANCH   9  10
ATOM     10  N   LIG    1       -4.474   0.895   1.396  0.00  0.00    -0.275 N 
ATOM     11  H   LIG    1       -3.649   1.406   1.379  0.00  0.00    +0.156 HD
ATOM     12  C   LIG    1       -5.659   1.531   1.482  0.00  0.00    +0.255 C 
ATOM     13  O   LIG    1       -6.693   0.890   1.503  0.00  0.00    -0.269 OA
BRANCH  12  14
ATOM     14  C   LIG    1       -5.703   2.994   1.548  0.00  0.00    +0.074 A 
ATOM     15  C   LIG    1       -6.803   3.832   1.644  0.00  0.00    +0.021 A 
ATOM     16  C   LIG    1       -6.527   5.178   1.688  0.00  0.00    +0.008 A 
ATOM     17  C   LIG    1       -5.235   5.587   1.637  0.00  0.00    +0.046 A 
ATOM     18  S   LIG    1       -4.354   4.160   1.535  0.00  0.00    -0.092 S 
ENDBRANCH  12  14
ENDBRANCH   9  10
BRANCH   1  20
ATOM     19  N   LIG    1       -1.401  -0.420   0.020  0.00  0.00    -0.298 N 
ATOM     20  C   LIG    1       -1.961  -0.744   1.203  0.00  0.00    +0.249 C 
ATOM     21  O   LIG    1       -1.343  -0.572   2.237  0.00  0.00    -0.270 OA
BRANCH  19  23
ATOM     22  C   LIG    1        0.016   1.571   0.112  0.00  0.00    +0.024 C 
ATOM     23  C   LIG    1       -0.014   0.048  -0.029  0.00  0.00    +0.104 C 
ENDBRANCH  19  23
BRANCH  19  24
ATOM     24  C   LIG    1       -2.179  -0.536  -1.215  0.00  0.00    +0.104 C 
ATOM     25  C   LIG    1       -1.906  -1.894  -1.865  0.00  0.00    +0.024 C 
ENDBRANCH  19  24
ENDBRANCH   1  20
TORSDOF 5
