REMARK  Name = ZINC01397984
REMARK                            x       y       z     vdW  Elec       q    Type
REMARK                         _______ _______ _______ _____ _____    ______ ____
ROOT
ATOM      1  C   LIG    1        0.060  -4.251  -0.021  0.00  0.00    +0.266 C 
ATOM      2  N   LIG    1        0.176  -4.930   1.137  0.00  0.00    -0.189 N 
ATOM      3  C   LIG    1        0.313  -6.394   1.137  0.00  0.00    +0.136 C 
ATOM      4  C   LIG    1       -0.592  -6.944   2.249  0.00  0.00    +0.027 C 
ATOM      5  C   LIG    1       -0.125  -6.363   3.586  0.00  0.00    +0.059 C 
ATOM      6  C   LIG    1        0.031  -4.873   3.485  0.00  0.00    +0.067 C 
ATOM      7  N   LIG    1        0.174  -4.253   2.364  0.00  0.00    -0.181 NA
ATOM      8  O   LIG    1       -0.027  -4.854  -1.073  0.00  0.00    -0.268 OA
ENDROOT
BRANCH   1  13
ATOM      9  C   LIG    1       -0.024   1.503   0.011  0.00  0.00    +0.044 C 
ATOM     10  C   LIG    1       -0.002  -0.004   0.003  0.00  0.00    -0.050 A 
ATOM     11  C   LIG    1        0.067  -0.685  -1.200  0.00  0.00    +0.004 A 
ATOM     12  C   LIG    1        0.087  -2.064  -1.215  0.00  0.00    +0.013 A 
ATOM     13  C   LIG    1        0.039  -2.773  -0.013  0.00  0.00    +0.039 A 
ATOM     14  C   LIG    1       -0.030  -2.080   1.197  0.00  0.00    +0.013 A 
ATOM     15  C   LIG    1       -0.044  -0.700   1.198  0.00  0.00    +0.004 A 
ENDBRANCH   1  13
BRANCH   6  16
ATOM     16  C   LIG    1        0.025  -4.081   4.729  0.00  0.00    -0.002 A 
ATOM     17  C   LIG    1       -0.012  -4.723   5.969  0.00  0.00    +0.010 A 
ATOM     18  C   LIG    1       -0.018  -3.975   7.128  0.00  0.00    +0.001 A 
ATOM     19  C   LIG    1        0.013  -2.594   7.065  0.00  0.00    +0.000 A 
ATOM     20  C   LIG    1        0.050  -1.951   5.840  0.00  0.00    +0.001 A 
ATOM     21  C   LIG    1        0.061  -2.686   4.672  0.00  0.00    +0.010 A 
ENDBRANCH   6  16
TORSDOF 2
