REMARK  Name = ZINC00967110
REMARK                            x       y       z     vdW  Elec       q    Type
REMARK                         _______ _______ _______ _____ _____    ______ ____
ROOT
ATOM      1  C   LIG    1        1.903   6.922   0.205  0.00  0.00    +0.122 A 
ATOM      2  C   LIG    1        0.519   6.983   0.318  0.00  0.00    +0.046 A 
ATOM      3  C   LIG    1       -0.232   5.822   0.327  0.00  0.00    +0.004 A 
ATOM      4  C   LIG    1        0.386   4.593   0.222  0.00  0.00    +0.008 A 
ATOM      5  C   LIG    1        1.778   4.520   0.107  0.00  0.00    -0.020 A 
ATOM      6  C   LIG    1        2.536   5.696   0.104  0.00  0.00    +0.053 A 
ENDROOT
BRANCH   5   7
ATOM      7  C   LIG    1        2.442   3.213  -0.004  0.00  0.00    +0.028 C 
ATOM      8  C   LIG    1        3.765   3.148  -0.295  0.00  0.00    +0.077 C 
ATOM      9  C   LIG    1        4.670   1.978  -0.312  0.00  0.00    +0.259 C 
ATOM     10  N   LIG    1        5.931   2.210  -0.637  0.00  0.00    -0.244 N 
ATOM     11  C   LIG    1        6.364   3.451  -0.938  0.00  0.00    +0.121 C 
ATOM     12  S   LIG    1        7.942   3.948  -1.378  0.00  0.00    -0.027 S 
ATOM     13  O   LIG    1        4.274   0.860  -0.041  0.00  0.00    -0.269 OA
ATOM     14  S   LIG    1        4.895   4.451  -0.765  0.00  0.00    -0.061 S 
BRANCH  10  15
ATOM     15  C   LIG    1        6.878   1.093  -0.673  0.00  0.00    +0.235 C 
BRANCH  15  16
ATOM     16  C   LIG    1        7.515   0.931   0.683  0.00  0.00    +0.323 C 
ATOM     17  O   LIG    1        7.209   1.673   1.587  0.00  0.00    -0.249 OA
BRANCH  16  18
ATOM     18  O   LIG    1        8.422  -0.037   0.888  0.00  0.00    -0.480 OA
ATOM     19  H   LIG    1        8.659  -0.612   0.187  0.00  0.00    +0.295 HD
ENDBRANCH  16  18
ENDBRANCH  15  16
ENDBRANCH  10  15
ENDBRANCH   5   7
BRANCH   1  20
ATOM     20  O   LIG    1        2.634   8.067   0.198  0.00  0.00    -0.487 OA
BRANCH  20  21
ATOM     21  C   LIG    1        1.915   9.297   0.310  0.00  0.00    +0.264 C 
BRANCH  21  25
ATOM     22  C   LIG    1        4.665  12.565   0.236  0.00  0.00    +0.000 A 
ATOM     23  C   LIG    1        4.125  12.089  -0.944  0.00  0.00    +0.000 A 
ATOM     24  C   LIG    1        3.236  11.032  -0.920  0.00  0.00    +0.007 A 
ATOM     25  C   LIG    1        2.886  10.450   0.284  0.00  0.00    -0.010 A 
ATOM     26  C   LIG    1        3.421  10.929   1.464  0.00  0.00    +0.007 A 
ATOM     27  C   LIG    1        4.315  11.984   1.440  0.00  0.00    +0.000 A 
ENDBRANCH  21  25
ENDBRANCH  20  21
ENDBRANCH   1  20
TORSDOF 7
