REMARK  Name = ZINC01300995
REMARK                            x       y       z     vdW  Elec       q    Type
REMARK                         _______ _______ _______ _____ _____    ______ ____
ROOT
ATOM      1  N   LIG    1        6.345  -0.591   2.106  0.00  0.00    -0.167 N 
ATOM      2  C   LIG    1        6.409  -1.201   3.277  0.00  0.00    +0.273 C 
ATOM      3  C   LIG    1        7.473  -2.215   3.438  0.00  0.00    +0.078 C 
ATOM      4  S   LIG    1        8.251  -2.141   1.830  0.00  0.00    -0.060 S 
ATOM      5  C   LIG    1        7.775  -2.988   4.511  0.00  0.00    +0.028 C 
ATOM      6  O   LIG    1        5.632  -0.941   4.177  0.00  0.00    -0.268 OA
ATOM      7  C   LIG    1        7.205  -0.886   1.110  0.00  0.00    +0.137 C 
ATOM      8  S   LIG    1        7.278  -0.217  -0.465  0.00  0.00    -0.026 S 
ENDROOT
BRANCH   5   9
ATOM      9  C   LIG    1        9.001  -3.800   4.509  0.00  0.00    -0.024 A 
ATOM     10  C   LIG    1        9.950  -3.638   3.494  0.00  0.00    +0.009 A 
ATOM     11  C   LIG    1       11.097  -4.403   3.499  0.00  0.00    +0.016 A 
ATOM     12  C   LIG    1       11.311  -5.329   4.507  0.00  0.00    +0.018 A 
ATOM     13 BR   LIG    1       12.888  -6.373   4.505  0.00  0.00    -0.050 Br
ATOM     14  C   LIG    1       10.376  -5.495   5.515  0.00  0.00    +0.016 A 
ATOM     15  C   LIG    1        9.227  -4.734   5.527  0.00  0.00    +0.009 A 
ENDBRANCH   5   9
BRANCH   1  16
ATOM     16  N   LIG    1        5.358   0.380   1.892  0.00  0.00    -0.100 NA
ATOM     17  H   LIG    1        4.459  -0.076   2.048  0.00  0.00    +0.172 HD
BRANCH  16  18
ATOM     18  S   LIG    1        5.257   1.151   0.430  0.00  0.00    +0.074 S 
ATOM     19  O   LIG    1        6.439   1.929   0.298  0.00  0.00    -0.152 OA
ATOM     20  O   LIG    1        4.883   0.166  -0.523  0.00  0.00    -0.152 OA
BRANCH  18  24
ATOM     21  C   LIG    1        1.809   4.072   0.691  0.00  0.00    +0.000 A 
ATOM     22  C   LIG    1        3.083   4.473   1.047  0.00  0.00    +0.002 A 
ATOM     23  C   LIG    1        4.136   3.581   0.967  0.00  0.00    +0.028 A 
ATOM     24  C   LIG    1        3.915   2.288   0.532  0.00  0.00    +0.107 A 
ATOM     25  C   LIG    1        2.640   1.887   0.177  0.00  0.00    +0.028 A 
ATOM     26  C   LIG    1        1.588   2.779   0.255  0.00  0.00    +0.002 A 
ENDBRANCH  18  24
ENDBRANCH  16  18
ENDBRANCH   1  16
TORSDOF 4
