REMARK  Name = ZINC01125090
REMARK                            x       y       z     vdW  Elec       q    Type
REMARK                         _______ _______ _______ _____ _____    ______ ____
ROOT
ATOM      1  N   LIG    1       -0.725   6.778   3.912  0.00  0.00    -0.323 N 
ATOM      2  C   LIG    1        0.120   7.837   3.794  0.00  0.00    +0.200 A 
ATOM      3  N   LIG    1        0.986   7.615   2.848  0.00  0.00    -0.236 NA
ATOM      4  C   LIG    1        0.754   6.397   2.293  0.00  0.00    +0.091 A 
ATOM      5  C   LIG    1        1.368   5.676   1.266  0.00  0.00    +0.054 A 
ATOM      6  C   LIG    1        0.887   4.426   0.924  0.00  0.00    +0.050 A 
ATOM      7  C   LIG    1       -0.208   3.886   1.594  0.00  0.00    +0.026 A 
ATOM      8  C   LIG    1       -0.818   4.586   2.612  0.00  0.00    +0.030 A 
ATOM      9  C   LIG    1       -0.346   5.842   2.967  0.00  0.00    +0.069 A 
ENDROOT
BRANCH   1  11
ATOM     10  C   LIG    1       -2.834   7.785   4.633  0.00  0.00    +0.036 C 
ATOM     11  C   LIG    1       -1.832   6.652   4.864  0.00  0.00    +0.116 C 
BRANCH  11  12
ATOM     12  C   LIG    1       -1.297   6.734   6.270  0.00  0.00    -0.025 A 
ATOM     13  C   LIG    1       -0.619   7.865   6.687  0.00  0.00    +0.005 A 
ATOM     14  C   LIG    1       -0.131   7.942   7.978  0.00  0.00    +0.000 A 
ATOM     15  C   LIG    1       -0.314   6.885   8.850  0.00  0.00    +0.000 A 
ATOM     16  C   LIG    1       -0.988   5.752   8.432  0.00  0.00    +0.000 A 
ATOM     17  C   LIG    1       -1.479   5.677   7.142  0.00  0.00    +0.005 A 
ENDBRANCH  11  12
ENDBRANCH   1  11
BRANCH   6  18
ATOM     18  N   LIG    1        1.500   3.703  -0.105  0.00  0.00    -0.220 N 
ATOM     19  H   LIG    1        1.063   3.621  -0.968  0.00  0.00    +0.173 HD
BRANCH  18  20
ATOM     20  S   LIG    1        2.970   2.985   0.149  0.00  0.00    +0.047 S 
ATOM     21  O   LIG    1        3.276   2.338  -1.078  0.00  0.00    -0.155 OA
ATOM     22  O   LIG    1        3.801   4.026   0.646  0.00  0.00    -0.155 OA
BRANCH  20  23
ATOM     23  C   LIG    1        2.670   1.753   1.447  0.00  0.00    +0.225 C 
BRANCH  23  24
ATOM     24  C   LIG    1        3.914   0.930   1.656  0.00  0.00    -0.006 A 
ATOM     25  C   LIG    1        4.107  -0.230   0.929  0.00  0.00    +0.007 A 
ATOM     26  C   LIG    1        5.250  -0.983   1.118  0.00  0.00    +0.000 A 
ATOM     27  C   LIG    1        6.198  -0.581   2.041  0.00  0.00    +0.001 A 
ATOM     28  C   LIG    1        6.005   0.576   2.772  0.00  0.00    +0.020 A 
ATOM     29  C   LIG    1        4.862   1.332   2.580  0.00  0.00    +0.046 A 
ATOM     30 CL   LIG    1        4.618   2.785   3.499  0.00  0.00    -0.083 Cl
ENDBRANCH  23  24
ENDBRANCH  20  23
ENDBRANCH  18  20
ENDBRANCH   6  18
TORSDOF 6
