REMARK  Name = ZINC01026247
REMARK                            x       y       z     vdW  Elec       q    Type
REMARK                         _______ _______ _______ _____ _____    ______ ____
ROOT
ATOM      1  C   LIG    1       -1.193   1.730  -0.005  0.00  0.00    -0.002 A 
ATOM      2  C   LIG    1       -0.010   1.067  -0.004  0.00  0.00    +0.036 A 
ATOM      3  C   LIG    1        1.166   1.788  -0.001  0.00  0.00    +0.056 A 
ATOM      4  C   LIG    1        1.050   3.178   0.006  0.00  0.00    +0.118 A 
ATOM      5  S   LIG    1       -0.721   3.397   0.009  0.00  0.00    -0.084 S 
ENDROOT
BRANCH   3   6
ATOM      6  N   LIG    1        2.410   1.157  -0.005  0.00  0.00    -0.268 N 
ATOM      7  H   LIG    1        3.156   1.561  -0.476  0.00  0.00    +0.156 HD
ATOM      8  C   LIG    1        2.576  -0.011   0.645  0.00  0.00    +0.308 C 
ATOM      9  N   LIG    1        3.798  -0.575   0.717  0.00  0.00    -0.269 N 
ATOM     10  H   LIG    1        4.569  -0.110   0.356  0.00  0.00    +0.156 HD
ATOM     11  O   LIG    1        1.623  -0.558   1.166  0.00  0.00    -0.252 OA
BRANCH   9  12
ATOM     12  C   LIG    1        3.956  -1.832   1.313  0.00  0.00    +0.035 A 
ATOM     13  C   LIG    1        3.176  -2.186   2.406  0.00  0.00    +0.025 A 
ATOM     14  C   LIG    1        3.328  -3.429   2.988  0.00  0.00    +0.022 A 
ATOM     15  C   LIG    1        4.266  -4.317   2.490  0.00  0.00    +0.041 A 
ATOM     16 CL   LIG    1        4.460  -5.876   3.229  0.00  0.00    -0.084 Cl
ATOM     17  C   LIG    1        5.049  -3.964   1.405  0.00  0.00    +0.022 A 
ATOM     18  C   LIG    1        4.896  -2.725   0.815  0.00  0.00    +0.025 A 
ENDBRANCH   9  12
ENDBRANCH   3   6
BRANCH   1  20
ATOM     19  C   LIG    1       -2.787   0.286   1.231  0.00  0.00    +0.016 C 
ATOM     20  C   LIG    1       -2.586   1.154  -0.013  0.00  0.00    -0.006 C 
ATOM     21  C   LIG    1       -2.777   0.299  -1.267  0.00  0.00    +0.016 C 
ATOM     22  C   LIG    1       -3.608   2.292  -0.011  0.00  0.00    +0.016 C 
ENDBRANCH   1  20
BRANCH   4  23
ATOM     23  C   LIG    1        2.070   4.157   0.011  0.00  0.00    +0.347 C 
ATOM     24  O   LIG    1        3.239   3.819   0.009  0.00  0.00    -0.244 OA
BRANCH  23  25
ATOM     25  O   LIG    1        1.746   5.468   0.018  0.00  0.00    -0.464 OA
ATOM     26  C   LIG    1        2.827   6.403   0.023  0.00  0.00    +0.280 C 
ENDBRANCH  23  25
ENDBRANCH   4  23
TORSDOF 5
