REMARK  Name = ZINC00901254
REMARK                            x       y       z     vdW  Elec       q    Type
REMARK                         _______ _______ _______ _____ _____    ______ ____
ROOT
ATOM      1  N   LIG    1        1.651  -4.999  -0.034  0.00  0.00    -0.179 NA
ATOM      2  H   LIG    1        2.011  -5.473  -0.800  0.00  0.00    +0.149 HD
ENDROOT
BRANCH   1   3
ATOM      3  S   LIG    1        0.063  -4.530  -0.023  0.00  0.00    +0.059 S 
ATOM      4  O   LIG    1       -0.490  -4.937  -1.267  0.00  0.00    -0.153 OA
ATOM      5  O   LIG    1       -0.476  -4.950   1.223  0.00  0.00    -0.153 OA
BRANCH   3  10
ATOM      6  C   LIG    1       -0.018   1.503   0.010  0.00  0.00    +0.044 C 
ATOM      7  C   LIG    1        0.002  -0.004   0.002  0.00  0.00    -0.050 A 
ATOM      8  C   LIG    1        0.006  -0.689  -1.199  0.00  0.00    +0.005 A 
ATOM      9  C   LIG    1        0.025  -2.071  -1.206  0.00  0.00    +0.029 A 
ATOM     10  C   LIG    1        0.040  -2.768  -0.013  0.00  0.00    +0.105 A 
ATOM     11  C   LIG    1        0.037  -2.084   1.188  0.00  0.00    +0.029 A 
ATOM     12  C   LIG    1        0.023  -0.702   1.195  0.00  0.00    +0.005 A 
ENDBRANCH   3  10
ENDBRANCH   1   3
BRANCH   1  13
ATOM     13  C   LIG    1        2.512  -4.699   1.113  0.00  0.00    +0.148 C 
BRANCH  13  14
ATOM     14  C   LIG    1        3.262  -3.418   0.855  0.00  0.00    +0.166 C 
ATOM     15  O   LIG    1        3.312  -2.961  -0.262  0.00  0.00    -0.294 OA
BRANCH  14  16
ATOM     16  C   LIG    1        3.950  -2.706   1.992  0.00  0.00    +0.184 C 
ATOM     17 CL   LIG    1        4.754  -1.217   1.370  0.00  0.00    -0.117 Cl
ENDBRANCH  14  16
ENDBRANCH  13  14
BRANCH  13  18
ATOM     18  C   LIG    1        3.508  -5.842   1.315  0.00  0.00    +0.063 C 
BRANCH  18  19
ATOM     19  C   LIG    1        2.764  -7.096   1.693  0.00  0.00    -0.045 A 
ATOM     20  C   LIG    1        2.516  -7.378   3.024  0.00  0.00    +0.004 A 
ATOM     21  C   LIG    1        1.833  -8.529   3.370  0.00  0.00    +0.000 A 
ATOM     22  C   LIG    1        1.398  -9.398   2.387  0.00  0.00    +0.000 A 
ATOM     23  C   LIG    1        1.646  -9.116   1.057  0.00  0.00    +0.000 A 
ATOM     24  C   LIG    1        2.325  -7.963   0.710  0.00  0.00    +0.004 A 
ENDBRANCH  18  19
ENDBRANCH  13  18
ENDBRANCH   1  13
TORSDOF 7
