REMARK  Name = ZINC01210209
REMARK                            x       y       z     vdW  Elec       q    Type
REMARK                         _______ _______ _______ _____ _____    ______ ____
ROOT
ATOM      1  N   LIG    1       -1.170   2.685   0.809  0.00  0.00    -0.223 N 
ATOM      2  C   LIG    1       -0.997   3.953   0.477  0.00  0.00    +0.263 C 
ATOM      3  C   LIG    1        0.403   4.418   0.350  0.00  0.00    +0.077 C 
ATOM      4  S   LIG    1        1.290   2.917   0.747  0.00  0.00    -0.061 S 
ATOM      5  C   LIG    1        0.881   5.644   0.023  0.00  0.00    +0.028 C 
ATOM      6  O   LIG    1       -1.939   4.698   0.281  0.00  0.00    -0.269 OA
ATOM      7  C   LIG    1       -0.123   1.865   1.030  0.00  0.00    +0.125 C 
ATOM      8  S   LIG    1       -0.145   0.210   1.470  0.00  0.00    -0.027 S 
ENDROOT
BRANCH   1  14
ATOM      9  C   LIG    1       -5.096   0.525  -1.217  0.00  0.00    +0.044 C 
ATOM     10  C   LIG    1       -4.398   1.132  -0.027  0.00  0.00    -0.046 A 
ATOM     11  C   LIG    1       -5.043   1.193   1.195  0.00  0.00    +0.004 A 
ATOM     12  C   LIG    1       -4.405   1.748   2.289  0.00  0.00    +0.002 A 
ATOM     13  C   LIG    1       -3.122   2.244   2.164  0.00  0.00    +0.024 A 
ATOM     14  C   LIG    1       -2.472   2.184   0.939  0.00  0.00    +0.046 A 
ATOM     15  C   LIG    1       -3.117   1.631  -0.159  0.00  0.00    -0.026 A 
ATOM     16  C   LIG    1       -2.418   1.569  -1.493  0.00  0.00    +0.046 C 
ENDBRANCH   1  14
BRANCH   5  17
ATOM     17  C   LIG    1        2.321   5.922   0.122  0.00  0.00    -0.024 A 
ATOM     18  C   LIG    1        3.175   4.990   0.726  0.00  0.00    +0.009 A 
ATOM     19  C   LIG    1        4.513   5.247   0.812  0.00  0.00    +0.015 A 
ATOM     20  C   LIG    1        5.030   6.445   0.309  0.00  0.00    +0.059 A 
ATOM     21  C   LIG    1        4.178   7.379  -0.289  0.00  0.00    +0.015 A 
ATOM     22  C   LIG    1        2.839   7.122  -0.382  0.00  0.00    +0.009 A 
BRANCH  20  23
ATOM     23  C   LIG    1        6.476   6.724   0.408  0.00  0.00    +0.337 C 
ATOM     24  O   LIG    1        6.925   7.765  -0.029  0.00  0.00    -0.245 OA
BRANCH  23  25
ATOM     25  O   LIG    1        7.297   5.825   0.984  0.00  0.00    -0.477 OA
ATOM     26  H   LIG    1        6.951   5.022   1.322  0.00  0.00    +0.295 HD
ENDBRANCH  23  25
ENDBRANCH  20  23
ENDBRANCH   5  17
TORSDOF 4
