REMARK  Name = ZINC00974520
REMARK                            x       y       z     vdW  Elec       q    Type
REMARK                         _______ _______ _______ _____ _____    ______ ____
ROOT
ATOM      1  C   LIG    1       -1.367  -0.735  -0.799  0.00  0.00    +0.136 A 
ATOM      2  C   LIG    1       -1.428  -2.088  -0.618  0.00  0.00    +0.050 A 
ATOM      3  C   LIG    1       -2.744  -2.398  -0.267  0.00  0.00    +0.050 A 
ATOM      4  C   LIG    1       -3.445  -1.205  -0.256  0.00  0.00    +0.130 A 
ATOM      5  O   LIG    1       -2.588  -0.214  -0.582  0.00  0.00    -0.455 OA
ENDROOT
BRANCH   4   6
ATOM      6  C   LIG    1       -4.816  -1.051   0.042  0.00  0.00    +0.066 C 
ATOM      7  C   LIG    1       -5.354   0.198   0.157  0.00  0.00    +0.082 C 
ATOM      8  C   LIG    1       -4.702   1.469   0.185  0.00  0.00    +0.258 C 
ATOM      9  N   LIG    1       -5.453   2.549   0.302  0.00  0.00    -0.243 N 
ATOM     10  H   LIG    1       -5.034   3.424   0.320  0.00  0.00    +0.159 HD
ATOM     11  C   LIG    1       -6.798   2.454   0.404  0.00  0.00    +0.283 C 
ATOM     12  O   LIG    1       -7.618   3.345   0.520  0.00  0.00    -0.262 OA
ATOM     13  O   LIG    1       -3.490   1.554   0.100  0.00  0.00    -0.269 OA
ATOM     14  S   LIG    1       -7.064   0.690   0.322  0.00  0.00    -0.026 S 
ENDBRANCH   4   6
BRANCH   1  17
ATOM     15  C   LIG    1        0.899   2.122  -1.691  0.00  0.00    +0.002 A 
ATOM     16  C   LIG    1       -0.231   1.414  -1.338  0.00  0.00    +0.011 A 
ATOM     17  C   LIG    1       -0.162   0.028  -1.177  0.00  0.00    +0.018 A 
ATOM     18  C   LIG    1        1.053  -0.632  -1.376  0.00  0.00    +0.026 A 
ATOM     19  C   LIG    1        2.176   0.088  -1.729  0.00  0.00    +0.019 A 
ATOM     20 BR   LIG    1        3.822  -0.802  -1.998  0.00  0.00    -0.050 Br
ATOM     21  C   LIG    1        2.100   1.462  -1.887  0.00  0.00    +0.015 A 
ENDBRANCH   1  17
TORSDOF 2
