REMARK  Name = ZINC00876708
REMARK                            x       y       z     vdW  Elec       q    Type
REMARK                         _______ _______ _______ _____ _____    ______ ____
ROOT
ATOM      1  N   LIG    1        2.535  -2.071   5.013  0.00  0.00    -0.325 N 
ATOM      2  H   LIG    1        3.377  -1.927   5.472  0.00  0.00    +0.169 HD
ATOM      3  C   LIG    1        1.961  -3.254   5.047  0.00  0.00    +0.212 A 
ATOM      4  C   LIG    1        2.649  -4.420   5.635  0.00  0.00    +0.098 A 
ATOM      5  C   LIG    1        1.857  -5.448   6.125  0.00  0.00    +0.030 A 
ATOM      6  C   LIG    1        0.449  -5.326   6.001  0.00  0.00    +0.018 A 
ATOM      7  C   LIG    1       -0.402  -6.232   6.653  0.00  0.00    +0.015 A 
ATOM      8  C   LIG    1       -1.754  -6.081   6.561  0.00  0.00    +0.046 A 
ATOM      9  C   LIG    1       -2.300  -5.037   5.816  0.00  0.00    +0.120 A 
ATOM     10  C   LIG    1       -1.475  -4.143   5.149  0.00  0.00    +0.092 A 
ATOM     11  C   LIG    1       -0.100  -4.287   5.226  0.00  0.00    +0.141 A 
ATOM     12  O   LIG    1        0.712  -3.444   4.547  0.00  0.00    -0.438 OA
ENDROOT
BRANCH   1  16
ATOM     13  C   LIG    1        0.748   1.039   2.944  0.00  0.00    +0.120 A 
ATOM     14  C   LIG    1        1.265   1.259   4.214  0.00  0.00    +0.047 A 
ATOM     15  C   LIG    1        1.861   0.226   4.906  0.00  0.00    +0.029 A 
ATOM     16  C   LIG    1        1.944  -1.043   4.329  0.00  0.00    +0.042 A 
ATOM     17  C   LIG    1        1.422  -1.260   3.051  0.00  0.00    +0.029 A 
ATOM     18  C   LIG    1        0.823  -0.222   2.369  0.00  0.00    +0.047 A 
BRANCH  13  20
ATOM     19  C   LIG    1        0.118   3.332   2.915  0.00  0.00    +0.277 C 
ATOM     20  O   LIG    1        0.162   2.060   2.265  0.00  0.00    -0.495 OA
ENDBRANCH  13  20
ENDBRANCH   1  16
BRANCH   4  21
ATOM     21  C   LIG    1        4.117  -4.490   5.698  0.00  0.00    +0.254 C 
ATOM     22  N   LIG    1        4.864  -3.547   5.090  0.00  0.00    -0.266 N 
ATOM     23  H   LIG    1        4.434  -2.796   4.651  0.00  0.00    +0.157 HD
ATOM     24  O   LIG    1        4.658  -5.399   6.300  0.00  0.00    -0.270 OA
BRANCH  22  25
ATOM     25  C   LIG    1        6.253  -3.649   5.092  0.00  0.00    +0.125 A 
ATOM     26  C   LIG    1        6.883  -4.452   6.037  0.00  0.00    +0.044 A 
ATOM     27  C   LIG    1        8.263  -4.546   6.027  0.00  0.00    +0.005 A 
ATOM     28  C   LIG    1        8.969  -3.829   5.070  0.00  0.00    +0.020 A 
ATOM     29  C   LIG    1        8.278  -3.051   4.162  0.00  0.00    +0.113 A 
ATOM     30  N   LIG    1        6.961  -2.985   4.192  0.00  0.00    -0.240 NA
ENDBRANCH  22  25
ENDBRANCH   4  21
BRANCH   9  31
ATOM     31  O   LIG    1       -3.647  -4.894   5.743  0.00  0.00    -0.507 OA
ATOM     32  H   LIG    1       -4.021  -4.333   6.437  0.00  0.00    +0.292 HD
ENDBRANCH   9  31
TORSDOF 5
