REMARK  Name = ZINC00813647
REMARK                            x       y       z     vdW  Elec       q    Type
REMARK                         _______ _______ _______ _____ _____    ______ ____
ROOT
ATOM      1  C   LIG    1        0.758  -0.643  -1.066  0.00  0.00    +0.143 A 
ATOM      2  C   LIG    1        1.288   0.269  -1.962  0.00  0.00    +0.070 A 
ATOM      3  C   LIG    1        2.011  -0.178  -3.060  0.00  0.00    +0.037 A 
ATOM      4  C   LIG    1        2.203  -1.539  -3.259  0.00  0.00    +0.025 A 
ATOM      5  C   LIG    1        1.675  -2.450  -2.365  0.00  0.00    +0.029 A 
ATOM      6  C   LIG    1        0.957  -2.008  -1.264  0.00  0.00    +0.076 A 
ENDROOT
BRANCH   3   7
ATOM      7  N   LIG    1        2.547   0.744  -3.967  0.00  0.00    -0.279 N 
ATOM      8  H   LIG    1        2.067   1.563  -4.167  0.00  0.00    +0.155 HD
ATOM      9  C   LIG    1        3.731   0.494  -4.562  0.00  0.00    +0.284 C 
ATOM     10  O   LIG    1        4.380  -0.484  -4.238  0.00  0.00    -0.266 OA
BRANCH   9  11
ATOM     11  C   LIG    1        4.236   1.399  -5.599  0.00  0.00    +0.189 A 
ATOM     12  C   LIG    1        5.410   1.261  -6.282  0.00  0.00    +0.054 A 
ATOM     13  C   LIG    1        5.490   2.345  -7.171  0.00  0.00    +0.042 A 
ATOM     14  C   LIG    1        4.375   3.087  -6.993  0.00  0.00    +0.196 A 
ATOM     15  O   LIG    1        3.619   2.511  -6.049  0.00  0.00    -0.458 OA
ENDBRANCH   9  11
ENDBRANCH   3   7
BRANCH   6  16
ATOM     16  N   LIG    1        0.425  -2.933  -0.355  0.00  0.00    -0.279 N 
ATOM     17  H   LIG    1        0.259  -2.670   0.564  0.00  0.00    +0.155 HD
ATOM     18  C   LIG    1        0.146  -4.189  -0.757  0.00  0.00    +0.250 C 
ATOM     19  O   LIG    1        0.424  -4.541  -1.887  0.00  0.00    -0.270 OA
BRANCH  18  20
ATOM     20  C   LIG    1       -0.497  -5.138   0.176  0.00  0.00    +0.055 A 
ATOM     21  C   LIG    1       -0.822  -4.735   1.472  0.00  0.00    +0.014 A 
ATOM     22  C   LIG    1       -1.423  -5.625   2.338  0.00  0.00    +0.001 A 
ATOM     23  C   LIG    1       -1.703  -6.916   1.924  0.00  0.00    +0.001 A 
ATOM     24  C   LIG    1       -1.384  -7.323   0.642  0.00  0.00    +0.021 A 
ATOM     25  C   LIG    1       -0.787  -6.440  -0.238  0.00  0.00    +0.053 A 
ATOM     26 CL   LIG    1       -0.394  -6.950  -1.850  0.00  0.00    -0.083 Cl
ENDBRANCH  18  20
ENDBRANCH   6  16
BRANCH   1  28
ATOM     27  C   LIG    1       -0.115   1.205   0.150  0.00  0.00    +0.277 C 
ATOM     28  O   LIG    1        0.049  -0.207   0.010  0.00  0.00    -0.493 OA
ENDBRANCH   1  28
TORSDOF 5
