REMARK  Name = ZINC00976550
REMARK                            x       y       z     vdW  Elec       q    Type
REMARK                         _______ _______ _______ _____ _____    ______ ____
ROOT
ATOM      1  C   LIG    1        5.369   2.414  -2.575  0.00  0.00    +0.140 C 
ATOM      2  N   LIG    1        4.083   1.804  -2.226  0.00  0.00    -0.255 N 
ATOM      3  C   LIG    1        3.660   1.598  -0.963  0.00  0.00    +0.242 C 
ATOM      4  C   LIG    1        2.295   0.953  -1.087  0.00  0.00    +0.171 C 
ATOM      5  N   LIG    1        2.087   0.862  -2.543  0.00  0.00    -0.296 N 
ATOM      6  O   LIG    1        4.250   1.873   0.061  0.00  0.00    -0.273 OA
ATOM      7  C   LIG    1        3.183   1.383  -3.122  0.00  0.00    +0.143 C 
ATOM      8  S   LIG    1        3.403   1.495  -4.816  0.00  0.00    -0.018 S 
ENDROOT
BRANCH   4   9
ATOM      9  C   LIG    1        1.222   1.835  -0.445  0.00  0.00    +0.128 C 
BRANCH   9  10
ATOM     10  C   LIG    1       -0.112   1.138  -0.520  0.00  0.00    +0.219 C 
ATOM     11  N   LIG    1       -1.251   1.848  -0.394  0.00  0.00    -0.285 N 
ATOM     12  H   LIG    1       -1.216   2.816  -0.347  0.00  0.00    +0.155 HD
ATOM     13  O   LIG    1       -0.161  -0.060  -0.698  0.00  0.00    -0.275 OA
BRANCH  11  14
ATOM     14  C   LIG    1       -2.479   1.191  -0.331  0.00  0.00    +0.033 A 
ATOM     15  C   LIG    1       -2.577  -0.037   0.317  0.00  0.00    +0.024 A 
ATOM     16  C   LIG    1       -3.788  -0.686   0.386  0.00  0.00    +0.017 A 
ATOM     17  C   LIG    1       -4.919  -0.116  -0.207  0.00  0.00    +0.059 A 
ATOM     18  C   LIG    1       -4.816   1.114  -0.863  0.00  0.00    +0.017 A 
ATOM     19  C   LIG    1       -3.602   1.761  -0.922  0.00  0.00    +0.024 A 
BRANCH  17  20
ATOM     20  C   LIG    1       -6.218  -0.812  -0.142  0.00  0.00    +0.339 C 
ATOM     21  O   LIG    1       -7.199  -0.316  -0.658  0.00  0.00    -0.245 OA
BRANCH  20  22
ATOM     22  O   LIG    1       -6.316  -1.998   0.490  0.00  0.00    -0.464 OA
ATOM     23  C   LIG    1       -7.625  -2.626   0.515  0.00  0.00    +0.280 C 
ENDBRANCH  20  22
ENDBRANCH  17  20
ENDBRANCH  11  14
ENDBRANCH   9  10
ENDBRANCH   4   9
BRANCH   5  24
ATOM     24  C   LIG    1        0.914   0.311  -3.227  0.00  0.00    +0.142 C 
BRANCH  24  25
ATOM     25  C   LIG    1        1.159  -1.139  -3.557  0.00  0.00    -0.030 A 
ATOM     26  C   LIG    1        1.816  -1.479  -4.725  0.00  0.00    +0.009 A 
ATOM     27  C   LIG    1        2.047  -2.807  -5.027  0.00  0.00    +0.046 A 
ATOM     28  C   LIG    1        1.610  -3.800  -4.163  0.00  0.00    +0.120 A 
ATOM     29  C   LIG    1        0.946  -3.456  -2.994  0.00  0.00    +0.046 A 
ATOM     30  C   LIG    1        0.722  -2.126  -2.694  0.00  0.00    +0.009 A 
BRANCH  28  31
ATOM     31  O   LIG    1        1.831  -5.107  -4.460  0.00  0.00    -0.495 OA
ATOM     32  C   LIG    1        2.521  -5.387  -5.680  0.00  0.00    +0.277 C 
ENDBRANCH  28  31
ENDBRANCH  24  25
ENDBRANCH   5  24
TORSDOF 8
