REMARK  Name = ZINC00921302
REMARK                            x       y       z     vdW  Elec       q    Type
REMARK                         _______ _______ _______ _____ _____    ______ ____
ROOT
ATOM      1  C   LIG    1       -4.551   1.272   3.634  0.00  0.00    +0.060 A 
ATOM      2  C   LIG    1       -4.499   2.659   3.862  0.00  0.00    +0.017 A 
ATOM      3  C   LIG    1       -4.594   3.538   2.831  0.00  0.00    +0.029 A 
ATOM      4  C   LIG    1       -4.756   3.070   1.515  0.00  0.00    +0.073 A 
ATOM      5  C   LIG    1       -4.815   1.675   1.276  0.00  0.00    +0.023 A 
ATOM      6  C   LIG    1       -4.978   1.210  -0.053  0.00  0.00    +0.056 A 
ATOM      7  C   LIG    1       -5.074   2.170  -1.074  0.00  0.00    +0.099 A 
ATOM      8  C   LIG    1       -5.005   3.532  -0.743  0.00  0.00    +0.128 A 
ATOM      9  N   LIG    1       -4.854   3.932   0.494  0.00  0.00    -0.254 NA
ATOM     10  C   LIG    1       -4.711   0.780   2.345  0.00  0.00    +0.026 A 
ENDROOT
BRANCH   1  11
ATOM     11  C   LIG    1       -4.440   0.337   4.769  0.00  0.00    +0.339 C 
ATOM     12  O   LIG    1       -4.566  -0.858   4.586  0.00  0.00    -0.245 OA
BRANCH  11  13
ATOM     13  O   LIG    1       -4.195   0.806   6.008  0.00  0.00    -0.461 OA
BRANCH  13  15
ATOM     14  C   LIG    1       -3.813   0.544   8.399  0.00  0.00    +0.048 C 
ATOM     15  C   LIG    1       -4.093  -0.172   7.076  0.00  0.00    +0.229 C 
ENDBRANCH  13  15
ENDBRANCH  11  13
ENDBRANCH   1  11
BRANCH   6  16
ATOM     16  N   LIG    1       -5.040  -0.135  -0.333  0.00  0.00    -0.313 N 
ATOM     17  H   LIG    1       -5.901  -0.579  -0.390  0.00  0.00    +0.152 HD
BRANCH  16  18
ATOM     18  C   LIG    1       -3.863  -0.863  -0.536  0.00  0.00    +0.031 A 
ATOM     19  C   LIG    1       -2.643  -0.202  -0.616  0.00  0.00    +0.025 A 
ATOM     20  C   LIG    1       -1.481  -0.921  -0.810  0.00  0.00    +0.025 A 
ATOM     21  C   LIG    1       -1.532  -2.303  -0.936  0.00  0.00    +0.033 A 
ATOM     22  C   LIG    1       -2.751  -2.963  -0.862  0.00  0.00    +0.025 A 
ATOM     23  C   LIG    1       -3.913  -2.245  -0.662  0.00  0.00    +0.025 A 
BRANCH  21  24
ATOM     24  N   LIG    1       -0.352  -3.032  -1.138  0.00  0.00    -0.286 N 
ATOM     25  H   LIG    1        0.392  -2.628  -1.611  0.00  0.00    +0.155 HD
ATOM     26  C   LIG    1       -0.253  -4.294  -0.676  0.00  0.00    +0.214 C 
ATOM     27  C   LIG    1        1.050  -5.041  -0.801  0.00  0.00    +0.109 C 
ATOM     28  O   LIG    1       -1.211  -4.828  -0.159  0.00  0.00    -0.276 OA
ENDBRANCH  21  24
ENDBRANCH  16  18
ENDBRANCH   6  16
BRANCH   7  29
ATOM     29  C   LIG    1       -5.245   1.752  -2.474  0.00  0.00    +0.342 C 
ATOM     30  O   LIG    1       -5.408   0.578  -2.742  0.00  0.00    -0.245 OA
BRANCH  29  31
ATOM     31  O   LIG    1       -5.221   2.672  -3.459  0.00  0.00    -0.461 OA
BRANCH  31  32
ATOM     32  C   LIG    1       -5.495   2.202  -4.806  0.00  0.00    +0.229 C 
ATOM     33  C   LIG    1       -5.330   3.360  -5.793  0.00  0.00    +0.048 C 
ENDBRANCH  31  32
ENDBRANCH  29  31
ENDBRANCH   7  29
TORSDOF 9
