REMARK  Name = ZINC01036850
REMARK                            x       y       z     vdW  Elec       q    Type
REMARK                         _______ _______ _______ _____ _____    ______ ____
ROOT
ATOM      1  C   LIG    1        0.909  -2.128   0.027  0.00  0.00    +0.015 A 
ATOM      2  C   LIG    1        1.247  -0.705  -0.115  0.00  0.00    +0.008 A 
ATOM      3  C   LIG    1        2.450  -0.008  -0.246  0.00  0.00    +0.010 A 
ATOM      4  C   LIG    1        2.437   1.353  -0.362  0.00  0.00    +0.001 A 
ATOM      5  C   LIG    1        1.237   2.050  -0.348  0.00  0.00    +0.002 A 
ATOM      6  C   LIG    1        0.039   1.382  -0.220  0.00  0.00    +0.026 A 
ATOM      7  C   LIG    1        0.028  -0.005  -0.102  0.00  0.00    +0.048 A 
ATOM      8  N   LIG    1       -0.987  -0.927   0.038  0.00  0.00    -0.354 N 
ATOM      9  H   LIG    1       -1.932  -0.712   0.076  0.00  0.00    +0.166 HD
ATOM     10  C   LIG    1       -0.466  -2.196   0.115  0.00  0.00    +0.055 A 
ENDROOT
BRANCH   1  14
ATOM     11  C   LIG    1        3.628  -5.391   0.141  0.00  0.00    +0.000 A 
ATOM     12  C   LIG    1        3.624  -4.461   1.165  0.00  0.00    +0.001 A 
ATOM     13  C   LIG    1        2.744  -3.399   1.134  0.00  0.00    +0.008 A 
ATOM     14  C   LIG    1        1.856  -3.264   0.066  0.00  0.00    -0.015 A 
ATOM     15  C   LIG    1        1.861  -4.208  -0.961  0.00  0.00    +0.008 A 
ATOM     16  C   LIG    1        2.750  -5.262  -0.921  0.00  0.00    +0.001 A 
ENDBRANCH   1  14
BRANCH  10  17
ATOM     17  C   LIG    1       -1.253  -3.436   0.268  0.00  0.00    -0.001 A 
ATOM     18  C   LIG    1       -2.378  -3.656  -0.529  0.00  0.00    +0.010 A 
ATOM     19  C   LIG    1       -3.105  -4.819  -0.384  0.00  0.00    +0.001 A 
ATOM     20  C   LIG    1       -2.729  -5.761   0.557  0.00  0.00    +0.000 A 
ATOM     21  C   LIG    1       -1.619  -5.547   1.354  0.00  0.00    +0.001 A 
ATOM     22  C   LIG    1       -0.879  -4.391   1.216  0.00  0.00    +0.010 A 
ENDBRANCH  10  17
TORSDOF 2
