REMARK  Name = ZINC01170062
REMARK                            x       y       z     vdW  Elec       q    Type
REMARK                         _______ _______ _______ _____ _____    ______ ____
ROOT
ATOM      1  C   LIG    1        6.490  -4.489  -0.087  0.00  0.00    +0.137 C 
ENDROOT
BRANCH   1   2
ATOM      2  C   LIG    1        6.510  -5.822   0.616  0.00  0.00    +0.022 A 
ATOM      3  C   LIG    1        5.373  -6.625   0.597  0.00  0.00    +0.030 A 
ATOM      4  C   LIG    1        5.359  -7.835   1.222  0.00  0.00    +0.051 A 
ATOM      5 CL   LIG    1        3.930  -8.819   1.186  0.00  0.00    -0.083 Cl
ATOM      6  C   LIG    1        6.508  -8.283   1.897  0.00  0.00    +0.022 A 
ATOM      7  C   LIG    1        6.533  -9.527   2.555  0.00  0.00    +0.013 A 
ATOM      8  C   LIG    1        7.684  -9.897   3.190  0.00  0.00    +0.020 A 
ATOM      9  C   LIG    1        8.790  -9.050   3.175  0.00  0.00    +0.111 A 
ATOM     10  N   LIG    1        8.762  -7.892   2.561  0.00  0.00    -0.251 NA
ATOM     11  C   LIG    1        7.668  -7.471   1.921  0.00  0.00    +0.114 A 
ATOM     12  C   LIG    1        7.646  -6.226   1.257  0.00  0.00    +0.148 A 
BRANCH  12  13
ATOM     13  O   LIG    1        8.748  -5.431   1.261  0.00  0.00    -0.504 OA
ATOM     14  H   LIG    1        8.785  -4.814   2.005  0.00  0.00    +0.292 HD
ENDBRANCH  12  13
ENDBRANCH   1   2
BRANCH   1  15
ATOM     15  C   LIG    1        7.004  -4.655  -1.494  0.00  0.00    -0.023 A 
ATOM     16  C   LIG    1        6.169  -5.144  -2.481  0.00  0.00    +0.007 A 
ATOM     17  C   LIG    1        6.640  -5.297  -3.772  0.00  0.00    +0.020 A 
ATOM     18  C   LIG    1        7.947  -4.960  -4.075  0.00  0.00    +0.041 A 
ATOM     19 CL   LIG    1        8.539  -5.153  -5.696  0.00  0.00    -0.084 Cl
ATOM     20  C   LIG    1        8.782  -4.471  -3.087  0.00  0.00    +0.020 A 
ATOM     21  C   LIG    1        8.308  -4.314  -1.798  0.00  0.00    +0.007 A 
ENDBRANCH   1  15
BRANCH   1  23
ATOM     22  C   LIG    1        4.894  -2.650  -0.180  0.00  0.00    +0.251 C 
ATOM     23  N   LIG    1        5.117  -3.978  -0.126  0.00  0.00    -0.302 N 
ATOM     24  H   LIG    1        4.370  -4.596  -0.112  0.00  0.00    +0.150 HD
ATOM     25  O   LIG    1        5.829  -1.878  -0.197  0.00  0.00    -0.272 OA
BRANCH  22  26
ATOM     26  C   LIG    1        3.482  -2.125  -0.220  0.00  0.00    +0.324 C 
BRANCH  26  27
ATOM     27  O   LIG    1        3.506  -0.697  -0.275  0.00  0.00    -0.483 OA
BRANCH  27  31
ATOM     28  C   LIG    1       -0.137   1.234  -0.402  0.00  0.00    +0.000 A 
ATOM     29  C   LIG    1        1.034   1.969  -0.413  0.00  0.00    +0.004 A 
ATOM     30  C   LIG    1        2.255   1.324  -0.371  0.00  0.00    +0.045 A 
ATOM     31  C   LIG    1        2.306  -0.061  -0.316  0.00  0.00    +0.121 A 
ATOM     32  C   LIG    1        1.129  -0.796  -0.305  0.00  0.00    +0.045 A 
ATOM     33  C   LIG    1       -0.090  -0.147  -0.348  0.00  0.00    +0.004 A 
ENDBRANCH  27  31
ENDBRANCH  26  27
ENDBRANCH  22  26
ENDBRANCH   1  23
TORSDOF 7
