REMARK  Name = ZINC00943069
REMARK                            x       y       z     vdW  Elec       q    Type
REMARK                         _______ _______ _______ _____ _____    ______ ____
ROOT
ATOM      1  C   LIG    1       -1.229   2.107   0.039  0.00  0.00    +0.070 C 
ATOM      2  C   LIG    1       -0.017   1.428   0.025  0.00  0.00    +0.117 C 
ENDROOT
BRANCH   1   6
ATOM      3  C   LIG    1       -3.859  -0.287   0.064  0.00  0.00    +0.137 A 
ATOM      4  C   LIG    1       -4.607   0.872   0.074  0.00  0.00    +0.050 A 
ATOM      5  C   LIG    1       -3.709   1.938   0.071  0.00  0.00    +0.050 A 
ATOM      6  C   LIG    1       -2.435   1.388   0.051  0.00  0.00    +0.130 A 
ATOM      7  O   LIG    1       -2.556   0.043   0.050  0.00  0.00    -0.455 OA
BRANCH   3  13
ATOM      8  C   LIG    1       -4.452  -3.878  -0.854  0.00  0.00    +0.001 A 
ATOM      9  C   LIG    1       -5.411  -4.239   0.077  0.00  0.00    +0.001 A 
ATOM     10  C   LIG    1       -5.868  -3.318   1.003  0.00  0.00    +0.021 A 
ATOM     11  C   LIG    1       -5.364  -2.033   1.009  0.00  0.00    +0.052 A 
ATOM     12 CL   LIG    1       -5.933  -0.880   2.176  0.00  0.00    -0.083 Cl
ATOM     13  C   LIG    1       -4.399  -1.660   0.068  0.00  0.00    +0.036 A 
ATOM     14  C   LIG    1       -3.943  -2.596  -0.864  0.00  0.00    +0.013 A 
ENDBRANCH   3  13
ENDBRANCH   1   6
BRANCH   2  15
ATOM     15  C   LIG    1        1.244   2.179   0.006  0.00  0.00    +0.259 C 
ATOM     16  N   LIG    1        2.419   1.521  -0.013  0.00  0.00    -0.280 N 
ATOM     17  H   LIG    1        2.435   0.553   0.052  0.00  0.00    +0.155 HD
ATOM     18  O   LIG    1        1.227   3.396   0.009  0.00  0.00    -0.269 OA
BRANCH  16  19
ATOM     19  C   LIG    1        3.614   2.231  -0.126  0.00  0.00    +0.043 A 
ATOM     20  C   LIG    1        3.746   3.470   0.465  0.00  0.00    +0.024 A 
ATOM     21  C   LIG    1        4.937   4.181   0.362  0.00  0.00    +0.004 A 
ATOM     22  C   LIG    1        5.997   3.683  -0.332  0.00  0.00    +0.028 A 
ATOM     23  C   LIG    1        5.904   2.426  -0.954  0.00  0.00    +0.073 A 
ATOM     24  N   LIG    1        6.934   1.919  -1.640  0.00  0.00    -0.255 NA
ATOM     25  C   LIG    1        6.853   0.748  -2.224  0.00  0.00    +0.111 A 
ATOM     26  C   LIG    1        5.696  -0.024  -2.160  0.00  0.00    +0.020 A 
ATOM     27  C   LIG    1        4.607   0.435  -1.474  0.00  0.00    +0.013 A 
ATOM     28  C   LIG    1        4.697   1.691  -0.850  0.00  0.00    +0.022 A 
ENDBRANCH  16  19
ENDBRANCH   2  15
BRANCH   2  29
ATOM     29  C   LIG    1        0.002  -0.004   0.022  0.00  0.00    +0.104 C 
ATOM     30  N   LIG    1        0.017  -1.139   0.020  0.00  0.00    -0.191 NA
ENDBRANCH   2  29
TORSDOF 5
