REMARK  Name = ZINC00968311
REMARK                            x       y       z     vdW  Elec       q    Type
REMARK                         _______ _______ _______ _____ _____    ______ ____
ROOT
ATOM      1  C   LIG    1       -2.904   1.556   0.038  0.00  0.00    -0.040 C 
ATOM      2  C   LIG    1       -1.886   0.743  -0.763  0.00  0.00    -0.007 C 
ATOM      3  C   LIG    1       -0.473   1.079  -0.283  0.00  0.00    -0.001 C 
ATOM      4  C   LIG    1       -0.343   0.738   1.202  0.00  0.00    -0.000 C 
ATOM      5  C   LIG    1       -1.361   1.552   2.003  0.00  0.00    -0.001 C 
ATOM      6  C   LIG    1       -2.775   1.215   1.524  0.00  0.00    -0.007 C 
ENDROOT
BRANCH   1   7
ATOM      7  N   LIG    1       -2.620   2.994  -0.153  0.00  0.00    +0.386 N 
ATOM      8  H   LIG    1       -1.621   3.162   0.018  0.00  0.00    -0.081 HD
ATOM      9  C   LIG    1       -2.942   3.392  -1.540  0.00  0.00    -0.078 C 
ATOM     10  C   LIG    1       -2.528   4.850  -1.747  0.00  0.00    -0.019 C 
ATOM     11  C   LIG    1       -3.297   5.738  -0.764  0.00  0.00    -0.004 C 
ATOM     12  C   LIG    1       -3.013   5.268   0.665  0.00  0.00    -0.019 C 
ATOM     13  C   LIG    1       -3.412   3.797   0.802  0.00  0.00    -0.078 C 
ENDBRANCH   1   7
BRANCH   1  17
ATOM     14  C   LIG    1       -6.850   0.616  -1.300  0.00  0.00    +0.000 A 
ATOM     15  C   LIG    1       -5.962  -0.400  -1.000  0.00  0.00    +0.000 A 
ATOM     16  C   LIG    1       -4.685  -0.095  -0.567  0.00  0.00    +0.002 A 
ATOM     17  C   LIG    1       -4.296   1.225  -0.434  0.00  0.00    -0.058 A 
ATOM     18  C   LIG    1       -5.187   2.240  -0.729  0.00  0.00    +0.002 A 
ATOM     19  C   LIG    1       -6.462   1.936  -1.167  0.00  0.00    +0.000 A 
ENDBRANCH   1  17
TORSDOF 2
