REMARK  Name = ZINC01205976
REMARK                            x       y       z     vdW  Elec       q    Type
REMARK                         _______ _______ _______ _____ _____    ______ ____
ROOT
ATOM      1  C   LIG    1        5.094  -2.429   0.464  0.00  0.00    +0.037 A 
ATOM      2  C   LIG    1        6.343  -1.801   0.452  0.00  0.00    +0.015 A 
ATOM      3  C   LIG    1        7.492  -2.558   0.438  0.00  0.00    +0.025 A 
ATOM      4  C   LIG    1        7.412  -3.947   0.434  0.00  0.00    +0.048 A 
ATOM      5  C   LIG    1        6.170  -4.576   0.446  0.00  0.00    +0.025 A 
ATOM      6  C   LIG    1        5.017  -3.825   0.466  0.00  0.00    +0.015 A 
ENDROOT
BRANCH   1   9
ATOM      7  N   LIG    1        3.936  -0.276   0.477  0.00  0.00    -0.282 N 
ATOM      8  H   LIG    1        4.798   0.161   0.396  0.00  0.00    +0.155 HD
ATOM      9  C   LIG    1        3.860  -1.621   0.480  0.00  0.00    +0.248 C 
ATOM     10  O   LIG    1        2.775  -2.169   0.495  0.00  0.00    -0.270 OA
BRANCH   7  14
ATOM     11  C   LIG    1        0.468   2.006   0.817  0.00  0.00    +0.000 A 
ATOM     12  C   LIG    1        1.641   2.442   1.405  0.00  0.00    +0.002 A 
ATOM     13  C   LIG    1        2.792   1.688   1.294  0.00  0.00    +0.023 A 
ATOM     14  C   LIG    1        2.771   0.490   0.592  0.00  0.00    +0.034 A 
ATOM     15  C   LIG    1        1.591   0.055   0.003  0.00  0.00    +0.023 A 
ATOM     16  C   LIG    1        0.443   0.814   0.117  0.00  0.00    +0.002 A 
ENDBRANCH   7  14
ENDBRANCH   1   9
BRANCH   4  17
ATOM     17  N   LIG    1        8.575  -4.709   0.419  0.00  0.00    -0.216 N 
ATOM     18  H   LIG    1        9.298  -4.479  -0.186  0.00  0.00    +0.174 HD
BRANCH  17  19
ATOM     19  S   LIG    1        8.727  -6.009   1.435  0.00  0.00    +0.072 S 
ATOM     20  O   LIG    1       10.035  -6.528   1.237  0.00  0.00    -0.150 OA
ATOM     21  O   LIG    1        7.560  -6.799   1.260  0.00  0.00    -0.150 OA
BRANCH  19  22
ATOM     22  C   LIG    1        8.675  -5.390   3.084  0.00  0.00    +0.108 A 
ATOM     23  C   LIG    1        9.827  -4.912   3.679  0.00  0.00    +0.029 A 
ATOM     24  C   LIG    1        9.786  -4.427   4.973  0.00  0.00    +0.002 A 
ATOM     25  C   LIG    1        8.592  -4.420   5.671  0.00  0.00    +0.000 A 
ATOM     26  C   LIG    1        7.440  -4.897   5.075  0.00  0.00    +0.002 A 
ATOM     27  C   LIG    1        7.481  -5.378   3.780  0.00  0.00    +0.029 A 
ENDBRANCH  19  22
ENDBRANCH  17  19
ENDBRANCH   4  17
TORSDOF 5
