REMARK  Name = ZINC01227908
REMARK                            x       y       z     vdW  Elec       q    Type
REMARK                         _______ _______ _______ _____ _____    ______ ____
ROOT
ATOM      1  N   LIG    1       -2.829  -2.156   0.148  0.00  0.00    -0.241 N 
ATOM      2  C   LIG    1       -2.681  -2.670  -1.062  0.00  0.00    +0.259 C 
ATOM      3  C   LIG    1       -2.275  -4.090  -1.131  0.00  0.00    +0.077 C 
ATOM      4  S   LIG    1       -2.160  -4.491   0.607  0.00  0.00    -0.061 S 
ATOM      5  C   LIG    1       -2.050  -4.873  -2.216  0.00  0.00    +0.028 C 
ATOM      6  O   LIG    1       -2.870  -2.009  -2.065  0.00  0.00    -0.269 OA
ATOM      7  C   LIG    1       -2.613  -2.891   1.258  0.00  0.00    +0.121 C 
ATOM      8  S   LIG    1       -2.744  -2.407   2.895  0.00  0.00    -0.027 S 
ENDROOT
BRANCH   5   9
ATOM      9  C   LIG    1       -1.816  -6.314  -2.046  0.00  0.00    -0.024 A 
ATOM     10  C   LIG    1       -1.990  -6.912  -0.793  0.00  0.00    +0.009 A 
ATOM     11  C   LIG    1       -1.769  -8.264  -0.642  0.00  0.00    +0.016 A 
ATOM     12  C   LIG    1       -1.375  -9.030  -1.726  0.00  0.00    +0.018 A 
ATOM     13 BR   LIG    1       -1.073 -10.884  -1.508  0.00  0.00    -0.050 Br
ATOM     14  C   LIG    1       -1.199  -8.445  -2.970  0.00  0.00    +0.016 A 
ATOM     15  C   LIG    1       -1.423  -7.096  -3.138  0.00  0.00    +0.009 A 
ENDBRANCH   5   9
BRANCH   1  16
ATOM     16  C   LIG    1       -3.230  -0.753   0.285  0.00  0.00    +0.193 C 
BRANCH  16  18
ATOM     17  C   LIG    1       -5.589  -1.525  -0.004  0.00  0.00    +0.009 C 
ATOM     18  C   LIG    1       -4.536  -0.520  -0.477  0.00  0.00    +0.015 C 
ATOM     19  C   LIG    1       -5.034   0.903  -0.212  0.00  0.00    +0.009 C 
ENDBRANCH  16  18
BRANCH  16  20
ATOM     20  C   LIG    1       -2.152   0.135  -0.281  0.00  0.00    +0.326 C 
ATOM     21  O   LIG    1       -1.981   1.252   0.175  0.00  0.00    -0.249 OA
BRANCH  20  22
ATOM     22  O   LIG    1       -1.452  -0.264  -1.196  0.00  0.00    -0.479 OA
ATOM     23  H   LIG    1       -1.584  -1.122  -1.547  0.00  0.00    +0.295 HD
ENDBRANCH  20  22
ENDBRANCH  16  20
ENDBRANCH   1  16
TORSDOF 5
