REMARK  Name = ZINC00877571
REMARK                            x       y       z     vdW  Elec       q    Type
REMARK                         _______ _______ _______ _____ _____    ______ ____
ROOT
ATOM      1  C   LIG    1        4.019  -1.168  -1.464  0.00  0.00    +0.123 C 
ENDROOT
BRANCH   1   2
ATOM      2  C   LIG    1        5.389  -1.794  -1.504  0.00  0.00    +0.221 C 
ATOM      3  N   LIG    1        5.875  -2.276  -2.666  0.00  0.00    -0.265 N 
ATOM      4  H   LIG    1        5.344  -2.219  -3.475  0.00  0.00    +0.157 HD
ATOM      5  O   LIG    1        6.053  -1.866  -0.493  0.00  0.00    -0.275 OA
BRANCH   3   6
ATOM      6  C   LIG    1        7.135  -2.852  -2.703  0.00  0.00    +0.165 A 
ATOM      7  N   LIG    1        7.991  -3.024  -1.723  0.00  0.00    -0.225 NA
ATOM      8  C   LIG    1        9.195  -3.607  -1.905  0.00  0.00    +0.080 A 
ATOM      9  C   LIG    1       10.203  -3.850  -0.943  0.00  0.00    +0.031 A 
ATOM     10  C   LIG    1       11.378  -4.458  -1.298  0.00  0.00    +0.035 A 
ATOM     11  C   LIG    1       11.624  -4.854  -2.605  0.00  0.00    +0.123 A 
ATOM     12  C   LIG    1       10.661  -4.632  -3.572  0.00  0.00    +0.049 A 
ATOM     13  C   LIG    1        9.480  -4.024  -3.226  0.00  0.00    +0.043 A 
ATOM     14  S   LIG    1        8.004  -3.558  -4.096  0.00  0.00    -0.052 S 
BRANCH  11  15
ATOM     15  N   LIG    1       12.904  -5.508  -2.960  0.00  0.00    +0.006 N 
ATOM     16  O   LIG    1       13.742  -5.698  -2.109  0.00  0.00    -0.130 OA
BRANCH  15  17
ATOM     17  O   LIG    1       13.111  -5.851  -4.100  0.00  0.00    -0.396 OA
ATOM     18  H   LIG    1       12.462  -5.703  -4.760  0.00  0.00    +0.329 HD
ENDBRANCH  15  17
ENDBRANCH  11  15
ENDBRANCH   3   6
ENDBRANCH   1   2
BRANCH   1  19
ATOM     19  C   LIG    1        3.711  -0.707  -0.038  0.00  0.00    +0.112 C 
BRANCH  19  23
ATOM     20  C   LIG    1       -0.017   1.378   0.010  0.00  0.00    +0.000 A 
ATOM     21  C   LIG    1        1.171   2.086   0.002  0.00  0.00    +0.000 A 
ATOM     22  C   LIG    1        2.377   1.411  -0.013  0.00  0.00    +0.005 A 
ATOM     23  C   LIG    1        2.396   0.029  -0.020  0.00  0.00    -0.027 A 
ATOM     24  C   LIG    1        1.208  -0.679  -0.012  0.00  0.00    +0.005 A 
ATOM     25  C   LIG    1        0.002  -0.004   0.002  0.00  0.00    +0.000 A 
ENDBRANCH  19  23
BRANCH  19  26
ATOM     26  N   LIG    1        3.630  -1.873   0.845  0.00  0.00    -0.304 N 
ATOM     27  H   LIG    1        3.403  -2.743   0.480  0.00  0.00    +0.150 HD
ATOM     28  C   LIG    1        3.871  -1.738   2.164  0.00  0.00    +0.245 C 
ATOM     29  O   LIG    1        4.155  -0.648   2.622  0.00  0.00    -0.270 OA
BRANCH  28  30
ATOM     30  C   LIG    1        3.789  -2.915   3.055  0.00  0.00    +0.037 A 
ATOM     31  C   LIG    1        3.468  -4.169   2.533  0.00  0.00    +0.013 A 
ATOM     32  C   LIG    1        3.394  -5.263   3.370  0.00  0.00    +0.001 A 
ATOM     33  C   LIG    1        3.636  -5.120   4.724  0.00  0.00    +0.000 A 
ATOM     34  C   LIG    1        3.954  -3.879   5.249  0.00  0.00    +0.001 A 
ATOM     35  C   LIG    1        4.038  -2.778   4.422  0.00  0.00    +0.013 A 
ENDBRANCH  28  30
ENDBRANCH  19  26
ENDBRANCH   1  19
TORSDOF 8
