REMARK  Name = ZINC00997458
REMARK                            x       y       z     vdW  Elec       q    Type
REMARK                         _______ _______ _______ _____ _____    ______ ____
ROOT
ATOM      1  C   LIG    1        6.475   4.238   3.648  0.00  0.00    +0.102 C 
ATOM      2  N   LIG    1        7.243   4.628   2.643  0.00  0.00    -0.168 NA
ATOM      3  C   LIG    1        6.931   4.397   1.387  0.00  0.00    +0.275 C 
ATOM      4  C   LIG    1        5.657   3.683   1.146  0.00  0.00    +0.078 C 
ATOM      5  C   LIG    1        5.074   3.312  -0.025  0.00  0.00    +0.028 C 
ATOM      6  O   LIG    1        7.652   4.755   0.468  0.00  0.00    -0.267 OA
ATOM      7  S   LIG    1        5.103   3.440   2.830  0.00  0.00    -0.066 S 
ENDROOT
BRANCH   1  12
ATOM      8  C   LIG    1        7.348   4.942   9.291  0.00  0.00    +0.044 C 
ATOM      9  C   LIG    1        7.119   4.758   7.813  0.00  0.00    -0.050 A 
ATOM     10  C   LIG    1        8.047   5.241   6.907  0.00  0.00    +0.004 A 
ATOM     11  C   LIG    1        7.844   5.076   5.553  0.00  0.00    +0.010 A 
ATOM     12  C   LIG    1        6.699   4.419   5.096  0.00  0.00    +0.005 A 
ATOM     13  C   LIG    1        5.764   3.938   6.016  0.00  0.00    +0.010 A 
ATOM     14  C   LIG    1        5.983   4.105   7.368  0.00  0.00    +0.004 A 
ENDBRANCH   1  12
BRANCH   5  15
ATOM     15  C   LIG    1        3.894   2.440  -0.013  0.00  0.00    -0.019 A 
ATOM     16  C   LIG    1        3.184   2.201  -1.197  0.00  0.00    +0.057 A 
ATOM     17  C   LIG    1        2.075   1.379  -1.179  0.00  0.00    +0.163 A 
ATOM     18  C   LIG    1        1.663   0.788   0.015  0.00  0.00    +0.177 A 
ATOM     19  C   LIG    1        2.363   1.028   1.192  0.00  0.00    +0.087 A 
ATOM     20 CL   LIG    1        1.839   0.294   2.675  0.00  0.00    -0.080 Cl
ATOM     21  C   LIG    1        3.474   1.842   1.183  0.00  0.00    +0.032 A 
BRANCH  17  22
ATOM     22  O   LIG    1        1.384   1.146  -2.327  0.00  0.00    -0.491 OA
ATOM     23  C   LIG    1        1.862   1.784  -3.513  0.00  0.00    +0.277 C 
ENDBRANCH  17  22
BRANCH  18  24
ATOM     24  O   LIG    1        0.571  -0.019   0.029  0.00  0.00    -0.502 OA
ATOM     25  H   LIG    1        0.769  -0.952  -0.135  0.00  0.00    +0.292 HD
ENDBRANCH  18  24
ENDBRANCH   5  15
TORSDOF 4
