REMARK  Name = ZINC00752550
REMARK                            x       y       z     vdW  Elec       q    Type
REMARK                         _______ _______ _______ _____ _____    ______ ____
ROOT
ATOM      1  C   LIG    1       -1.178  -2.187   0.009  0.00  0.00    +0.101 C 
ATOM      2  C   LIG    1       -1.171  -0.683   0.015  0.00  0.00    +0.098 C 
ATOM      3  C   LIG    1        0.002  -0.004   0.002  0.00  0.00    +0.198 C 
ATOM      4  O   LIG    1        1.181  -0.645  -0.013  0.00  0.00    -0.445 OA
ATOM      5  C   LIG    1        1.256  -1.921   0.408  0.00  0.00    +0.115 C 
ATOM      6  C   LIG    1        2.606  -2.449   0.835  0.00  0.00    +0.083 C 
ATOM      7  C   LIG    1        2.425  -3.506   1.926  0.00  0.00    +0.034 C 
ATOM      8  C   LIG    1        1.547  -4.632   1.369  0.00  0.00    +0.088 C 
ATOM      9  C   LIG    1        0.246  -4.045   0.892  0.00  0.00    +0.164 C 
ATOM     10  O   LIG    1       -0.754  -4.733   0.893  0.00  0.00    -0.292 OA
ATOM     11  C   LIG    1        0.168  -2.712   0.446  0.00  0.00    +0.046 C 
ENDROOT
BRANCH   1  15
ATOM     12  C   LIG    1       -2.040  -3.597  -3.932  0.00  0.00    +0.120 A 
ATOM     13  C   LIG    1       -2.884  -3.918  -2.879  0.00  0.00    +0.046 A 
ATOM     14  C   LIG    1       -2.603  -3.462  -1.606  0.00  0.00    +0.008 A 
ATOM     15  C   LIG    1       -1.482  -2.684  -1.381  0.00  0.00    -0.034 A 
ATOM     16  C   LIG    1       -0.643  -2.357  -2.430  0.00  0.00    +0.008 A 
ATOM     17  C   LIG    1       -0.916  -2.817  -3.704  0.00  0.00    +0.046 A 
BRANCH  12  19
ATOM     18  C   LIG    1       -1.402  -3.674  -6.221  0.00  0.00    +0.277 C 
ATOM     19  O   LIG    1       -2.314  -4.045  -5.185  0.00  0.00    -0.495 OA
ENDBRANCH  12  19
ENDBRANCH   1  15
BRANCH   7  20
ATOM     20  C   LIG    1        3.768  -4.060   2.323  0.00  0.00    -0.043 A 
ATOM     21  C   LIG    1        4.560  -4.693   1.383  0.00  0.00    +0.004 A 
ATOM     22  C   LIG    1        5.795  -5.198   1.746  0.00  0.00    +0.000 A 
ATOM     23  C   LIG    1        6.234  -5.077   3.051  0.00  0.00    +0.000 A 
ATOM     24  C   LIG    1        5.440  -4.449   3.992  0.00  0.00    +0.000 A 
ATOM     25  C   LIG    1        4.207  -3.940   3.628  0.00  0.00    +0.004 A 
ENDBRANCH   7  20
BRANCH   3  26
ATOM     26  N   LIG    1       -0.017   1.369   0.010  0.00  0.00    -0.328 N 
ATOM     27  H   LIG    1       -0.863   1.842   0.016  0.00  0.00    +0.145 HD
ATOM     28  H   LIG    1        0.817   1.865   0.004  0.00  0.00    +0.145 HD
ENDBRANCH   3  26
BRANCH   2  29
ATOM     29  C   LIG    1       -2.409   0.035   0.030  0.00  0.00    +0.101 C 
ATOM     30  N   LIG    1       -3.392   0.605   0.042  0.00  0.00    -0.191 NA
ENDBRANCH   2  29
TORSDOF 5
