REMARK  Name = ZINC01383149
REMARK                            x       y       z     vdW  Elec       q    Type
REMARK                         _______ _______ _______ _____ _____    ______ ____
ROOT
ATOM      1  N   LIG    1        4.218  -0.324   1.697  0.00  0.00    -0.234 N 
ATOM      2  C   LIG    1        4.399  -1.676   1.976  0.00  0.00    +0.051 A 
ATOM      3  C   LIG    1        3.669  -2.561   2.761  0.00  0.00    +0.024 A 
ATOM      4  C   LIG    1        4.068  -3.878   2.875  0.00  0.00    +0.002 A 
ATOM      5  C   LIG    1        5.196  -4.334   2.215  0.00  0.00    +0.001 A 
ATOM      6  C   LIG    1        5.935  -3.470   1.431  0.00  0.00    +0.012 A 
ATOM      7  C   LIG    1        5.540  -2.141   1.309  0.00  0.00    +0.027 A 
ATOM      8  C   LIG    1        6.094  -0.985   0.569  0.00  0.00    +0.136 C 
ATOM      9  N   LIG    1        7.160  -0.961  -0.193  0.00  0.00    -0.242 NA
ATOM     10  C   LIG    1        5.174   0.140   0.874  0.00  0.00    +0.274 C 
ATOM     11  O   LIG    1        5.270   1.277   0.455  0.00  0.00    -0.268 OA
ENDROOT
BRANCH   1  15
ATOM     12  C   LIG    1        1.097   1.988   3.208  0.00  0.00    +0.000 A 
ATOM     13  C   LIG    1        1.143   1.688   1.859  0.00  0.00    +0.002 A 
ATOM     14  C   LIG    1        2.176   0.922   1.355  0.00  0.00    +0.024 A 
ATOM     15  C   LIG    1        3.169   0.454   2.205  0.00  0.00    +0.042 A 
ATOM     16  C   LIG    1        3.121   0.756   3.559  0.00  0.00    +0.024 A 
ATOM     17  C   LIG    1        2.085   1.523   4.057  0.00  0.00    +0.002 A 
ENDBRANCH   1  15
BRANCH   9  18
ATOM     18  C   LIG    1        7.970  -2.051  -0.264  0.00  0.00    +0.065 A 
ATOM     19  C   LIG    1        7.777  -3.008  -1.269  0.00  0.00    +0.028 A 
ATOM     20  C   LIG    1        8.603  -4.109  -1.333  0.00  0.00    +0.003 A 
ATOM     21  C   LIG    1        9.620  -4.272  -0.408  0.00  0.00    +0.012 A 
ATOM     22  C   LIG    1        9.818  -3.331   0.589  0.00  0.00    +0.057 A 
ATOM     23  C   LIG    1        9.006  -2.220   0.664  0.00  0.00    +0.040 A 
BRANCH  22  24
ATOM     24  C   LIG    1       10.928  -3.519   1.590  0.00  0.00    +0.417 C 
ATOM     25  F   LIG    1       10.388  -3.587   2.878  0.00  0.00    -0.166 F 
ATOM     26  F   LIG    1       11.815  -2.439   1.512  0.00  0.00    -0.166 F 
ATOM     27  F   LIG    1       11.614  -4.706   1.309  0.00  0.00    -0.166 F 
ENDBRANCH  22  24
ENDBRANCH   9  18
TORSDOF 3
