REMARK  Name = ZINC00901466
REMARK                            x       y       z     vdW  Elec       q    Type
REMARK                         _______ _______ _______ _____ _____    ______ ____
ROOT
ATOM      1  C   LIG    1       -0.013   1.076   0.008  0.00  0.00    +0.000 A 
ATOM      2  C   LIG    1       -1.220   1.749   0.017  0.00  0.00    +0.002 A 
ATOM      3  C   LIG    1       -1.243   3.130   0.031  0.00  0.00    +0.027 A 
ATOM      4  C   LIG    1       -0.050   3.842   0.023  0.00  0.00    +0.061 A 
ATOM      5  C   LIG    1        1.161   3.163   0.008  0.00  0.00    +0.027 A 
ATOM      6  C   LIG    1        1.176   1.782   0.000  0.00  0.00    +0.002 A 
ENDROOT
BRANCH   4   7
ATOM      7  N   LIG    1       -0.069   5.239   0.030  0.00  0.00    -0.269 N 
ATOM      8  H   LIG    1        0.876   5.802   0.024  0.00  0.00    +0.194 HD
BRANCH   7   9
ATOM      9  O   LIG    1       -1.305   5.930   0.046  0.00  0.00    -0.289 OA
ATOM     10  H   LIG    1       -1.320   7.030   0.052  0.00  0.00    +0.244 HD
ENDBRANCH   7   9
ENDBRANCH   4   7
TORSDOF 2
