REMARK  Name = ZINC01237945
REMARK                            x       y       z     vdW  Elec       q    Type
REMARK                         _______ _______ _______ _____ _____    ______ ____
ROOT
ATOM      1  C   LIG    1       -3.495   3.554   3.671  0.00  0.00    +0.046 A 
ATOM      2  C   LIG    1       -2.781   3.424   2.515  0.00  0.00    +0.015 A 
ATOM      3  C   LIG    1       -3.379   3.738   1.290  0.00  0.00    +0.021 A 
ATOM      4  C   LIG    1       -2.635   3.614   0.034  0.00  0.00    -0.021 A 
ATOM      5  C   LIG    1       -3.269   3.940  -1.122  0.00  0.00    +0.096 A 
ATOM      6  C   LIG    1       -4.605   4.389  -1.087  0.00  0.00    +0.337 A 
ATOM      7  O   LIG    1       -5.280   4.506   0.067  0.00  0.00    -0.422 OA
ATOM      8  O   LIG    1       -5.162   4.678  -2.131  0.00  0.00    -0.245 OA
ATOM      9  C   LIG    1       -4.708   4.199   1.252  0.00  0.00    +0.143 A 
ATOM     10  C   LIG    1       -5.419   4.326   2.435  0.00  0.00    +0.092 A 
ATOM     11  C   LIG    1       -4.813   4.004   3.639  0.00  0.00    +0.120 A 
ENDROOT
BRANCH  11  12
ATOM     12  O   LIG    1       -5.510   4.129   4.798  0.00  0.00    -0.507 OA
ATOM     13  H   LIG    1       -5.995   3.332   5.053  0.00  0.00    +0.292 HD
ENDBRANCH  11  12
BRANCH   4  14
ATOM     14  C   LIG    1       -1.208   3.131   0.025  0.00  0.00    +0.131 C 
BRANCH  14  15
ATOM     15  C   LIG    1       -1.187   1.624   0.017  0.00  0.00    +0.215 C 
ATOM     16  N   LIG    1       -0.011   0.966   0.007  0.00  0.00    -0.329 N 
ATOM     17  H   LIG    1        0.822   1.462   0.002  0.00  0.00    +0.145 HD
ATOM     18  H   LIG    1        0.002  -0.004   0.002  0.00  0.00    +0.145 HD
ATOM     19  O   LIG    1       -2.229   1.003   0.018  0.00  0.00    -0.276 OA
ENDBRANCH  14  15
ENDBRANCH   4  14
TORSDOF 3
