REMARK  Name = ZINC00876711
REMARK                            x       y       z     vdW  Elec       q    Type
REMARK                         _______ _______ _______ _____ _____    ______ ____
ROOT
ATOM      1  N   LIG    1        0.903  -1.644  -1.238  0.00  0.00    -0.209 NA
ATOM      2  C   LIG    1        1.068  -0.552  -0.526  0.00  0.00    +0.233 A 
ATOM      3  C   LIG    1        2.409   0.033  -0.323  0.00  0.00    +0.099 A 
ATOM      4  C   LIG    1        2.478   1.394  -0.060  0.00  0.00    +0.030 A 
ATOM      5  C   LIG    1        1.263   2.121   0.030  0.00  0.00    +0.018 A 
ATOM      6  C   LIG    1        1.278   3.523   0.083  0.00  0.00    +0.015 A 
ATOM      7  C   LIG    1        0.103   4.215   0.119  0.00  0.00    +0.046 A 
ATOM      8  C   LIG    1       -1.115   3.539   0.113  0.00  0.00    +0.120 A 
ATOM      9  C   LIG    1       -1.150   2.152   0.087  0.00  0.00    +0.092 A 
ATOM     10  C   LIG    1        0.034   1.435   0.054  0.00  0.00    +0.141 A 
ATOM     11  O   LIG    1        0.011   0.079   0.050  0.00  0.00    -0.437 OA
ENDROOT
BRANCH   1  15
ATOM     12  C   LIG    1       -2.842  -3.399  -1.503  0.00  0.00    +0.124 A 
ATOM     13  C   LIG    1       -2.497  -2.364  -2.362  0.00  0.00    +0.048 A 
ATOM     14  C   LIG    1       -1.251  -1.777  -2.277  0.00  0.00    +0.035 A 
ATOM     15  C   LIG    1       -0.334  -2.224  -1.325  0.00  0.00    +0.109 A 
ATOM     16  C   LIG    1       -0.682  -3.272  -0.463  0.00  0.00    +0.149 A 
ATOM     17  C   LIG    1       -1.936  -3.849  -0.553  0.00  0.00    +0.093 A 
BRANCH  12  19
ATOM     18  C   LIG    1       -4.954  -3.461  -2.592  0.00  0.00    +0.277 C 
ATOM     19  O   LIG    1       -4.071  -3.973  -1.592  0.00  0.00    -0.495 OA
ENDBRANCH  12  19
BRANCH  16  20
ATOM     20  O   LIG    1        0.208  -3.717   0.464  0.00  0.00    -0.493 OA
ATOM     21  C   LIG    1       -0.215  -4.788   1.309  0.00  0.00    +0.277 C 
ENDBRANCH  16  20
ENDBRANCH   1  15
BRANCH   3  22
ATOM     22  C   LIG    1        3.624  -0.794  -0.398  0.00  0.00    +0.254 C 
ATOM     23  N   LIG    1        4.834  -0.232  -0.209  0.00  0.00    -0.266 N 
ATOM     24  H   LIG    1        4.901   0.701   0.050  0.00  0.00    +0.157 HD
ATOM     25  O   LIG    1        3.535  -1.984  -0.630  0.00  0.00    -0.270 OA
BRANCH  23  26
ATOM     26  C   LIG    1        5.989  -0.990  -0.385  0.00  0.00    +0.125 A 
ATOM     27  C   LIG    1        7.229  -0.437  -0.085  0.00  0.00    +0.044 A 
ATOM     28  C   LIG    1        8.368  -1.201  -0.265  0.00  0.00    +0.005 A 
ATOM     29  C   LIG    1        8.228  -2.498  -0.741  0.00  0.00    +0.020 A 
ATOM     30  C   LIG    1        6.965  -2.983  -1.018  0.00  0.00    +0.113 A 
ATOM     31  N   LIG    1        5.896  -2.233  -0.832  0.00  0.00    -0.240 NA
ENDBRANCH  23  26
ENDBRANCH   3  22
BRANCH   8  32
ATOM     32  O   LIG    1       -2.276   4.241   0.138  0.00  0.00    -0.507 OA
ATOM     33  H   LIG    1       -2.619   4.465  -0.738  0.00  0.00    +0.292 HD
ENDBRANCH   8  32
TORSDOF 6
