REMARK  Name = ZINC01414085
REMARK                            x       y       z     vdW  Elec       q    Type
REMARK                         _______ _______ _______ _____ _____    ______ ____
ROOT
ATOM      1  C   LIG    1       -2.518   3.869   0.046  0.00  0.00    +0.069 C 
ATOM      2  N   LIG    1       -2.648   5.151   0.053  0.00  0.00    -0.182 NA
ATOM      3  N   LIG    1       -3.970   5.589   0.068  0.00  0.00    -0.197 N 
ATOM      4  C   LIG    1       -4.860   4.417   0.071  0.00  0.00    +0.136 C 
ATOM      5  C   LIG    1       -3.885   3.223   0.050  0.00  0.00    +0.087 C 
ENDROOT
BRANCH   1  10
ATOM      6  C   LIG    1        2.489   1.041  -0.016  0.00  0.00    +0.044 C 
ATOM      7  C   LIG    1        1.177   1.782   0.000  0.00  0.00    -0.050 A 
ATOM      8  C   LIG    1       -0.013   1.076   0.008  0.00  0.00    +0.004 A 
ATOM      9  C   LIG    1       -1.217   1.748   0.017  0.00  0.00    +0.010 A 
ATOM     10  C   LIG    1       -1.234   3.144   0.030  0.00  0.00    -0.002 A 
ATOM     11  C   LIG    1       -0.029   3.851   0.022  0.00  0.00    +0.010 A 
ATOM     12  C   LIG    1        1.168   3.166   0.007  0.00  0.00    +0.004 A 
ENDBRANCH   1  10
BRANCH   4  13
ATOM     13  C   LIG    1       -5.729   4.407  -1.160  0.00  0.00    -0.025 A 
ATOM     14  C   LIG    1       -5.209   4.808  -2.376  0.00  0.00    +0.007 A 
ATOM     15  C   LIG    1       -6.004   4.794  -3.507  0.00  0.00    +0.020 A 
ATOM     16  C   LIG    1       -7.324   4.389  -3.419  0.00  0.00    +0.041 A 
ATOM     17 CL   LIG    1       -8.325   4.377  -4.837  0.00  0.00    -0.084 Cl
ATOM     18  C   LIG    1       -7.846   3.994  -2.200  0.00  0.00    +0.020 A 
ATOM     19  C   LIG    1       -7.048   4.003  -1.071  0.00  0.00    +0.007 A 
ENDBRANCH   4  13
BRANCH   3  20
ATOM     20  C   LIG    1       -4.370   6.877   0.077  0.00  0.00    +0.151 C 
ATOM     21  S   LIG    1       -6.039   7.255   0.096  0.00  0.00    -0.017 S 
BRANCH  20  22
ATOM     22  N   LIG    1       -3.455   7.866   0.073  0.00  0.00    -0.339 N 
ATOM     23  H   LIG    1       -3.742   8.793   0.080  0.00  0.00    +0.144 HD
ATOM     24  H   LIG    1       -2.509   7.652   0.062  0.00  0.00    +0.144 HD
ENDBRANCH  20  22
ENDBRANCH   3  20
TORSDOF 4
