REMARK  Name = ZINC00880427
REMARK                            x       y       z     vdW  Elec       q    Type
REMARK                         _______ _______ _______ _____ _____    ______ ____
ROOT
ATOM      1  C   LIG    1       -0.420   3.494   0.748  0.00  0.00    +0.136 A 
ATOM      2  C   LIG    1       -1.036   2.274   0.545  0.00  0.00    +0.050 A 
ATOM      3  C   LIG    1       -0.035   1.358   0.235  0.00  0.00    +0.050 A 
ATOM      4  C   LIG    1        1.168   2.056   0.250  0.00  0.00    +0.129 A 
ATOM      5  O   LIG    1        0.903   3.343   0.564  0.00  0.00    -0.455 OA
ENDROOT
BRANCH   4   6
ATOM      6  C   LIG    1        2.433   1.518  -0.012  0.00  0.00    +0.064 C 
ATOM      7  C   LIG    1        3.378   2.268  -0.709  0.00  0.00    +0.102 C 
ATOM      8  C   LIG    1        3.022   3.542  -1.356  0.00  0.00    +0.255 C 
ATOM      9  N   LIG    1        3.990   4.217  -2.010  0.00  0.00    -0.263 N 
ATOM     10  H   LIG    1        3.772   5.060  -2.438  0.00  0.00    +0.157 HD
ATOM     11  C   LIG    1        5.243   3.748  -2.086  0.00  0.00    +0.143 C 
ATOM     12  N   LIG    1        5.635   2.594  -1.526  0.00  0.00    -0.263 N 
ATOM     13  H   LIG    1        6.558   2.312  -1.619  0.00  0.00    +0.157 HD
ATOM     14  S   LIG    1        6.403   4.669  -2.944  0.00  0.00    -0.018 S 
ATOM     15  O   LIG    1        1.887   3.976  -1.298  0.00  0.00    -0.270 OA
ATOM     16  C   LIG    1        4.774   1.818  -0.836  0.00  0.00    +0.255 C 
ATOM     17  O   LIG    1        5.142   0.772  -0.333  0.00  0.00    -0.270 OA
ENDBRANCH   4   6
BRANCH   1  21
ATOM     18  C   LIG    1       -2.380   7.119   1.770  0.00  0.00    +0.138 A 
ATOM     19  C   LIG    1       -1.000   7.099   1.607  0.00  0.00    +0.048 A 
ATOM     20  C   LIG    1       -0.360   5.926   1.276  0.00  0.00    +0.015 A 
ATOM     21  C   LIG    1       -1.101   4.752   1.102  0.00  0.00    +0.019 A 
ATOM     22  C   LIG    1       -2.490   4.778   1.260  0.00  0.00    +0.035 A 
ATOM     23  C   LIG    1       -3.121   5.955   1.598  0.00  0.00    +0.083 A 
ATOM     24 CL   LIG    1       -4.845   5.988   1.801  0.00  0.00    -0.080 Cl
BRANCH  18  26
ATOM     25  C   LIG    1       -2.185   9.437   2.257  0.00  0.00    +0.277 C 
ATOM     26  O   LIG    1       -3.006   8.279   2.096  0.00  0.00    -0.494 OA
ENDBRANCH  18  26
ENDBRANCH   1  21
TORSDOF 3
