REMARK  Name = ZINC00895247
REMARK                            x       y       z     vdW  Elec       q    Type
REMARK                         _______ _______ _______ _____ _____    ______ ____
ROOT
ATOM      1  C   LIG    1       -0.018   1.473   0.010  0.00  0.00    +0.054 C 
ATOM      2  C   LIG    1        1.133   2.159   0.003  0.00  0.00    +0.054 C 
ATOM      3  C   LIG    1        2.422   1.438  -0.013  0.00  0.00    +0.179 C 
ATOM      4  C   LIG    1        2.442  -0.039  -0.020  0.00  0.00    +0.054 C 
ATOM      5  C   LIG    1        1.291  -0.725  -0.013  0.00  0.00    +0.054 C 
ATOM      6  O   LIG    1        3.466   2.059  -0.020  0.00  0.00    -0.288 OA
ATOM      7  C   LIG    1        0.002  -0.004   0.002  0.00  0.00    +0.179 C 
ATOM      8  O   LIG    1       -1.041  -0.625   0.009  0.00  0.00    -0.288 OA
ENDROOT
TORSDOF 0
