REMARK VINA RESULT:      -5.2      1.586      2.045
REMARK  Name = ZINC00000076
REMARK                            x       y       z     vdW  Elec       q    Type
REMARK                         _______ _______ _______ _____ _____    ______ ____
ROOT
ATOM      1  C   LIG    1       23.766  31.292  54.943  0.00  0.00    +0.215 C 
ENDROOT
BRANCH   1   5
ATOM      2  C   LIG    1       20.548  28.849  56.330  0.00  0.00    +0.000 A 
ATOM      3  C   LIG    1       21.176  28.552  55.134  0.00  0.00    +0.000 A 
ATOM      4  C   LIG    1       22.216  29.343  54.686  0.00  0.00    +0.006 A 
ATOM      5  C   LIG    1       22.631  30.430  55.432  0.00  0.00    -0.012 A 
ATOM      6  C   LIG    1       22.002  30.727  56.627  0.00  0.00    +0.006 A 
ATOM      7  C   LIG    1       20.962  29.936  57.076  0.00  0.00    +0.000 A 
ENDBRANCH   1   5
BRANCH   1   8
ATOM      8  O   LIG    1       23.931  31.108  53.535  0.00  0.00    -0.379 OA
ATOM      9  H   LIG    1       24.788  31.404  53.198  0.00  0.00    +0.211 HD
ENDBRANCH   1   8
BRANCH   1  10
ATOM     10  C   LIG    1       25.036  30.900  55.653  0.00  0.00    +0.196 C 
ATOM     11  O   LIG    1       25.091  29.854  56.264  0.00  0.00    -0.289 OA
BRANCH  10  12
ATOM     12  C   LIG    1       26.210  31.785  55.604  0.00  0.00    +0.020 A 
ATOM     13  C   LIG    1       27.473  31.264  55.305  0.00  0.00    +0.011 A 
ATOM     14  C   LIG    1       28.568  32.100  55.261  0.00  0.00    +0.001 A 
ATOM     15  C   LIG    1       28.419  33.453  55.510  0.00  0.00    +0.000 A 
ATOM     16  C   LIG    1       27.174  33.977  55.807  0.00  0.00    +0.001 A 
ATOM     17  C   LIG    1       26.068  33.155  55.850  0.00  0.00    +0.011 A 
ENDBRANCH  10  12
ENDBRANCH   1  10
TORSDOF 4
