REMARK VINA RESULT:      -5.3      1.591      2.096
REMARK  Name = ZINC00000076
REMARK                            x       y       z     vdW  Elec       q    Type
REMARK                         _______ _______ _______ _____ _____    ______ ____
ROOT
ATOM      1  C   LIG    1       24.540  30.010  55.492  0.00  0.00    +0.215 C 
ENDROOT
BRANCH   1   5
ATOM      2  C   LIG    1       20.324  30.698  55.478  0.00  0.00    +0.000 A 
ATOM      3  C   LIG    1       21.195  31.732  55.185  0.00  0.00    +0.000 A 
ATOM      4  C   LIG    1       22.558  31.509  55.191  0.00  0.00    +0.006 A 
ATOM      5  C   LIG    1       23.053  30.253  55.488  0.00  0.00    -0.012 A 
ATOM      6  C   LIG    1       22.183  29.220  55.781  0.00  0.00    +0.006 A 
ATOM      7  C   LIG    1       20.818  29.442  55.775  0.00  0.00    +0.000 A 
ENDBRANCH   1   5
BRANCH   1   8
ATOM      8  O   LIG    1       24.802  28.666  55.903  0.00  0.00    -0.379 OA
ATOM      9  H   LIG    1       24.411  27.996  55.327  0.00  0.00    +0.211 HD
ENDBRANCH   1   8
BRANCH   1  10
ATOM     10  C   LIG    1       25.202  30.966  56.451  0.00  0.00    +0.196 C 
ATOM     11  O   LIG    1       24.957  30.903  57.636  0.00  0.00    -0.289 OA
BRANCH  10  12
ATOM     12  C   LIG    1       26.147  31.975  55.948  0.00  0.00    +0.020 A 
ATOM     13  C   LIG    1       25.871  33.338  56.106  0.00  0.00    +0.011 A 
ATOM     14  C   LIG    1       26.761  34.278  55.633  0.00  0.00    +0.001 A 
ATOM     15  C   LIG    1       27.926  33.876  55.003  0.00  0.00    +0.000 A 
ATOM     16  C   LIG    1       28.207  32.531  54.842  0.00  0.00    +0.001 A 
ATOM     17  C   LIG    1       27.329  31.578  55.314  0.00  0.00    +0.011 A 
ENDBRANCH  10  12
ENDBRANCH   1  10
TORSDOF 4
