REMARK VINA RESULT:      -5.5      2.464      5.497
REMARK  Name = ZINC00000076
REMARK                            x       y       z     vdW  Elec       q    Type
REMARK                         _______ _______ _______ _____ _____    ______ ____
ROOT
ATOM      1  C   LIG    1       24.807  31.380  56.274  0.00  0.00    +0.215 C 
ENDROOT
BRANCH   1   5
ATOM      2  C   LIG    1       28.181  33.685  55.029  0.00  0.00    +0.000 A 
ATOM      3  C   LIG    1       28.219  32.305  54.949  0.00  0.00    +0.000 A 
ATOM      4  C   LIG    1       27.127  31.560  55.352  0.00  0.00    +0.006 A 
ATOM      5  C   LIG    1       25.997  32.193  55.835  0.00  0.00    -0.012 A 
ATOM      6  C   LIG    1       25.960  33.572  55.916  0.00  0.00    +0.006 A 
ATOM      7  C   LIG    1       27.051  34.318  55.512  0.00  0.00    +0.000 A 
ENDBRANCH   1   5
BRANCH   1   8
ATOM      8  O   LIG    1       25.158  29.995  56.296  0.00  0.00    -0.379 OA
ATOM      9  H   LIG    1       24.400  29.398  56.356  0.00  0.00    +0.211 HD
ENDBRANCH   1   8
BRANCH   1  10
ATOM     10  C   LIG    1       23.669  31.594  55.309  0.00  0.00    +0.196 C 
ATOM     11  O   LIG    1       23.774  31.228  54.158  0.00  0.00    -0.289 OA
BRANCH  10  12
ATOM     12  C   LIG    1       22.431  32.244  55.764  0.00  0.00    +0.020 A 
ATOM     13  C   LIG    1       22.470  33.186  56.798  0.00  0.00    +0.011 A 
ATOM     14  C   LIG    1       21.306  33.791  57.219  0.00  0.00    +0.001 A 
ATOM     15  C   LIG    1       20.100  33.471  56.620  0.00  0.00    +0.000 A 
ATOM     16  C   LIG    1       20.052  32.541  55.597  0.00  0.00    +0.001 A 
ATOM     17  C   LIG    1       21.208  31.930  55.161  0.00  0.00    +0.011 A 
ENDBRANCH  10  12
ENDBRANCH   1  10
TORSDOF 4
