REMARK VINA RESULT:      -5.1      1.099      5.878
REMARK  Name = ZINC00000076
REMARK                            x       y       z     vdW  Elec       q    Type
REMARK                         _______ _______ _______ _____ _____    ______ ____
ROOT
ATOM      1  C   LIG    1       24.379  32.047  55.948  0.00  0.00    +0.215 C 
ENDROOT
BRANCH   1   5
ATOM      2  C   LIG    1       28.457  33.144  55.307  0.00  0.00    +0.000 A 
ATOM      3  C   LIG    1       27.537  34.100  55.698  0.00  0.00    +0.000 A 
ATOM      4  C   LIG    1       26.218  33.745  55.904  0.00  0.00    +0.006 A 
ATOM      5  C   LIG    1       25.817  32.434  55.721  0.00  0.00    -0.012 A 
ATOM      6  C   LIG    1       26.737  31.479  55.330  0.00  0.00    +0.006 A 
ATOM      7  C   LIG    1       28.057  31.834  55.125  0.00  0.00    +0.000 A 
ENDBRANCH   1   5
BRANCH   1   8
ATOM      8  O   LIG    1       23.647  33.185  56.409  0.00  0.00    -0.379 OA
ATOM      9  H   LIG    1       22.862  32.963  56.928  0.00  0.00    +0.211 HD
ENDBRANCH   1   8
BRANCH   1  10
ATOM     10  C   LIG    1       24.309  30.953  56.981  0.00  0.00    +0.196 C 
ATOM     11  O   LIG    1       24.994  31.018  57.980  0.00  0.00    -0.289 OA
BRANCH  10  12
ATOM     12  C   LIG    1       23.410  29.806  56.779  0.00  0.00    +0.020 A 
ATOM     13  C   LIG    1       22.083  29.867  57.216  0.00  0.00    +0.011 A 
ATOM     14  C   LIG    1       21.247  28.788  57.023  0.00  0.00    +0.001 A 
ATOM     15  C   LIG    1       21.718  27.647  56.397  0.00  0.00    +0.000 A 
ATOM     16  C   LIG    1       23.029  27.578  55.962  0.00  0.00    +0.001 A 
ATOM     17  C   LIG    1       23.877  28.651  56.143  0.00  0.00    +0.011 A 
ENDBRANCH  10  12
ENDBRANCH   1  10
TORSDOF 4
