REMARK VINA RESULT:      -5.7      0.000      0.000
REMARK  Name = ZINC00000076
REMARK                            x       y       z     vdW  Elec       q    Type
REMARK                         _______ _______ _______ _____ _____    ______ ____
ROOT
ATOM      1  C   LIG    1       24.740  30.723  56.865  0.00  0.00    +0.215 C 
ENDROOT
BRANCH   1   5
ATOM      2  C   LIG    1       21.527  28.436  55.224  0.00  0.00    +0.000 A 
ATOM      3  C   LIG    1       22.413  29.085  54.384  0.00  0.00    +0.000 A 
ATOM      4  C   LIG    1       23.452  29.825  54.915  0.00  0.00    +0.006 A 
ATOM      5  C   LIG    1       23.606  29.917  56.286  0.00  0.00    -0.012 A 
ATOM      6  C   LIG    1       22.719  29.269  57.125  0.00  0.00    +0.006 A 
ATOM      7  C   LIG    1       21.681  28.527  56.595  0.00  0.00    +0.000 A 
ENDBRANCH   1   5
BRANCH   1   8
ATOM      8  O   LIG    1       24.701  30.645  58.291  0.00  0.00    -0.379 OA
ATOM      9  H   LIG    1       24.685  31.505  58.732  0.00  0.00    +0.211 HD
ENDBRANCH   1   8
BRANCH   1  10
ATOM     10  C   LIG    1       24.603  32.161  56.437  0.00  0.00    +0.196 C 
ATOM     11  O   LIG    1       23.587  32.774  56.686  0.00  0.00    -0.289 OA
BRANCH  10  12
ATOM     12  C   LIG    1       25.703  32.823  55.717  0.00  0.00    +0.020 A 
ATOM     13  C   LIG    1       26.364  32.158  54.679  0.00  0.00    +0.011 A 
ATOM     14  C   LIG    1       27.393  32.784  54.009  0.00  0.00    +0.001 A 
ATOM     15  C   LIG    1       27.772  34.068  54.361  0.00  0.00    +0.000 A 
ATOM     16  C   LIG    1       27.124  34.732  55.387  0.00  0.00    +0.001 A 
ATOM     17  C   LIG    1       26.089  34.122  56.063  0.00  0.00    +0.011 A 
ENDBRANCH  10  12
ENDBRANCH   1  10
TORSDOF 4
