MODEL 1
REMARK VINA RESULT:      -5.6      0.000      0.000
REMARK  Name = ZINC00000365
REMARK                            x       y       z     vdW  Elec       q    Type
REMARK                         _______ _______ _______ _____ _____    ______ ____
ROOT
ATOM      1  C   LIG    1       27.737  33.042  54.583  0.00  0.00    +0.050 C 
ATOM      2  C   LIG    1       26.443  33.437  55.296  0.00  0.00    +0.157 C 
ENDROOT
BRANCH   2   3
ATOM      3  O   LIG    1       26.010  32.359  56.130  0.00  0.00    -0.460 OA
BRANCH   3   4
ATOM      4  C   LIG    1       24.704  32.033  56.078  0.00  0.00    +0.339 C 
ATOM      5  O   LIG    1       23.870  32.795  56.523  0.00  0.00    -0.245 OA
BRANCH   4   6
ATOM      6  C   LIG    1       24.287  30.749  55.479  0.00  0.00    +0.059 A 
ATOM      7  C   LIG    1       23.654  30.729  54.234  0.00  0.00    +0.015 A 
ATOM      8  C   LIG    1       23.269  29.526  53.680  0.00  0.00    +0.001 A 
ATOM      9  C   LIG    1       23.505  28.342  54.355  0.00  0.00    +0.000 A 
ATOM     10  C   LIG    1       24.131  28.355  55.589  0.00  0.00    +0.001 A 
ATOM     11  C   LIG    1       24.528  29.550  56.152  0.00  0.00    +0.015 A 
ENDBRANCH   4   6
ENDBRANCH   3   4
ENDBRANCH   2   3
BRANCH   2  12
ATOM     12  C   LIG    1       26.692  34.677  56.156  0.00  0.00    -0.037 C 
BRANCH  12  13
ATOM     13  N   LIG    1       25.448  35.447  56.278  0.00  0.00    +0.383 N 
ATOM     14  H   LIG    1       24.844  35.007  56.955  0.00  0.00    -0.085 HD
ATOM     15  H   LIG    1       24.983  35.479  55.383  0.00  0.00    -0.085 HD
BRANCH  13  16
ATOM     16  C   LIG    1       25.759  36.816  56.716  0.00  0.00    -0.072 C 
ATOM     17  C   LIG    1       24.575  37.381  57.503  0.00  0.00    -0.016 C 
ATOM     18  C   LIG    1       24.898  38.804  57.959  0.00  0.00    -0.002 C 
ATOM     19  C   LIG    1       25.163  39.683  56.735  0.00  0.00    -0.000 C 
ATOM     20  C   LIG    1       26.348  39.119  55.948  0.00  0.00    -0.002 C 
ATOM     21  C   LIG    1       26.025  37.695  55.492  0.00  0.00    -0.016 C 
ENDBRANCH  13  16
ENDBRANCH  12  13
ENDBRANCH   2  12
TORSDOF 6
ENDMDL
MODEL 2
REMARK VINA RESULT:      -5.5      3.778      5.944
REMARK  Name = ZINC00000365
REMARK                            x       y       z     vdW  Elec       q    Type
REMARK                         _______ _______ _______ _____ _____    ______ ____
ROOT
ATOM      1  C   LIG    1       22.684  30.796  54.477  0.00  0.00    +0.050 C 
ATOM      2  C   LIG    1       22.527  31.109  55.966  0.00  0.00    +0.157 C 
ENDROOT
BRANCH   2   3
ATOM      3  O   LIG    1       23.443  32.142  56.335  0.00  0.00    -0.460 OA
BRANCH   3   4
ATOM      4  C   LIG    1       24.741  31.796  56.449  0.00  0.00    +0.339 C 
ATOM      5  O   LIG    1       25.059  30.850  57.141  0.00  0.00    -0.245 OA
BRANCH   4   6
ATOM      6  C   LIG    1       25.777  32.567  55.732  0.00  0.00    +0.059 A 
ATOM      7  C   LIG    1       26.145  33.836  56.185  0.00  0.00    +0.015 A 
ATOM      8  C   LIG    1       27.115  34.550  55.510  0.00  0.00    +0.001 A 
ATOM      9  C   LIG    1       27.719  34.013  54.388  0.00  0.00    +0.000 A 
ATOM     10  C   LIG    1       27.358  32.756  53.934  0.00  0.00    +0.001 A 
ATOM     11  C   LIG    1       26.395  32.029  54.602  0.00  0.00    +0.015 A 
ENDBRANCH   4   6
ENDBRANCH   3   4
ENDBRANCH   2   3
BRANCH   2  12
ATOM     12  C   LIG    1       21.096  31.576  56.242  0.00  0.00    -0.037 C 
BRANCH  12  13
ATOM     13  N   LIG    1       20.524  32.151  55.018  0.00  0.00    +0.383 N 
ATOM     14  H   LIG    1       19.891  31.487  54.598  0.00  0.00    -0.085 HD
ATOM     15  H   LIG    1       21.266  32.366  54.368  0.00  0.00    -0.085 HD
BRANCH  13  16
ATOM     16  C   LIG    1       19.793  33.382  55.351  0.00  0.00    -0.072 C 
ATOM     17  C   LIG    1       20.499  34.098  56.504  0.00  0.00    -0.016 C 
ATOM     18  C   LIG    1       19.739  35.380  56.850  0.00  0.00    -0.002 C 
ATOM     19  C   LIG    1       18.310  35.027  57.267  0.00  0.00    -0.000 C 
ATOM     20  C   LIG    1       17.603  34.311  56.114  0.00  0.00    -0.002 C 
ATOM     21  C   LIG    1       18.364  33.030  55.768  0.00  0.00    -0.016 C 
ENDBRANCH  13  16
ENDBRANCH  12  13
ENDBRANCH   2  12
TORSDOF 6
ENDMDL
MODEL 3
REMARK VINA RESULT:      -5.4      3.968      6.142
REMARK  Name = ZINC00000365
REMARK                            x       y       z     vdW  Elec       q    Type
REMARK                         _______ _______ _______ _____ _____    ______ ____
ROOT
ATOM      1  C   LIG    1       22.352  32.207  58.235  0.00  0.00    +0.050 C 
ATOM      2  C   LIG    1       22.699  32.009  56.758  0.00  0.00    +0.157 C 
ENDROOT
BRANCH   2   3
ATOM      3  O   LIG    1       22.211  33.118  56.001  0.00  0.00    -0.460 OA
BRANCH   3   4
ATOM      4  C   LIG    1       20.986  32.993  55.452  0.00  0.00    +0.339 C 
ATOM      5  O   LIG    1       20.806  32.210  54.542  0.00  0.00    -0.245 OA
BRANCH   4   6
ATOM      6  C   LIG    1       19.863  33.807  55.960  0.00  0.00    +0.059 A 
ATOM      7  C   LIG    1       18.546  33.414  55.716  0.00  0.00    +0.015 A 
ATOM      8  C   LIG    1       17.502  34.179  56.194  0.00  0.00    +0.001 A 
ATOM      9  C   LIG    1       17.758  35.334  56.912  0.00  0.00    +0.000 A 
ATOM     10  C   LIG    1       19.061  35.729  57.158  0.00  0.00    +0.001 A 
ATOM     11  C   LIG    1       20.115  34.970  56.691  0.00  0.00    +0.015 A 
ENDBRANCH   4   6
ENDBRANCH   3   4
ENDBRANCH   2   3
BRANCH   2  12
ATOM     12  C   LIG    1       24.218  31.912  56.599  0.00  0.00    -0.037 C 
BRANCH  12  13
ATOM     13  N   LIG    1       24.556  31.812  55.174  0.00  0.00    +0.383 N 
ATOM     14  H   LIG    1       23.883  32.331  54.630  0.00  0.00    -0.085 HD
ATOM     15  H   LIG    1       24.539  30.843  54.891  0.00  0.00    -0.085 HD
BRANCH  13  16
ATOM     16  C   LIG    1       25.899  32.364  54.949  0.00  0.00    -0.072 C 
ATOM     17  C   LIG    1       26.950  31.309  55.303  0.00  0.00    -0.016 C 
ATOM     18  C   LIG    1       28.348  31.883  55.069  0.00  0.00    -0.002 C 
ATOM     19  C   LIG    1       28.546  33.117  55.952  0.00  0.00    -0.000 C 
ATOM     20  C   LIG    1       27.496  34.172  55.598  0.00  0.00    -0.002 C 
ATOM     21  C   LIG    1       26.098  33.598  55.832  0.00  0.00    -0.016 C 
ENDBRANCH  13  16
ENDBRANCH  12  13
ENDBRANCH   2  12
TORSDOF 6
ENDMDL
MODEL 4
REMARK VINA RESULT:      -5.3      2.694      4.674
REMARK  Name = ZINC00000365
REMARK                            x       y       z     vdW  Elec       q    Type
REMARK                         _______ _______ _______ _____ _____    ______ ____
ROOT
ATOM      1  C   LIG    1       20.967  31.809  55.860  0.00  0.00    +0.050 C 
ATOM      2  C   LIG    1       22.285  32.123  56.571  0.00  0.00    +0.157 C 
ENDROOT
BRANCH   2   3
ATOM      3  O   LIG    1       23.378  31.844  55.694  0.00  0.00    -0.460 OA
BRANCH   3   4
ATOM      4  C   LIG    1       24.610  31.824  56.239  0.00  0.00    +0.339 C 
ATOM      5  O   LIG    1       24.831  31.137  57.215  0.00  0.00    -0.245 OA
BRANCH   4   6
ATOM      6  C   LIG    1       25.693  32.638  55.649  0.00  0.00    +0.059 A 
ATOM      7  C   LIG    1       25.995  33.894  56.179  0.00  0.00    +0.015 A 
ATOM      8  C   LIG    1       27.008  34.647  55.622  0.00  0.00    +0.001 A 
ATOM      9  C   LIG    1       27.722  34.162  54.542  0.00  0.00    +0.000 A 
ATOM     10  C   LIG    1       27.427  32.919  54.012  0.00  0.00    +0.001 A 
ATOM     11  C   LIG    1       26.422  32.152  54.562  0.00  0.00    +0.015 A 
ENDBRANCH   4   6
ENDBRANCH   3   4
ENDBRANCH   2   3
BRANCH   2  12
ATOM     12  C   LIG    1       22.313  33.601  56.966  0.00  0.00    -0.037 C 
BRANCH  12  13
ATOM     13  N   LIG    1       21.508  34.377  56.015  0.00  0.00    +0.383 N 
ATOM     14  H   LIG    1       20.551  34.057  56.043  0.00  0.00    -0.085 HD
ATOM     15  H   LIG    1       21.875  34.254  55.083  0.00  0.00    -0.085 HD
BRANCH  13  16
ATOM     16  C   LIG    1       21.559  35.801  56.376  0.00  0.00    -0.072 C 
ATOM     17  C   LIG    1       22.729  36.042  57.332  0.00  0.00    -0.016 C 
ATOM     18  C   LIG    1       22.783  37.523  57.709  0.00  0.00    -0.002 C 
ATOM     19  C   LIG    1       21.475  37.923  58.394  0.00  0.00    -0.000 C 
ATOM     20  C   LIG    1       20.304  37.682  57.439  0.00  0.00    -0.002 C 
ATOM     21  C   LIG    1       20.251  36.200  57.061  0.00  0.00    -0.016 C 
ENDBRANCH  13  16
ENDBRANCH  12  13
ENDBRANCH   2  12
TORSDOF 6
ENDMDL
MODEL 5
REMARK VINA RESULT:      -5.3      3.768      8.032
REMARK  Name = ZINC00000365
REMARK                            x       y       z     vdW  Elec       q    Type
REMARK                         _______ _______ _______ _____ _____    ______ ____
ROOT
ATOM      1  C   LIG    1       23.301  29.556  53.872  0.00  0.00    +0.050 C 
ATOM      2  C   LIG    1       23.268  29.874  55.368  0.00  0.00    +0.157 C 
ENDROOT
BRANCH   2   3
ATOM      3  O   LIG    1       23.759  31.199  55.585  0.00  0.00    -0.460 OA
BRANCH   3   4
ATOM      4  C   LIG    1       24.874  31.323  56.331  0.00  0.00    +0.339 C 
ATOM      5  O   LIG    1       24.964  30.738  57.391  0.00  0.00    -0.245 OA
BRANCH   4   6
ATOM      6  C   LIG    1       25.988  32.171  55.859  0.00  0.00    +0.059 A 
ATOM      7  C   LIG    1       25.915  33.560  55.987  0.00  0.00    +0.015 A 
ATOM      8  C   LIG    1       26.960  34.345  55.545  0.00  0.00    +0.001 A 
ATOM      9  C   LIG    1       28.076  33.760  54.974  0.00  0.00    +0.000 A 
ATOM     10  C   LIG    1       28.154  32.385  54.844  0.00  0.00    +0.001 A 
ATOM     11  C   LIG    1       27.120  31.587  55.288  0.00  0.00    +0.015 A 
ENDBRANCH   4   6
ENDBRANCH   3   4
ENDBRANCH   2   3
BRANCH   2  12
ATOM     12  C   LIG    1       21.829  29.774  55.879  0.00  0.00    -0.037 C 
BRANCH  12  13
ATOM     13  N   LIG    1       21.175  28.607  55.274  0.00  0.00    +0.383 N 
ATOM     14  H   LIG    1       21.695  27.773  55.502  0.00  0.00    -0.085 HD
ATOM     15  H   LIG    1       21.144  28.720  54.272  0.00  0.00    -0.085 HD
BRANCH  13  16
ATOM     16  C   LIG    1       19.805  28.489  55.795  0.00  0.00    -0.072 C 
ATOM     17  C   LIG    1       18.986  27.583  54.873  0.00  0.00    -0.016 C 
ATOM     18  C   LIG    1       17.561  27.459  55.414  0.00  0.00    -0.002 C 
ATOM     19  C   LIG    1       16.916  28.845  55.471  0.00  0.00    -0.000 C 
ATOM     20  C   LIG    1       17.734  29.751  56.393  0.00  0.00    -0.002 C 
ATOM     21  C   LIG    1       19.160  29.875  55.852  0.00  0.00    -0.016 C 
ENDBRANCH  13  16
ENDBRANCH  12  13
ENDBRANCH   2  12
TORSDOF 6
ENDMDL
