MODEL 1
REMARK VINA RESULT:      -5.5      0.000      0.000
REMARK  Name = ZINC00000435
REMARK                            x       y       z     vdW  Elec       q    Type
REMARK                         _______ _______ _______ _____ _____    ______ ____
ROOT
ATOM      1  C   LIG    1       25.995  31.915  55.206  0.00  0.00    -0.034 A 
ATOM      2  C   LIG    1       25.855  31.699  56.564  0.00  0.00    +0.005 A 
ATOM      3  C   LIG    1       24.680  31.166  57.062  0.00  0.00    +0.004 A 
ATOM      4  C   LIG    1       23.646  30.849  56.201  0.00  0.00    -0.047 A 
ATOM      5  C   LIG    1       23.786  31.067  54.843  0.00  0.00    +0.004 A 
ATOM      6  C   LIG    1       24.959  31.604  54.345  0.00  0.00    +0.005 A 
ENDROOT
BRANCH   1   8
ATOM      7  C   LIG    1       28.415  31.495  54.863  0.00  0.00    +0.024 C 
ATOM      8  C   LIG    1       27.275  32.496  54.663  0.00  0.00    +0.124 C 
BRANCH   8   9
ATOM      9  C   LIG    1       27.596  33.775  55.394  0.00  0.00    +0.312 C 
ATOM     10  O   LIG    1       26.998  34.800  55.118  0.00  0.00    -0.250 OA
BRANCH   9  11
ATOM     11  O   LIG    1       28.452  33.782  56.262  0.00  0.00    -0.480 OA
ATOM     12  H   LIG    1       29.353  33.657  56.033  0.00  0.00    +0.295 HD
ENDBRANCH   9  11
ENDBRANCH   8   9
ENDBRANCH   1   8
BRANCH   4  13
ATOM     13  C   LIG    1       22.366  30.268  56.743  0.00  0.00    +0.046 C 
BRANCH  13  14
ATOM     14  C   LIG    1       21.489  29.790  55.583  0.00  0.00    +0.060 C 
ATOM     15  C   LIG    1       21.188  28.285  55.735  0.00  0.00    +0.012 C 
ATOM     16  C   LIG    1       19.722  28.153  55.251  0.00  0.00    +0.008 C 
ATOM     17  C   LIG    1       19.079  29.456  55.786  0.00  0.00    +0.074 C 
ATOM     18  C   LIG    1       20.157  30.512  55.612  0.00  0.00    +0.137 C 
ATOM     19  O   LIG    1       19.986  31.702  55.514  0.00  0.00    -0.297 OA
ENDBRANCH  13  14
ENDBRANCH   4  13
TORSDOF 5
ENDMDL
MODEL 2
REMARK VINA RESULT:      -5.4      1.605      2.428
REMARK  Name = ZINC00000435
REMARK                            x       y       z     vdW  Elec       q    Type
REMARK                         _______ _______ _______ _____ _____    ______ ____
ROOT
ATOM      1  C   LIG    1       26.045  32.090  55.954  0.00  0.00    -0.034 A 
ATOM      2  C   LIG    1       25.643  32.080  54.631  0.00  0.00    +0.005 A 
ATOM      3  C   LIG    1       24.632  31.231  54.222  0.00  0.00    +0.004 A 
ATOM      4  C   LIG    1       24.021  30.393  55.137  0.00  0.00    -0.047 A 
ATOM      5  C   LIG    1       24.423  30.403  56.460  0.00  0.00    +0.004 A 
ATOM      6  C   LIG    1       25.439  31.248  56.867  0.00  0.00    +0.005 A 
ENDROOT
BRANCH   1   8
ATOM      7  C   LIG    1       26.780  34.457  56.043  0.00  0.00    +0.024 C 
ATOM      8  C   LIG    1       27.148  33.015  56.399  0.00  0.00    +0.124 C 
BRANCH   8   9
ATOM      9  C   LIG    1       28.431  32.637  55.704  0.00  0.00    +0.312 C 
ATOM     10  O   LIG    1       28.710  31.463  55.535  0.00  0.00    -0.250 OA
BRANCH   9  11
ATOM     11  O   LIG    1       29.190  33.507  55.311  0.00  0.00    -0.480 OA
ATOM     12  H   LIG    1       30.056  33.568  55.663  0.00  0.00    +0.295 HD
ENDBRANCH   9  11
ENDBRANCH   8   9
ENDBRANCH   1   8
BRANCH   4  13
ATOM     13  C   LIG    1       22.917  29.468  54.692  0.00  0.00    +0.046 C 
BRANCH  13  14
ATOM     14  C   LIG    1       21.785  29.492  55.721  0.00  0.00    +0.060 C 
ATOM     15  C   LIG    1       20.523  30.129  55.102  0.00  0.00    +0.012 C 
ATOM     16  C   LIG    1       19.361  29.295  55.696  0.00  0.00    +0.008 C 
ATOM     17  C   LIG    1       19.961  27.867  55.729  0.00  0.00    +0.074 C 
ATOM     18  C   LIG    1       21.416  28.076  56.115  0.00  0.00    +0.137 C 
ATOM     19  O   LIG    1       22.142  27.266  56.637  0.00  0.00    -0.297 OA
ENDBRANCH  13  14
ENDBRANCH   4  13
TORSDOF 5
ENDMDL
MODEL 3
REMARK VINA RESULT:      -5.3      1.326      2.126
REMARK  Name = ZINC00000435
REMARK                            x       y       z     vdW  Elec       q    Type
REMARK                         _______ _______ _______ _____ _____    ______ ____
ROOT
ATOM      1  C   LIG    1       26.048  31.927  55.157  0.00  0.00    -0.034 A 
ATOM      2  C   LIG    1       25.889  31.762  56.520  0.00  0.00    +0.005 A 
ATOM      3  C   LIG    1       24.684  31.313  57.027  0.00  0.00    +0.004 A 
ATOM      4  C   LIG    1       23.637  31.028  56.169  0.00  0.00    -0.047 A 
ATOM      5  C   LIG    1       23.796  31.193  54.806  0.00  0.00    +0.004 A 
ATOM      6  C   LIG    1       25.000  31.647  54.300  0.00  0.00    +0.005 A 
ENDROOT
BRANCH   1   8
ATOM      7  C   LIG    1       28.458  31.394  54.911  0.00  0.00    +0.024 C 
ATOM      8  C   LIG    1       27.362  32.417  54.605  0.00  0.00    +0.124 C 
BRANCH   8   9
ATOM      9  C   LIG    1       27.714  33.736  55.243  0.00  0.00    +0.312 C 
ATOM     10  O   LIG    1       27.121  34.749  54.913  0.00  0.00    -0.250 OA
BRANCH   9  11
ATOM     11  O   LIG    1       28.590  33.790  56.088  0.00  0.00    -0.480 OA
ATOM     12  H   LIG    1       29.199  34.502  56.088  0.00  0.00    +0.295 HD
ENDBRANCH   9  11
ENDBRANCH   8   9
ENDBRANCH   1   8
BRANCH   4  13
ATOM     13  C   LIG    1       22.323  30.538  56.721  0.00  0.00    +0.046 C 
BRANCH  13  14
ATOM     14  C   LIG    1       21.368  31.720  56.893  0.00  0.00    +0.060 C 
ATOM     15  C   LIG    1       22.105  33.042  56.591  0.00  0.00    +0.012 C 
ATOM     16  C   LIG    1       21.039  33.900  55.864  0.00  0.00    +0.008 C 
ATOM     17  C   LIG    1       20.292  32.845  55.011  0.00  0.00    +0.074 C 
ATOM     18  C   LIG    1       20.230  31.613  55.898  0.00  0.00    +0.137 C 
ATOM     19  O   LIG    1       19.426  30.716  55.824  0.00  0.00    -0.297 OA
ENDBRANCH  13  14
ENDBRANCH   4  13
TORSDOF 5
ENDMDL
MODEL 4
REMARK VINA RESULT:      -5.2      1.222      1.539
REMARK  Name = ZINC00000435
REMARK                            x       y       z     vdW  Elec       q    Type
REMARK                         _______ _______ _______ _____ _____    ______ ____
ROOT
ATOM      1  C   LIG    1       26.018  31.906  55.226  0.00  0.00    -0.034 A 
ATOM      2  C   LIG    1       25.938  31.614  56.575  0.00  0.00    +0.005 A 
ATOM      3  C   LIG    1       24.786  31.053  57.094  0.00  0.00    +0.004 A 
ATOM      4  C   LIG    1       23.714  30.784  56.263  0.00  0.00    -0.047 A 
ATOM      5  C   LIG    1       23.794  31.077  54.915  0.00  0.00    +0.004 A 
ATOM      6  C   LIG    1       24.944  31.643  54.397  0.00  0.00    +0.005 A 
ENDROOT
BRANCH   1   8
ATOM      7  C   LIG    1       28.445  31.554  54.856  0.00  0.00    +0.024 C 
ATOM      8  C   LIG    1       27.274  32.519  54.660  0.00  0.00    +0.124 C 
BRANCH   8   9
ATOM      9  C   LIG    1       27.566  33.814  55.373  0.00  0.00    +0.312 C 
ATOM     10  O   LIG    1       26.968  34.829  55.061  0.00  0.00    -0.250 OA
BRANCH   9  11
ATOM     11  O   LIG    1       28.400  33.846  56.262  0.00  0.00    -0.480 OA
ATOM     12  H   LIG    1       28.217  33.450  57.091  0.00  0.00    +0.295 HD
ENDBRANCH   9  11
ENDBRANCH   8   9
ENDBRANCH   1   8
BRANCH   4  13
ATOM     13  C   LIG    1       22.458  30.171  56.828  0.00  0.00    +0.046 C 
BRANCH  13  14
ATOM     14  C   LIG    1       22.441  28.671  56.527  0.00  0.00    +0.060 C 
ATOM     15  C   LIG    1       22.388  27.869  57.844  0.00  0.00    +0.012 C 
ATOM     16  C   LIG    1       21.459  26.675  57.510  0.00  0.00    +0.008 C 
ATOM     17  C   LIG    1       20.403  27.327  56.583  0.00  0.00    +0.074 C 
ATOM     18  C   LIG    1       21.193  28.317  55.744  0.00  0.00    +0.137 C 
ATOM     19  O   LIG    1       20.884  28.742  54.658  0.00  0.00    -0.297 OA
ENDBRANCH  13  14
ENDBRANCH   4  13
TORSDOF 5
ENDMDL
MODEL 5
REMARK VINA RESULT:      -5.2      2.577      3.191
REMARK  Name = ZINC00000435
REMARK                            x       y       z     vdW  Elec       q    Type
REMARK                         _______ _______ _______ _____ _____    ______ ____
ROOT
ATOM      1  C   LIG    1       25.543  32.097  55.670  0.00  0.00    -0.034 A 
ATOM      2  C   LIG    1       24.417  32.580  56.311  0.00  0.00    +0.005 A 
ATOM      3  C   LIG    1       23.523  31.702  56.893  0.00  0.00    +0.004 A 
ATOM      4  C   LIG    1       23.754  30.340  56.834  0.00  0.00    -0.047 A 
ATOM      5  C   LIG    1       24.879  29.857  56.192  0.00  0.00    +0.004 A 
ATOM      6  C   LIG    1       25.771  30.735  55.606  0.00  0.00    +0.005 A 
ENDROOT
BRANCH   1   8
ATOM      7  C   LIG    1       27.593  32.266  54.284  0.00  0.00    +0.024 C 
ATOM      8  C   LIG    1       26.518  33.055  55.035  0.00  0.00    +0.124 C 
BRANCH   8   9
ATOM      9  C   LIG    1       27.167  33.895  56.105  0.00  0.00    +0.312 C 
ATOM     10  O   LIG    1       26.921  35.086  56.177  0.00  0.00    -0.250 OA
BRANCH   9  11
ATOM     11  O   LIG    1       27.937  33.382  56.899  0.00  0.00    -0.480 OA
ATOM     12  H   LIG    1       27.631  33.111  57.742  0.00  0.00    +0.295 HD
ENDBRANCH   9  11
ENDBRANCH   8   9
ENDBRANCH   1   8
BRANCH   4  13
ATOM     13  C   LIG    1       22.779  29.383  57.469  0.00  0.00    +0.046 C 
BRANCH  13  14
ATOM     14  C   LIG    1       22.258  29.977  58.780  0.00  0.00    +0.060 C 
ATOM     15  C   LIG    1       20.850  29.428  59.085  0.00  0.00    +0.012 C 
ATOM     16  C   LIG    1       20.851  29.248  60.624  0.00  0.00    +0.008 C 
ATOM     17  C   LIG    1       22.296  28.764  60.899  0.00  0.00    +0.074 C 
ATOM     18  C   LIG    1       23.153  29.559  59.928  0.00  0.00    +0.137 C 
ATOM     19  O   LIG    1       24.328  29.809  60.048  0.00  0.00    -0.297 OA
ENDBRANCH  13  14
ENDBRANCH   4  13
TORSDOF 5
ENDMDL
