REMARK VINA RESULT:      -5.3      1.757      2.408
REMARK  Name = ZINC00000860
REMARK                            x       y       z     vdW  Elec       q    Type
REMARK                         _______ _______ _______ _____ _____    ______ ____
ROOT
ATOM      1  C   LIG    1       22.432  33.096  56.491  0.00  0.00    +0.017 C 
ATOM      2  C   LIG    1       22.763  32.056  57.284  0.00  0.00    -0.021 C 
ATOM      3  C   LIG    1       21.747  31.420  58.213  0.00  0.00    +0.039 C 
ATOM      4  C   LIG    1       22.476  31.114  59.531  0.00  0.00    +0.028 C 
ATOM      5  C   LIG    1       23.625  30.148  59.248  0.00  0.00    +0.142 C 
ATOM      6  N   LIG    1       24.493  30.642  58.189  0.00  0.00    -0.283 NA
ATOM      7  C   LIG    1       24.122  31.493  57.279  0.00  0.00    +0.070 C 
ENDROOT
BRANCH   1  11
ATOM      8  C   LIG    1       18.386  34.349  56.212  0.00  0.00    +0.124 A 
ATOM      9  C   LIG    1       18.827  33.251  55.481  0.00  0.00    +0.046 A 
ATOM     10  C   LIG    1       20.137  32.840  55.568  0.00  0.00    +0.015 A 
ATOM     11  C   LIG    1       21.031  33.529  56.395  0.00  0.00    +0.017 A 
ATOM     12  C   LIG    1       20.584  34.638  57.131  0.00  0.00    +0.131 A 
ATOM     13  C   LIG    1       19.263  35.037  57.039  0.00  0.00    +0.091 A 
BRANCH   8  15
ATOM     14  C   LIG    1       16.134  34.027  56.899  0.00  0.00    +0.277 C 
ATOM     15  O   LIG    1       17.092  34.747  56.120  0.00  0.00    -0.495 OA
ENDBRANCH   8  15
BRANCH  12  16
ATOM     16  O   LIG    1       21.444  35.313  57.936  0.00  0.00    -0.494 OA
ATOM     17  C   LIG    1       21.922  36.574  57.462  0.00  0.00    +0.277 C 
ENDBRANCH  12  16
ENDBRANCH   1  11
BRANCH   7  18
ATOM     18  C   LIG    1       25.081  31.906  56.226  0.00  0.00    +0.018 A 
ATOM     19  C   LIG    1       26.166  32.731  56.536  0.00  0.00    +0.013 A 
ATOM     20  C   LIG    1       27.036  33.081  55.518  0.00  0.00    +0.020 A 
ATOM     21  C   LIG    1       26.799  32.619  54.237  0.00  0.00    +0.111 A 
ATOM     22  N   LIG    1       25.763  31.847  53.973  0.00  0.00    -0.263 NA
ATOM     23  C   LIG    1       24.912  31.481  54.909  0.00  0.00    +0.120 A 
ENDBRANCH   7  18
TORSDOF 4
