REMARK VINA RESULT:      -5.4      1.804      2.409
REMARK  Name = ZINC00000860
REMARK                            x       y       z     vdW  Elec       q    Type
REMARK                         _______ _______ _______ _____ _____    ______ ____
ROOT
ATOM      1  C   LIG    1       22.601  33.039  56.549  0.00  0.00    +0.017 C 
ATOM      2  C   LIG    1       22.925  31.998  57.344  0.00  0.00    -0.021 C 
ATOM      3  C   LIG    1       21.889  31.327  58.225  0.00  0.00    +0.039 C 
ATOM      4  C   LIG    1       22.572  31.022  59.567  0.00  0.00    +0.028 C 
ATOM      5  C   LIG    1       23.754  30.086  59.319  0.00  0.00    +0.142 C 
ATOM      6  N   LIG    1       24.651  30.614  58.300  0.00  0.00    -0.283 NA
ATOM      7  C   LIG    1       24.296  31.467  57.386  0.00  0.00    +0.070 C 
ENDROOT
BRANCH   1  11
ATOM      8  C   LIG    1       18.540  34.199  56.127  0.00  0.00    +0.124 A 
ATOM      9  C   LIG    1       19.315  34.737  57.149  0.00  0.00    +0.046 A 
ATOM     10  C   LIG    1       20.632  34.364  57.291  0.00  0.00    +0.015 A 
ATOM     11  C   LIG    1       21.195  33.441  56.403  0.00  0.00    +0.017 A 
ATOM     12  C   LIG    1       20.411  32.900  55.371  0.00  0.00    +0.131 A 
ATOM     13  C   LIG    1       19.090  33.287  55.237  0.00  0.00    +0.091 A 
BRANCH   8  15
ATOM     14  C   LIG    1       16.383  34.343  57.115  0.00  0.00    +0.277 C 
ATOM     15  O   LIG    1       17.242  34.572  55.995  0.00  0.00    -0.495 OA
ENDBRANCH   8  15
BRANCH  12  16
ATOM     16  O   LIG    1       20.949  32.004  54.505  0.00  0.00    -0.494 OA
ATOM     17  C   LIG    1       20.724  30.620  54.780  0.00  0.00    +0.277 C 
ENDBRANCH  12  16
ENDBRANCH   1  11
BRANCH   7  18
ATOM     18  C   LIG    1       25.285  31.914  56.376  0.00  0.00    +0.018 A 
ATOM     19  C   LIG    1       25.111  31.604  55.024  0.00  0.00    +0.013 A 
ATOM     20  C   LIG    1       26.060  32.051  54.120  0.00  0.00    +0.020 A 
ATOM     21  C   LIG    1       27.146  32.771  54.581  0.00  0.00    +0.111 A 
ATOM     22  N   LIG    1       27.287  33.044  55.864  0.00  0.00    -0.263 NA
ATOM     23  C   LIG    1       26.408  32.646  56.760  0.00  0.00    +0.120 A 
ENDBRANCH   7  18
TORSDOF 4
