REMARK VINA RESULT:      -5.1      2.530      4.152
REMARK  Name = ZINC00000860
REMARK                            x       y       z     vdW  Elec       q    Type
REMARK                         _______ _______ _______ _____ _____    ______ ____
ROOT
ATOM      1  C   LIG    1       20.863  33.504  56.533  0.00  0.00    +0.017 C 
ATOM      2  C   LIG    1       21.244  32.779  57.605  0.00  0.00    -0.021 C 
ATOM      3  C   LIG    1       20.697  33.072  58.989  0.00  0.00    +0.039 C 
ATOM      4  C   LIG    1       21.868  32.929  59.972  0.00  0.00    +0.028 C 
ATOM      5  C   LIG    1       22.405  31.501  59.898  0.00  0.00    +0.142 C 
ATOM      6  N   LIG    1       22.726  31.119  58.531  0.00  0.00    -0.283 NA
ATOM      7  C   LIG    1       22.202  31.671  57.476  0.00  0.00    +0.070 C 
ENDROOT
BRANCH   1  11
ATOM      8  C   LIG    1       17.745  36.360  56.905  0.00  0.00    +0.124 A 
ATOM      9  C   LIG    1       19.059  36.723  57.180  0.00  0.00    +0.046 A 
ATOM     10  C   LIG    1       20.073  35.801  57.061  0.00  0.00    +0.015 A 
ATOM     11  C   LIG    1       19.784  34.493  56.661  0.00  0.00    +0.017 A 
ATOM     12  C   LIG    1       18.456  34.128  56.382  0.00  0.00    +0.131 A 
ATOM     13  C   LIG    1       17.447  35.066  56.501  0.00  0.00    +0.091 A 
BRANCH   8  15
ATOM     14  C   LIG    1       16.939  38.316  57.986  0.00  0.00    +0.277 C 
ATOM     15  O   LIG    1       16.750  37.275  57.025  0.00  0.00    -0.495 OA
ENDBRANCH   8  15
BRANCH  12  16
ATOM     16  O   LIG    1       18.166  32.860  55.993  0.00  0.00    -0.494 OA
ATOM     17  C   LIG    1       16.874  32.355  56.339  0.00  0.00    +0.277 C 
ENDBRANCH  12  16
ENDBRANCH   1  11
BRANCH   7  18
ATOM     18  C   LIG    1       22.579  31.181  56.128  0.00  0.00    +0.018 A 
ATOM     19  C   LIG    1       21.821  30.193  55.493  0.00  0.00    +0.013 A 
ATOM     20  C   LIG    1       22.211  29.776  54.232  0.00  0.00    +0.020 A 
ATOM     21  C   LIG    1       23.334  30.335  53.652  0.00  0.00    +0.111 A 
ATOM     22  N   LIG    1       24.033  31.262  54.278  0.00  0.00    -0.263 NA
ATOM     23  C   LIG    1       23.698  31.696  55.475  0.00  0.00    +0.120 A 
ENDBRANCH   7  18
TORSDOF 4
