REMARK VINA RESULT:      -5.6      0.000      0.000
REMARK  Name = ZINC00000860
REMARK                            x       y       z     vdW  Elec       q    Type
REMARK                         _______ _______ _______ _____ _____    ______ ____
ROOT
ATOM      1  C   LIG    1       23.309  32.661  56.701  0.00  0.00    +0.017 C 
ATOM      2  C   LIG    1       23.511  31.373  56.358  0.00  0.00    -0.021 C 
ATOM      3  C   LIG    1       22.369  30.375  56.332  0.00  0.00    +0.039 C 
ATOM      4  C   LIG    1       22.910  29.060  56.913  0.00  0.00    +0.028 C 
ATOM      5  C   LIG    1       24.067  28.573  56.043  0.00  0.00    +0.142 C 
ATOM      6  N   LIG    1       25.077  29.607  55.868  0.00  0.00    -0.283 NA
ATOM      7  C   LIG    1       24.848  30.881  55.989  0.00  0.00    +0.070 C 
ENDROOT
BRANCH   1  11
ATOM      8  C   LIG    1       19.362  34.108  57.285  0.00  0.00    +0.124 A 
ATOM      9  C   LIG    1       19.920  34.103  56.011  0.00  0.00    +0.046 A 
ATOM     10  C   LIG    1       21.200  33.635  55.817  0.00  0.00    +0.015 A 
ATOM     11  C   LIG    1       21.942  33.162  56.903  0.00  0.00    +0.017 A 
ATOM     12  C   LIG    1       21.376  33.167  58.189  0.00  0.00    +0.131 A 
ATOM     13  C   LIG    1       20.088  33.635  58.369  0.00  0.00    +0.091 A 
BRANCH   8  15
ATOM     14  C   LIG    1       17.244  34.594  56.323  0.00  0.00    +0.277 C 
ATOM     15  O   LIG    1       18.099  34.572  57.468  0.00  0.00    -0.495 OA
ENDBRANCH   8  15
BRANCH  12  16
ATOM     16  O   LIG    1       22.090  32.709  59.249  0.00  0.00    -0.494 OA
ATOM     17  C   LIG    1       21.652  31.485  59.845  0.00  0.00    +0.277 C 
ENDBRANCH  12  16
ENDBRANCH   1  11
BRANCH   7  18
ATOM     18  C   LIG    1       25.946  31.850  55.757  0.00  0.00    +0.018 A 
ATOM     19  C   LIG    1       26.238  32.298  54.465  0.00  0.00    +0.013 A 
ATOM     20  C   LIG    1       27.269  33.208  54.304  0.00  0.00    +0.020 A 
ATOM     21  C   LIG    1       27.978  33.630  55.412  0.00  0.00    +0.111 A 
ATOM     22  N   LIG    1       27.683  33.185  56.619  0.00  0.00    -0.263 NA
ATOM     23  C   LIG    1       26.708  32.325  56.824  0.00  0.00    +0.120 A 
ENDBRANCH   7  18
TORSDOF 4
