REMARK VINA RESULT:      -5.0      3.861      5.356
REMARK  Name = ZINC00000860
REMARK                            x       y       z     vdW  Elec       q    Type
REMARK                         _______ _______ _______ _____ _____    ______ ____
ROOT
ATOM      1  C   LIG    1       21.833  36.585  57.294  0.00  0.00    +0.017 C 
ATOM      2  C   LIG    1       22.381  36.521  58.525  0.00  0.00    -0.021 C 
ATOM      3  C   LIG    1       21.659  35.845  59.675  0.00  0.00    +0.039 C 
ATOM      4  C   LIG    1       21.891  36.713  60.921  0.00  0.00    +0.028 C 
ATOM      5  C   LIG    1       23.391  36.789  61.200  0.00  0.00    +0.142 C 
ATOM      6  N   LIG    1       24.133  37.223  60.025  0.00  0.00    -0.283 NA
ATOM      7  C   LIG    1       23.705  37.098  58.803  0.00  0.00    +0.070 C 
ENDROOT
BRANCH   1  11
ATOM      8  C   LIG    1       18.240  34.485  56.461  0.00  0.00    +0.124 A 
ATOM      9  C   LIG    1       18.189  35.794  56.929  0.00  0.00    +0.046 A 
ATOM     10  C   LIG    1       19.351  36.479  57.200  0.00  0.00    +0.015 A 
ATOM     11  C   LIG    1       20.589  35.858  57.005  0.00  0.00    +0.017 A 
ATOM     12  C   LIG    1       20.638  34.537  56.533  0.00  0.00    +0.131 A 
ATOM     13  C   LIG    1       19.463  33.862  56.259  0.00  0.00    +0.091 A 
BRANCH   8  15
ATOM     14  C   LIG    1       15.950  34.143  56.995  0.00  0.00    +0.277 C 
ATOM     15  O   LIG    1       17.089  33.816  56.196  0.00  0.00    -0.495 OA
ENDBRANCH   8  15
BRANCH  12  16
ATOM     16  O   LIG    1       21.836  33.926  56.340  0.00  0.00    -0.494 OA
ATOM     17  C   LIG    1       21.807  32.567  55.899  0.00  0.00    +0.277 C 
ENDBRANCH  12  16
ENDBRANCH   1  11
BRANCH   7  18
ATOM     18  C   LIG    1       24.559  37.547  57.678  0.00  0.00    +0.018 A 
ATOM     19  C   LIG    1       25.271  36.620  56.911  0.00  0.00    +0.013 A 
ATOM     20  C   LIG    1       26.048  37.090  55.866  0.00  0.00    +0.020 A 
ATOM     21  C   LIG    1       26.106  38.450  55.625  0.00  0.00    +0.111 A 
ATOM     22  N   LIG    1       25.428  39.302  56.370  0.00  0.00    -0.263 NA
ATOM     23  C   LIG    1       24.670  38.902  57.370  0.00  0.00    +0.120 A 
ENDBRANCH   7  18
TORSDOF 4
