MODEL 1
REMARK VINA RESULT:      -6.2      0.000      0.000
REMARK  Name = ZINC00000931
REMARK                            x       y       z     vdW  Elec       q    Type
REMARK                         _______ _______ _______ _____ _____    ______ ____
ROOT
ATOM      1  C   LIG    1       27.525  33.424  54.068  0.00  0.00    +0.004 A 
ATOM      2  C   LIG    1       27.400  34.451  54.984  0.00  0.00    +0.004 A 
ATOM      3  C   LIG    1       26.450  34.375  55.988  0.00  0.00    +0.051 A 
ATOM      4  C   LIG    1       25.624  33.267  56.086  0.00  0.00    +0.179 A 
ATOM      5  C   LIG    1       25.761  32.216  55.179  0.00  0.00    +0.218 A 
ATOM      6  N   LIG    1       25.019  31.078  55.283  0.00  0.00    -0.038 NA
ATOM      7  C   LIG    1       23.772  30.992  55.590  0.00  0.00    +0.325 C 
ATOM      8  C   LIG    1       22.896  32.128  55.917  0.00  0.00    +0.109 A 
ATOM      9  C   LIG    1       21.573  32.138  55.472  0.00  0.00    +0.039 A 
ATOM     10  C   LIG    1       20.743  33.194  55.797  0.00  0.00    +0.042 A 
ATOM     11 CL   LIG    1       19.100  33.206  55.239  0.00  0.00    -0.084 Cl
ATOM     12  C   LIG    1       21.219  34.242  56.567  0.00  0.00    +0.023 A 
ATOM     13  C   LIG    1       22.530  34.245  57.007  0.00  0.00    +0.048 A 
ATOM     14  C   LIG    1       23.376  33.199  56.677  0.00  0.00    +0.144 A 
ATOM     15  O   LIG    1       24.677  33.237  57.059  0.00  0.00    -0.451 OA
ATOM     16  C   LIG    1       26.713  32.311  54.159  0.00  0.00    +0.059 A 
ENDROOT
BRANCH   7  17
ATOM     17  N   LIG    1       23.212  29.735  55.615  0.00  0.00    -0.224 N 
ATOM     18  C   LIG    1       23.139  28.964  56.867  0.00  0.00    +0.207 C 
ATOM     19  C   LIG    1       21.701  28.466  57.046  0.00  0.00    -0.038 C 
ATOM     20  N   LIG    1       21.289  27.720  55.850  0.00  0.00    +0.384 N 
ATOM     21  H   LIG    1       20.372  27.328  55.999  0.00  0.00    -0.086 HD
ATOM     22  H   LIG    1       21.947  26.974  55.677  0.00  0.00    -0.086 HD
ATOM     23  C   LIG    1       21.253  28.617  54.689  0.00  0.00    -0.038 C 
ATOM     24  C   LIG    1       22.664  29.126  54.393  0.00  0.00    +0.207 C 
ENDBRANCH   7  17
TORSDOF 1
ENDMDL
MODEL 2
REMARK VINA RESULT:      -6.0      2.463      4.235
REMARK  Name = ZINC00000931
REMARK                            x       y       z     vdW  Elec       q    Type
REMARK                         _______ _______ _______ _____ _____    ______ ____
ROOT
ATOM      1  C   LIG    1       28.083  32.880  56.181  0.00  0.00    +0.004 A 
ATOM      2  C   LIG    1       28.240  32.254  54.960  0.00  0.00    +0.004 A 
ATOM      3  C   LIG    1       27.131  31.888  54.217  0.00  0.00    +0.051 A 
ATOM      4  C   LIG    1       25.856  32.154  54.689  0.00  0.00    +0.179 A 
ATOM      5  C   LIG    1       25.690  32.808  55.911  0.00  0.00    +0.218 A 
ATOM      6  N   LIG    1       24.458  33.152  56.379  0.00  0.00    -0.038 NA
ATOM      7  C   LIG    1       23.380  32.450  56.314  0.00  0.00    +0.325 C 
ATOM      8  C   LIG    1       23.267  31.123  55.690  0.00  0.00    +0.109 A 
ATOM      9  C   LIG    1       22.466  30.142  56.279  0.00  0.00    +0.039 A 
ATOM     10  C   LIG    1       22.341  28.903  55.682  0.00  0.00    +0.042 A 
ATOM     11 CL   LIG    1       21.349  27.684  56.419  0.00  0.00    -0.084 Cl
ATOM     12  C   LIG    1       23.005  28.629  54.498  0.00  0.00    +0.023 A 
ATOM     13  C   LIG    1       23.806  29.591  53.910  0.00  0.00    +0.048 A 
ATOM     14  C   LIG    1       23.951  30.834  54.505  0.00  0.00    +0.144 A 
ATOM     15  O   LIG    1       24.785  31.751  53.957  0.00  0.00    -0.451 OA
ATOM     16  C   LIG    1       26.819  33.157  56.660  0.00  0.00    +0.059 A 
ENDROOT
BRANCH   7  17
ATOM     17  N   LIG    1       22.242  32.984  56.874  0.00  0.00    -0.224 N 
ATOM     18  C   LIG    1       22.036  32.966  58.331  0.00  0.00    +0.207 C 
ATOM     19  C   LIG    1       21.661  34.380  58.785  0.00  0.00    -0.038 C 
ATOM     20  N   LIG    1       20.502  34.850  58.015  0.00  0.00    +0.384 N 
ATOM     21  H   LIG    1       20.209  35.749  58.367  0.00  0.00    -0.086 HD
ATOM     22  H   LIG    1       19.745  34.190  58.113  0.00  0.00    -0.086 HD
ATOM     23  C   LIG    1       20.862  34.974  56.597  0.00  0.00    -0.038 C 
ATOM     24  C   LIG    1       21.200  33.594  56.034  0.00  0.00    +0.207 C 
ENDBRANCH   7  17
TORSDOF 1
ENDMDL
MODEL 3
REMARK VINA RESULT:      -5.6      3.898      5.513
REMARK  Name = ZINC00000931
REMARK                            x       y       z     vdW  Elec       q    Type
REMARK                         _______ _______ _______ _____ _____    ______ ____
ROOT
ATOM      1  C   LIG    1       19.883  34.029  57.596  0.00  0.00    +0.004 A 
ATOM      2  C   LIG    1       20.565  34.553  56.514  0.00  0.00    +0.004 A 
ATOM      3  C   LIG    1       20.830  33.762  55.410  0.00  0.00    +0.051 A 
ATOM      4  C   LIG    1       20.408  32.443  55.378  0.00  0.00    +0.179 A 
ATOM      5  C   LIG    1       19.698  31.914  56.456  0.00  0.00    +0.218 A 
ATOM      6  N   LIG    1       19.203  30.645  56.436  0.00  0.00    -0.038 NA
ATOM      7  C   LIG    1       19.783  29.594  55.970  0.00  0.00    +0.325 C 
ATOM      8  C   LIG    1       21.111  29.566  55.336  0.00  0.00    +0.109 A 
ATOM      9  C   LIG    1       21.976  28.497  55.577  0.00  0.00    +0.039 A 
ATOM     10  C   LIG    1       23.213  28.458  54.965  0.00  0.00    +0.042 A 
ATOM     11 CL   LIG    1       24.288  27.130  55.269  0.00  0.00    -0.084 Cl
ATOM     12  C   LIG    1       23.599  29.476  54.109  0.00  0.00    +0.023 A 
ATOM     13  C   LIG    1       22.753  30.544  53.869  0.00  0.00    +0.048 A 
ATOM     14  C   LIG    1       21.514  30.602  54.487  0.00  0.00    +0.144 A 
ATOM     15  O   LIG    1       20.715  31.680  54.296  0.00  0.00    -0.451 OA
ATOM     16  C   LIG    1       19.452  32.718  57.574  0.00  0.00    +0.059 A 
ENDROOT
BRANCH   7  17
ATOM     17  N   LIG    1       19.107  28.400  56.072  0.00  0.00    -0.224 N 
ATOM     18  C   LIG    1       18.972  27.716  57.369  0.00  0.00    +0.207 C 
ATOM     19  C   LIG    1       17.496  27.368  57.581  0.00  0.00    -0.038 C 
ATOM     20  N   LIG    1       17.005  26.594  56.434  0.00  0.00    +0.384 N 
ATOM     21  H   LIG    1       16.056  26.300  56.609  0.00  0.00    -0.086 HD
ATOM     22  H   LIG    1       17.588  25.780  56.304  0.00  0.00    -0.086 HD
ATOM     23  C   LIG    1       17.044  27.419  55.221  0.00  0.00    -0.038 C 
ATOM     24  C   LIG    1       18.494  27.773  54.891  0.00  0.00    +0.207 C 
ENDBRANCH   7  17
TORSDOF 1
ENDMDL
MODEL 4
REMARK VINA RESULT:      -5.4      3.083      5.475
REMARK  Name = ZINC00000931
REMARK                            x       y       z     vdW  Elec       q    Type
REMARK                         _______ _______ _______ _____ _____    ______ ____
ROOT
ATOM      1  C   LIG    1       17.630  34.137  55.929  0.00  0.00    +0.004 A 
ATOM      2  C   LIG    1       17.689  35.106  56.913  0.00  0.00    +0.004 A 
ATOM      3  C   LIG    1       18.867  35.321  57.607  0.00  0.00    +0.051 A 
ATOM      4  C   LIG    1       19.996  34.574  57.315  0.00  0.00    +0.179 A 
ATOM      5  C   LIG    1       19.951  33.610  56.307  0.00  0.00    +0.218 A 
ATOM      6  N   LIG    1       21.055  32.903  55.940  0.00  0.00    -0.038 NA
ATOM      7  C   LIG    1       21.958  32.418  56.719  0.00  0.00    +0.325 C 
ATOM      8  C   LIG    1       21.982  32.556  58.183  0.00  0.00    +0.109 A 
ATOM      9  C   LIG    1       22.397  31.485  58.977  0.00  0.00    +0.039 A 
ATOM     10  C   LIG    1       22.441  31.621  60.351  0.00  0.00    +0.042 A 
ATOM     11 CL   LIG    1       22.953  30.286  61.336  0.00  0.00    -0.084 Cl
ATOM     12  C   LIG    1       22.078  32.818  60.945  0.00  0.00    +0.023 A 
ATOM     13  C   LIG    1       21.659  33.882  60.168  0.00  0.00    +0.048 A 
ATOM     14  C   LIG    1       21.597  33.755  58.790  0.00  0.00    +0.144 A 
ATOM     15  O   LIG    1       21.128  34.781  58.038  0.00  0.00    -0.451 OA
ATOM     16  C   LIG    1       18.749  33.390  55.624  0.00  0.00    +0.059 A 
ENDROOT
BRANCH   7  17
ATOM     17  N   LIG    1       22.985  31.712  56.134  0.00  0.00    -0.224 N 
ATOM     18  C   LIG    1       24.343  32.275  56.059  0.00  0.00    +0.207 C 
ATOM     19  C   LIG    1       25.330  31.233  56.594  0.00  0.00    -0.038 C 
ATOM     20  N   LIG    1       25.156  29.972  55.862  0.00  0.00    +0.384 N 
ATOM     21  H   LIG    1       25.856  29.311  56.162  0.00  0.00    -0.086 HD
ATOM     22  H   LIG    1       25.259  30.142  54.872  0.00  0.00    -0.086 HD
ATOM     23  C   LIG    1       23.821  29.422  56.125  0.00  0.00    -0.038 C 
ATOM     24  C   LIG    1       22.759  30.372  55.571  0.00  0.00    +0.207 C 
ENDBRANCH   7  17
TORSDOF 1
ENDMDL
MODEL 5
REMARK VINA RESULT:      -5.3      3.034      4.330
REMARK  Name = ZINC00000931
REMARK                            x       y       z     vdW  Elec       q    Type
REMARK                         _______ _______ _______ _____ _____    ______ ____
ROOT
ATOM      1  C   LIG    1       23.443  29.955  53.657  0.00  0.00    +0.004 A 
ATOM      2  C   LIG    1       24.168  30.930  54.314  0.00  0.00    +0.004 A 
ATOM      3  C   LIG    1       23.640  31.557  55.429  0.00  0.00    +0.051 A 
ATOM      4  C   LIG    1       22.385  31.206  55.899  0.00  0.00    +0.179 A 
ATOM      5  C   LIG    1       21.656  30.206  55.254  0.00  0.00    +0.218 A 
ATOM      6  N   LIG    1       20.450  29.780  55.723  0.00  0.00    -0.038 NA
ATOM      7  C   LIG    1       19.508  30.510  56.212  0.00  0.00    +0.325 C 
ATOM      8  C   LIG    1       19.564  31.970  56.381  0.00  0.00    +0.109 A 
ATOM      9  C   LIG    1       18.429  32.745  56.134  0.00  0.00    +0.039 A 
ATOM     10  C   LIG    1       18.474  34.113  56.314  0.00  0.00    +0.042 A 
ATOM     11 CL   LIG    1       17.062  35.074  56.001  0.00  0.00    -0.084 Cl
ATOM     12  C   LIG    1       19.642  34.722  56.742  0.00  0.00    +0.023 A 
ATOM     13  C   LIG    1       20.774  33.965  56.983  0.00  0.00    +0.048 A 
ATOM     14  C   LIG    1       20.747  32.593  56.794  0.00  0.00    +0.144 A 
ATOM     15  O   LIG    1       21.876  31.864  56.973  0.00  0.00    -0.451 OA
ATOM     16  C   LIG    1       22.194  29.592  54.118  0.00  0.00    +0.059 A 
ENDROOT
BRANCH   7  17
ATOM     17  N   LIG    1       18.355  29.872  56.609  0.00  0.00    -0.224 N 
ATOM     18  C   LIG    1       18.024  29.726  58.035  0.00  0.00    +0.207 C 
ATOM     19  C   LIG    1       16.586  30.208  58.251  0.00  0.00    -0.038 C 
ATOM     20  N   LIG    1       15.686  29.486  57.344  0.00  0.00    +0.384 N 
ATOM     21  H   LIG    1       14.732  29.748  57.539  0.00  0.00    -0.086 HD
ATOM     22  H   LIG    1       15.795  28.493  57.484  0.00  0.00    -0.086 HD
ATOM     23  C   LIG    1       16.008  29.819  55.951  0.00  0.00    -0.038 C 
ATOM     24  C   LIG    1       17.415  29.322  55.619  0.00  0.00    +0.207 C 
ENDBRANCH   7  17
TORSDOF 1
ENDMDL
