REMARK VINA RESULT:      -3.8      3.293      4.628
REMARK  Name = ZINC00000922
REMARK                            x       y       z     vdW  Elec       q    Type
REMARK                         _______ _______ _______ _____ _____    ______ ____
ROOT
ATOM      1  C   LIG    1       24.709  30.507  56.339  0.00  0.00    +0.024 A 
ATOM      2  C   LIG    1       23.835  29.493  56.603  0.00  0.00    +0.020 A 
ATOM      3  C   LIG    1       22.833  29.173  55.679  0.00  0.00    +0.100 A 
ATOM      4  C   LIG    1       22.732  29.898  54.478  0.00  0.00    +0.133 A 
ATOM      5  C   LIG    1       23.624  30.923  54.222  0.00  0.00    +0.069 A 
ATOM      6  C   LIG    1       24.613  31.229  55.150  0.00  0.00    +0.028 A 
ENDROOT
BRANCH   6   7
ATOM      7  N   LIG    1       25.509  32.259  54.892  0.00  0.00    -0.358 N 
ATOM      8  H   LIG    1       25.954  32.710  55.626  0.00  0.00    +0.142 HD
ATOM      9  H   LIG    1       25.691  32.527  53.977  0.00  0.00    +0.142 HD
ENDBRANCH   6   7
BRANCH   3  10
ATOM     10  C   LIG    1       21.891  28.083  55.962  0.00  0.00    +0.340 C 
ATOM     11  O   LIG    1       20.685  28.285  55.900  0.00  0.00    -0.245 OA
BRANCH  10  12
ATOM     12  O   LIG    1       22.311  26.972  56.261  0.00  0.00    -0.477 OA
ATOM     13  H   LIG    1       22.706  26.831  57.099  0.00  0.00    +0.295 HD
ENDBRANCH  10  12
ENDBRANCH   3  10
BRANCH   4  14
ATOM     14  O   LIG    1       21.765  29.594  53.577  0.00  0.00    -0.506 OA
ATOM     15  H   LIG    1       20.968  30.135  53.658  0.00  0.00    +0.292 HD
ENDBRANCH   4  14
TORSDOF 4
