REMARK VINA RESULT:      -3.8      2.877      3.723
REMARK  Name = ZINC00000922
REMARK                            x       y       z     vdW  Elec       q    Type
REMARK                         _______ _______ _______ _____ _____    ______ ____
ROOT
ATOM      1  C   LIG    1       22.795  29.214  57.799  0.00  0.00    +0.024 A 
ATOM      2  C   LIG    1       22.486  28.980  56.490  0.00  0.00    +0.020 A 
ATOM      3  C   LIG    1       22.856  29.905  55.507  0.00  0.00    +0.100 A 
ATOM      4  C   LIG    1       23.548  31.073  55.872  0.00  0.00    +0.133 A 
ATOM      5  C   LIG    1       23.855  31.299  57.201  0.00  0.00    +0.069 A 
ATOM      6  C   LIG    1       23.481  30.371  58.166  0.00  0.00    +0.028 A 
ENDROOT
BRANCH   6   7
ATOM      7  N   LIG    1       23.790  30.598  59.501  0.00  0.00    -0.358 N 
ATOM      8  H   LIG    1       24.613  31.053  59.737  0.00  0.00    +0.142 HD
ATOM      9  H   LIG    1       23.183  30.301  60.197  0.00  0.00    +0.142 HD
ENDBRANCH   6   7
BRANCH   3  10
ATOM     10  C   LIG    1       22.524  29.655  54.099  0.00  0.00    +0.340 C 
ATOM     11  O   LIG    1       23.417  29.579  53.264  0.00  0.00    -0.245 OA
BRANCH  10  12
ATOM     12  O   LIG    1       21.356  29.525  53.758  0.00  0.00    -0.477 OA
ATOM     13  H   LIG    1       20.684  30.010  54.196  0.00  0.00    +0.295 HD
ENDBRANCH  10  12
ENDBRANCH   3  10
BRANCH   4  14
ATOM     14  O   LIG    1       23.911  31.975  54.926  0.00  0.00    -0.506 OA
ATOM     15  H   LIG    1       24.867  32.067  54.816  0.00  0.00    +0.292 HD
ENDBRANCH   4  14
TORSDOF 4
