REMARK VINA RESULT:      -3.8      0.936      2.045
REMARK  Name = ZINC00000922
REMARK                            x       y       z     vdW  Elec       q    Type
REMARK                         _______ _______ _______ _____ _____    ______ ____
ROOT
ATOM      1  C   LIG    1       23.574  29.297  56.658  0.00  0.00    +0.024 A 
ATOM      2  C   LIG    1       24.394  30.385  56.571  0.00  0.00    +0.020 A 
ATOM      3  C   LIG    1       24.565  31.038  55.345  0.00  0.00    +0.100 A 
ATOM      4  C   LIG    1       23.890  30.568  54.204  0.00  0.00    +0.133 A 
ATOM      5  C   LIG    1       23.063  29.465  54.304  0.00  0.00    +0.069 A 
ATOM      6  C   LIG    1       22.903  28.828  55.529  0.00  0.00    +0.028 A 
ENDROOT
BRANCH   6   7
ATOM      7  N   LIG    1       22.072  27.720  55.630  0.00  0.00    -0.358 N 
ATOM      8  H   LIG    1       22.397  26.844  55.369  0.00  0.00    +0.142 HD
ATOM      9  H   LIG    1       21.165  27.821  55.961  0.00  0.00    +0.142 HD
ENDBRANCH   6   7
BRANCH   3  10
ATOM     10  C   LIG    1       25.446  32.208  55.250  0.00  0.00    +0.340 C 
ATOM     11  O   LIG    1       26.370  32.214  54.446  0.00  0.00    -0.245 OA
BRANCH  10  12
ATOM     12  O   LIG    1       25.259  33.176  55.975  0.00  0.00    -0.477 OA
ATOM     13  H   LIG    1       25.666  33.996  55.775  0.00  0.00    +0.295 HD
ENDBRANCH  10  12
ENDBRANCH   3  10
BRANCH   4  14
ATOM     14  O   LIG    1       24.050  31.195  53.011  0.00  0.00    -0.506 OA
ATOM     15  H   LIG    1       23.976  30.608  52.246  0.00  0.00    +0.292 HD
ENDBRANCH   4  14
TORSDOF 4
