REMARK VINA RESULT:      -3.8      3.203      4.229
REMARK  Name = ZINC00000922
REMARK                            x       y       z     vdW  Elec       q    Type
REMARK                         _______ _______ _______ _____ _____    ______ ____
ROOT
ATOM      1  C   LIG    1       26.972  32.655  54.354  0.00  0.00    +0.024 A 
ATOM      2  C   LIG    1       25.780  32.032  54.122  0.00  0.00    +0.020 A 
ATOM      3  C   LIG    1       25.073  31.452  55.182  0.00  0.00    +0.100 A 
ATOM      4  C   LIG    1       25.595  31.514  56.486  0.00  0.00    +0.133 A 
ATOM      5  C   LIG    1       26.804  32.148  56.709  0.00  0.00    +0.069 A 
ATOM      6  C   LIG    1       27.494  32.719  55.646  0.00  0.00    +0.028 A 
ENDROOT
BRANCH   6   7
ATOM      7  N   LIG    1       28.708  33.355  55.871  0.00  0.00    -0.358 N 
ATOM      8  H   LIG    1       29.133  33.295  56.740  0.00  0.00    +0.142 HD
ATOM      9  H   LIG    1       29.131  33.859  55.158  0.00  0.00    +0.142 HD
ENDBRANCH   6   7
BRANCH   3  10
ATOM     10  C   LIG    1       23.791  30.782  54.933  0.00  0.00    +0.340 C 
ATOM     11  O   LIG    1       23.640  29.611  55.256  0.00  0.00    -0.245 OA
BRANCH  10  12
ATOM     12  O   LIG    1       22.873  31.394  54.402  0.00  0.00    -0.477 OA
ATOM     13  H   LIG    1       22.181  31.748  54.925  0.00  0.00    +0.295 HD
ENDBRANCH  10  12
ENDBRANCH   3  10
BRANCH   4  14
ATOM     14  O   LIG    1       24.917  30.956  57.520  0.00  0.00    -0.506 OA
ATOM     15  H   LIG    1       24.831  31.532  58.291  0.00  0.00    +0.292 HD
ENDBRANCH   4  14
TORSDOF 4
