REMARK VINA RESULT:      -4.0      0.000      0.000
REMARK  Name = ZINC00000922
REMARK                            x       y       z     vdW  Elec       q    Type
REMARK                         _______ _______ _______ _____ _____    ______ ____
ROOT
ATOM      1  C   LIG    1       22.995  29.718  54.120  0.00  0.00    +0.024 A 
ATOM      2  C   LIG    1       23.859  30.774  54.104  0.00  0.00    +0.020 A 
ATOM      3  C   LIG    1       24.535  31.146  55.272  0.00  0.00    +0.100 A 
ATOM      4  C   LIG    1       24.320  30.426  56.461  0.00  0.00    +0.133 A 
ATOM      5  C   LIG    1       23.442  29.358  56.465  0.00  0.00    +0.069 A 
ATOM      6  C   LIG    1       22.779  29.002  55.296  0.00  0.00    +0.028 A 
ENDROOT
BRANCH   6   7
ATOM      7  N   LIG    1       21.897  27.929  55.300  0.00  0.00    -0.358 N 
ATOM      8  H   LIG    1       22.201  27.050  55.024  0.00  0.00    +0.142 HD
ATOM      9  H   LIG    1       20.976  28.058  55.580  0.00  0.00    +0.142 HD
ENDBRANCH   6   7
BRANCH   3  10
ATOM     10  C   LIG    1       25.464  32.282  55.257  0.00  0.00    +0.340 C 
ATOM     11  O   LIG    1       26.433  32.269  54.508  0.00  0.00    -0.245 OA
BRANCH  10  12
ATOM     12  O   LIG    1       25.272  33.241  55.992  0.00  0.00    -0.477 OA
ATOM     13  H   LIG    1       24.725  33.946  55.708  0.00  0.00    +0.295 HD
ENDBRANCH  10  12
ENDBRANCH   3  10
BRANCH   4  14
ATOM     14  O   LIG    1       24.970  30.778  57.599  0.00  0.00    -0.506 OA
ATOM     15  H   LIG    1       24.798  31.686  57.885  0.00  0.00    +0.292 HD
ENDBRANCH   4  14
TORSDOF 4
