REMARK VINA RESULT:      -5.1      0.000      0.000
REMARK  Name = ZINC00000934
REMARK                            x       y       z     vdW  Elec       q    Type
REMARK                         _______ _______ _______ _____ _____    ______ ____
ROOT
ATOM      1  C   LIG    1       25.787  31.975  55.025  0.00  0.00    +0.131 A 
ATOM      2  N   LIG    1       26.035  31.739  56.298  0.00  0.00    -0.240 NA
ATOM      3  C   LIG    1       25.102  31.236  57.093  0.00  0.00    +0.121 A 
ATOM      4  C   LIG    1       23.853  30.956  56.573  0.00  0.00    +0.024 A 
ATOM      5  C   LIG    1       23.624  31.218  55.221  0.00  0.00    +0.124 A 
ATOM      6  N   LIG    1       24.610  31.728  54.488  0.00  0.00    -0.217 NA
ENDROOT
BRANCH   5   7
ATOM      7  N   LIG    1       22.388  30.954  54.653  0.00  0.00    -0.343 N 
ATOM      8  H   LIG    1       21.822  30.260  55.026  0.00  0.00    +0.144 HD
ATOM      9  H   LIG    1       22.090  31.462  53.883  0.00  0.00    +0.144 HD
ENDBRANCH   5   7
BRANCH   1  10
ATOM     10  C   LIG    1       26.881  32.548  54.160  0.00  0.00    +0.076 C 
BRANCH  10  12
ATOM     11  C   LIG    1       27.189  34.856  55.065  0.00  0.00    +0.004 C 
ATOM     12  C   LIG    1       27.782  33.448  55.007  0.00  0.00    +0.004 C 
ENDBRANCH  10  12
ENDBRANCH   1  10
BRANCH   4  13
ATOM     13  C   LIG    1       22.765  30.382  57.444  0.00  0.00    +0.124 C 
BRANCH  13  14
ATOM     14  N   LIG    1       22.437  31.335  58.507  0.00  0.00    -0.295 NA
ATOM     15  C   LIG    1       21.863  32.480  58.190  0.00  0.00    +0.085 C 
ATOM     16  C   LIG    1       21.540  33.402  59.166  0.00  0.00    +0.015 C 
ATOM     17  C   LIG    1       21.826  33.113  60.491  0.00  0.00    +0.003 C 
ATOM     18  C   LIG    1       22.429  31.900  60.786  0.00  0.00    +0.019 C 
ATOM     19  C   LIG    1       22.719  31.024  59.758  0.00  0.00    +0.054 C 
ATOM     20  C   LIG    1       23.370  29.701  60.067  0.00  0.00    +0.024 C 
ENDBRANCH  13  14
ENDBRANCH   4  13
TORSDOF 5
