REMARK VINA RESULT:      -4.7      1.897      3.120
REMARK  Name = ZINC00000934
REMARK                            x       y       z     vdW  Elec       q    Type
REMARK                         _______ _______ _______ _____ _____    ______ ____
ROOT
ATOM      1  C   LIG    1       25.573  31.538  55.935  0.00  0.00    +0.131 A 
ATOM      2  N   LIG    1       24.568  31.836  55.136  0.00  0.00    -0.240 NA
ATOM      3  C   LIG    1       23.315  31.758  55.558  0.00  0.00    +0.121 A 
ATOM      4  C   LIG    1       23.064  31.357  56.856  0.00  0.00    +0.024 A 
ATOM      5  C   LIG    1       24.151  31.048  57.676  0.00  0.00    +0.124 A 
ATOM      6  N   LIG    1       25.381  31.146  57.178  0.00  0.00    -0.217 NA
ENDROOT
BRANCH   5   7
ATOM      7  N   LIG    1       23.951  30.642  58.986  0.00  0.00    -0.343 N 
ATOM      8  H   LIG    1       24.244  31.207  59.718  0.00  0.00    +0.144 HD
ATOM      9  H   LIG    1       23.521  29.793  59.169  0.00  0.00    +0.144 HD
ENDBRANCH   5   7
BRANCH   1  10
ATOM     10  C   LIG    1       26.982  31.641  55.410  0.00  0.00    +0.076 C 
BRANCH  10  12
ATOM     11  C   LIG    1       27.599  33.969  54.746  0.00  0.00    +0.004 C 
ATOM     12  C   LIG    1       27.024  32.641  54.253  0.00  0.00    +0.004 C 
ENDBRANCH  10  12
ENDBRANCH   1  10
BRANCH   4  13
ATOM     13  C   LIG    1       21.652  31.256  57.375  0.00  0.00    +0.124 C 
BRANCH  13  14
ATOM     14  N   LIG    1       21.002  32.565  57.276  0.00  0.00    -0.295 NA
ATOM     15  C   LIG    1       21.540  33.599  57.893  0.00  0.00    +0.085 C 
ATOM     16  C   LIG    1       20.954  34.848  57.821  0.00  0.00    +0.015 C 
ATOM     17  C   LIG    1       19.787  35.007  57.090  0.00  0.00    +0.003 C 
ATOM     18  C   LIG    1       19.251  33.897  56.454  0.00  0.00    +0.019 C 
ATOM     19  C   LIG    1       19.895  32.680  56.567  0.00  0.00    +0.054 C 
ATOM     20  C   LIG    1       19.325  31.468  55.876  0.00  0.00    +0.024 C 
ENDBRANCH  13  14
ENDBRANCH   4  13
TORSDOF 5
