REMARK VINA RESULT:      -4.9      2.327      3.960
REMARK  Name = ZINC00000934
REMARK                            x       y       z     vdW  Elec       q    Type
REMARK                         _______ _______ _______ _____ _____    ______ ____
ROOT
ATOM      1  C   LIG    1       25.469  31.568  56.055  0.00  0.00    +0.131 A 
ATOM      2  N   LIG    1       24.442  31.824  55.269  0.00  0.00    -0.240 NA
ATOM      3  C   LIG    1       23.198  31.674  55.700  0.00  0.00    +0.121 A 
ATOM      4  C   LIG    1       22.981  31.243  56.995  0.00  0.00    +0.024 A 
ATOM      5  C   LIG    1       24.090  30.980  57.800  0.00  0.00    +0.124 A 
ATOM      6  N   LIG    1       25.308  31.150  57.294  0.00  0.00    -0.217 NA
ENDROOT
BRANCH   5   7
ATOM      7  N   LIG    1       23.925  30.545  59.106  0.00  0.00    -0.343 N 
ATOM      8  H   LIG    1       24.592  30.761  59.776  0.00  0.00    +0.144 HD
ATOM      9  H   LIG    1       23.143  30.025  59.348  0.00  0.00    +0.144 HD
ENDBRANCH   5   7
BRANCH   1  10
ATOM     10  C   LIG    1       26.865  31.753  55.519  0.00  0.00    +0.076 C 
BRANCH  10  12
ATOM     11  C   LIG    1       27.439  34.043  54.702  0.00  0.00    +0.004 C 
ATOM     12  C   LIG    1       26.829  32.695  54.314  0.00  0.00    +0.004 C 
ENDBRANCH  10  12
ENDBRANCH   1  10
BRANCH   4  13
ATOM     13  C   LIG    1       21.581  31.060  57.524  0.00  0.00    +0.124 C 
BRANCH  13  14
ATOM     14  N   LIG    1       20.947  29.929  56.844  0.00  0.00    -0.295 NA
ATOM     15  C   LIG    1       21.487  28.730  56.949  0.00  0.00    +0.085 C 
ATOM     16  C   LIG    1       20.915  27.640  56.322  0.00  0.00    +0.015 C 
ATOM     17  C   LIG    1       19.761  27.818  55.575  0.00  0.00    +0.003 C 
ATOM     18  C   LIG    1       19.221  29.092  55.488  0.00  0.00    +0.019 C 
ATOM     19  C   LIG    1       19.846  30.134  56.146  0.00  0.00    +0.054 C 
ATOM     20  C   LIG    1       19.266  31.523  56.063  0.00  0.00    +0.024 C 
ENDBRANCH  13  14
ENDBRANCH   4  13
TORSDOF 5
