REMARK VINA RESULT:      -4.9      1.986      2.706
REMARK  Name = ZINC00000934
REMARK                            x       y       z     vdW  Elec       q    Type
REMARK                         _______ _______ _______ _____ _____    ______ ____
ROOT
ATOM      1  C   LIG    1       26.051  31.887  55.272  0.00  0.00    +0.131 A 
ATOM      2  N   LIG    1       25.867  31.830  56.576  0.00  0.00    -0.240 NA
ATOM      3  C   LIG    1       24.704  31.450  57.085  0.00  0.00    +0.121 A 
ATOM      4  C   LIG    1       23.674  31.109  56.231  0.00  0.00    +0.024 A 
ATOM      5  C   LIG    1       23.901  31.180  54.856  0.00  0.00    +0.124 A 
ATOM      6  N   LIG    1       25.094  31.575  54.421  0.00  0.00    -0.217 NA
ENDROOT
BRANCH   5   7
ATOM      7  N   LIG    1       22.899  30.847  53.959  0.00  0.00    -0.343 N 
ATOM      8  H   LIG    1       22.208  30.217  54.216  0.00  0.00    +0.144 HD
ATOM      9  H   LIG    1       22.889  31.244  53.075  0.00  0.00    +0.144 HD
ENDBRANCH   5   7
BRANCH   1  10
ATOM     10  C   LIG    1       27.391  32.326  54.739  0.00  0.00    +0.076 C 
BRANCH  10  12
ATOM     11  C   LIG    1       27.224  34.802  55.024  0.00  0.00    +0.004 C 
ATOM     12  C   LIG    1       27.891  33.527  55.543  0.00  0.00    +0.004 C 
ENDBRANCH  10  12
ENDBRANCH   1  10
BRANCH   4  13
ATOM     13  C   LIG    1       22.336  30.671  56.772  0.00  0.00    +0.124 C 
BRANCH  13  14
ATOM     14  N   LIG    1       21.340  31.713  56.512  0.00  0.00    -0.295 NA
ATOM     15  C   LIG    1       21.651  32.972  56.751  0.00  0.00    +0.085 C 
ATOM     16  C   LIG    1       20.737  33.982  56.517  0.00  0.00    +0.015 C 
ATOM     17  C   LIG    1       19.481  33.657  56.028  0.00  0.00    +0.003 C 
ATOM     18  C   LIG    1       19.191  32.323  55.788  0.00  0.00    +0.019 C 
ATOM     19  C   LIG    1       20.157  31.368  56.041  0.00  0.00    +0.054 C 
ATOM     20  C   LIG    1       19.855  29.915  55.780  0.00  0.00    +0.024 C 
ENDBRANCH  13  14
ENDBRANCH   4  13
TORSDOF 5
