REMARK VINA RESULT:      -5.0      2.801      3.576
REMARK  Name = ZINC00000934
REMARK                            x       y       z     vdW  Elec       q    Type
REMARK                         _______ _______ _______ _____ _____    ______ ____
ROOT
ATOM      1  C   LIG    1       25.426  31.356  55.612  0.00  0.00    +0.131 A 
ATOM      2  N   LIG    1       24.870  31.558  54.434  0.00  0.00    -0.240 NA
ATOM      3  C   LIG    1       23.771  30.910  54.079  0.00  0.00    +0.121 A 
ATOM      4  C   LIG    1       23.204  30.010  54.960  0.00  0.00    +0.024 A 
ATOM      5  C   LIG    1       23.818  29.819  56.199  0.00  0.00    +0.124 A 
ATOM      6  N   LIG    1       24.923  30.504  56.482  0.00  0.00    -0.217 NA
ENDROOT
BRANCH   5   7
ATOM      7  N   LIG    1       23.288  28.927  57.118  0.00  0.00    -0.343 N 
ATOM      8  H   LIG    1       23.638  28.898  58.022  0.00  0.00    +0.144 HD
ATOM      9  H   LIG    1       22.567  28.334  56.857  0.00  0.00    +0.144 HD
ENDBRANCH   5   7
BRANCH   1  10
ATOM     10  C   LIG    1       26.677  32.117  55.972  0.00  0.00    +0.076 C 
BRANCH  10  12
ATOM     11  C   LIG    1       27.440  34.248  54.915  0.00  0.00    +0.004 C 
ATOM     12  C   LIG    1       27.274  32.742  54.710  0.00  0.00    +0.004 C 
ENDBRANCH  10  12
ENDBRANCH   1  10
BRANCH   4  13
ATOM     13  C   LIG    1       21.953  29.252  54.594  0.00  0.00    +0.124 C 
BRANCH  13  14
ATOM     14  N   LIG    1       20.794  29.892  55.221  0.00  0.00    -0.295 NA
ATOM     15  C   LIG    1       20.699  31.207  55.206  0.00  0.00    +0.085 C 
ATOM     16  C   LIG    1       19.620  31.845  55.787  0.00  0.00    +0.015 C 
ATOM     17  C   LIG    1       18.630  31.084  56.391  0.00  0.00    +0.003 C 
ATOM     18  C   LIG    1       18.764  29.704  56.386  0.00  0.00    +0.019 C 
ATOM     19  C   LIG    1       19.869  29.136  55.781  0.00  0.00    +0.054 C 
ATOM     20  C   LIG    1       20.022  27.638  55.765  0.00  0.00    +0.024 C 
ENDBRANCH  13  14
ENDBRANCH   4  13
TORSDOF 5
