MODEL 1
REMARK VINA RESULT:      -6.3      0.000      0.000
REMARK  Name = ZINC00000883
REMARK                            x       y       z     vdW  Elec       q    Type
REMARK                         _______ _______ _______ _____ _____    ______ ____
ROOT
ATOM      1  C   LIG    1       28.415  32.474  55.875  0.00  0.00    +0.025 C 
ATOM      2  C   LIG    1       27.120  32.840  55.147  0.00  0.00    +0.068 C 
ATOM      3  C   LIG    1       27.326  32.792  53.632  0.00  0.00    +0.025 C 
ATOM      4  C   LIG    1       26.000  31.913  55.561  0.00  0.00    -0.010 A 
ATOM      5  C   LIG    1       25.832  30.554  55.452  0.00  0.00    +0.034 A 
ATOM      6  C   LIG    1       24.672  29.961  55.933  0.00  0.00    +0.067 A 
ATOM      7  C   LIG    1       23.675  30.755  56.530  0.00  0.00    +0.091 A 
ATOM      8  N   LIG    1       22.672  29.923  56.901  0.00  0.00    -0.228 NA
ATOM      9  C   LIG    1       22.978  28.691  56.578  0.00  0.00    +0.139 A 
ATOM     10  C   LIG    1       23.862  32.136  56.634  0.00  0.00    +0.053 A 
ATOM     11  N   LIG    1       24.207  28.660  55.977  0.00  0.00    -0.338 N 
ATOM     12  H   LIG    1       24.665  27.874  55.642  0.00  0.00    +0.167 HD
ATOM     13  C   LIG    1       25.024  32.718  56.150  0.00  0.00    +0.040 A 
ATOM     14  N   LIG    1       25.433  34.054  56.139  0.00  0.00    -0.284 N 
ATOM     15  H   LIG    1       24.906  34.784  56.499  0.00  0.00    +0.155 HD
ATOM     16  C   LIG    1       26.642  34.211  55.573  0.00  0.00    +0.227 C 
ATOM     17  O   LIG    1       27.237  35.258  55.430  0.00  0.00    -0.275 OA
ENDROOT
BRANCH   9  18
ATOM     18  C   LIG    1       22.124  27.509  56.827  0.00  0.00    +0.020 A 
ATOM     19  C   LIG    1       20.767  27.518  56.488  0.00  0.00    +0.031 A 
ATOM     20  C   LIG    1       20.007  26.394  56.739  0.00  0.00    +0.111 A 
ATOM     21  N   LIG    1       20.543  25.322  57.291  0.00  0.00    -0.263 NA
ATOM     22  C   LIG    1       21.818  25.272  57.627  0.00  0.00    +0.111 A 
ATOM     23  C   LIG    1       22.652  26.349  57.406  0.00  0.00    +0.031 A 
ENDBRANCH   9  18
TORSDOF 1
ENDMDL
MODEL 2
REMARK VINA RESULT:      -6.2      3.571      7.686
REMARK  Name = ZINC00000883
REMARK                            x       y       z     vdW  Elec       q    Type
REMARK                         _______ _______ _______ _____ _____    ______ ____
ROOT
ATOM      1  C   LIG    1       18.908  29.503  58.024  0.00  0.00    +0.025 C 
ATOM      2  C   LIG    1       18.996  29.984  56.574  0.00  0.00    +0.068 C 
ATOM      3  C   LIG    1       18.088  31.197  56.358  0.00  0.00    +0.025 C 
ATOM      4  C   LIG    1       20.426  30.319  56.214  0.00  0.00    -0.010 A 
ATOM      5  C   LIG    1       21.318  31.238  56.710  0.00  0.00    +0.034 A 
ATOM      6  C   LIG    1       22.594  31.323  56.170  0.00  0.00    +0.067 A 
ATOM      7  C   LIG    1       22.968  30.467  55.118  0.00  0.00    +0.091 A 
ATOM      8  N   LIG    1       24.249  30.767  54.795  0.00  0.00    -0.228 NA
ATOM      9  C   LIG    1       24.682  31.735  55.564  0.00  0.00    +0.139 A 
ATOM     10  C   LIG    1       22.049  29.537  54.624  0.00  0.00    +0.053 A 
ATOM     11  N   LIG    1       23.697  32.113  56.434  0.00  0.00    -0.338 N 
ATOM     12  H   LIG    1       23.758  32.808  57.108  0.00  0.00    +0.167 HD
ATOM     13  C   LIG    1       20.776  29.461  55.170  0.00  0.00    +0.040 A 
ATOM     14  N   LIG    1       19.700  28.629  54.851  0.00  0.00    -0.284 N 
ATOM     15  H   LIG    1       19.726  27.955  54.154  0.00  0.00    +0.155 HD
ATOM     16  C   LIG    1       18.626  28.869  55.622  0.00  0.00    +0.227 C 
ATOM     17  O   LIG    1       17.557  28.297  55.563  0.00  0.00    -0.275 OA
ENDROOT
BRANCH   9  18
ATOM     18  C   LIG    1       26.037  32.328  55.504  0.00  0.00    +0.020 A 
ATOM     19  C   LIG    1       27.165  31.525  55.301  0.00  0.00    +0.031 A 
ATOM     20  C   LIG    1       28.409  32.120  55.252  0.00  0.00    +0.111 A 
ATOM     21  N   LIG    1       28.543  33.425  55.393  0.00  0.00    -0.263 NA
ATOM     22  C   LIG    1       27.506  34.217  55.587  0.00  0.00    +0.111 A 
ATOM     23  C   LIG    1       26.225  33.708  55.643  0.00  0.00    +0.031 A 
ENDBRANCH   9  18
TORSDOF 1
ENDMDL
MODEL 3
REMARK VINA RESULT:      -5.7      3.681      5.270
REMARK  Name = ZINC00000883
REMARK                            x       y       z     vdW  Elec       q    Type
REMARK                         _______ _______ _______ _____ _____    ______ ____
ROOT
ATOM      1  C   LIG    1       24.295  29.258  55.746  0.00  0.00    +0.025 C 
ATOM      2  C   LIG    1       23.369  30.261  55.056  0.00  0.00    +0.068 C 
ATOM      3  C   LIG    1       23.684  30.338  53.560  0.00  0.00    +0.025 C 
ATOM      4  C   LIG    1       21.921  29.883  55.276  0.00  0.00    -0.010 A 
ATOM      5  C   LIG    1       21.190  28.772  54.933  0.00  0.00    +0.034 A 
ATOM      6  C   LIG    1       19.846  28.698  55.274  0.00  0.00    +0.067 A 
ATOM      7  C   LIG    1       19.240  29.761  55.970  0.00  0.00    +0.091 A 
ATOM      8  N   LIG    1       17.944  29.422  56.166  0.00  0.00    -0.228 NA
ATOM      9  C   LIG    1       17.713  28.241  55.647  0.00  0.00    +0.139 A 
ATOM     10  C   LIG    1       19.998  30.884  56.311  0.00  0.00    +0.053 A 
ATOM     11  N   LIG    1       18.859  27.750  55.084  0.00  0.00    -0.338 N 
ATOM     12  H   LIG    1       18.960  26.897  54.633  0.00  0.00    +0.167 HD
ATOM     13  C   LIG    1       21.340  30.947  55.965  0.00  0.00    +0.040 A 
ATOM     14  N   LIG    1       22.289  31.948  56.192  0.00  0.00    -0.284 N 
ATOM     15  H   LIG    1       22.099  32.778  56.655  0.00  0.00    +0.155 HD
ATOM     16  C   LIG    1       23.495  31.627  55.694  0.00  0.00    +0.227 C 
ATOM     17  O   LIG    1       24.499  32.307  55.747  0.00  0.00    -0.275 OA
ENDROOT
BRANCH   9  18
ATOM     18  C   LIG    1       16.409  27.542  55.669  0.00  0.00    +0.020 A 
ATOM     19  C   LIG    1       16.312  26.215  56.100  0.00  0.00    +0.031 A 
ATOM     20  C   LIG    1       15.075  25.601  56.104  0.00  0.00    +0.111 A 
ATOM     21  N   LIG    1       13.996  26.248  55.708  0.00  0.00    -0.263 NA
ATOM     22  C   LIG    1       14.044  27.500  55.294  0.00  0.00    +0.111 A 
ATOM     23  C   LIG    1       15.237  28.192  55.263  0.00  0.00    +0.031 A 
ENDBRANCH   9  18
TORSDOF 1
ENDMDL
MODEL 4
REMARK VINA RESULT:      -5.5      5.391      7.738
REMARK  Name = ZINC00000883
REMARK                            x       y       z     vdW  Elec       q    Type
REMARK                         _______ _______ _______ _____ _____    ______ ____
ROOT
ATOM      1  C   LIG    1       24.748  31.550  54.674  0.00  0.00    +0.025 C 
ATOM      2  C   LIG    1       23.531  30.864  55.299  0.00  0.00    +0.068 C 
ATOM      3  C   LIG    1       23.929  30.136  56.584  0.00  0.00    +0.025 C 
ATOM      4  C   LIG    1       22.439  31.873  55.575  0.00  0.00    -0.010 A 
ATOM      5  C   LIG    1       22.386  32.987  56.376  0.00  0.00    +0.034 A 
ATOM      6  C   LIG    1       21.221  33.741  56.433  0.00  0.00    +0.067 A 
ATOM      7  C   LIG    1       20.102  33.360  55.670  0.00  0.00    +0.091 A 
ATOM      8  N   LIG    1       19.124  34.264  55.918  0.00  0.00    -0.228 NA
ATOM      9  C   LIG    1       19.557  35.161  56.769  0.00  0.00    +0.139 A 
ATOM     10  C   LIG    1       20.172  32.224  54.860  0.00  0.00    +0.053 A 
ATOM     11  N   LIG    1       20.851  34.883  57.118  0.00  0.00    -0.338 N 
ATOM     12  H   LIG    1       21.404  35.391  57.732  0.00  0.00    +0.167 HD
ATOM     13  C   LIG    1       21.341  31.478  54.811  0.00  0.00    +0.040 A 
ATOM     14  N   LIG    1       21.649  30.321  54.089  0.00  0.00    -0.284 N 
ATOM     15  H   LIG    1       21.028  29.876  53.492  0.00  0.00    +0.155 HD
ATOM     16  C   LIG    1       22.904  29.900  54.316  0.00  0.00    +0.227 C 
ATOM     17  O   LIG    1       23.435  28.926  53.824  0.00  0.00    -0.275 OA
ENDROOT
BRANCH   9  18
ATOM     18  C   LIG    1       18.767  36.306  57.275  0.00  0.00    +0.020 A 
ATOM     19  C   LIG    1       19.383  37.356  57.964  0.00  0.00    +0.031 A 
ATOM     20  C   LIG    1       18.608  38.403  58.419  0.00  0.00    +0.111 A 
ATOM     21  N   LIG    1       17.306  38.422  58.213  0.00  0.00    -0.263 NA
ATOM     22  C   LIG    1       16.685  37.452  57.569  0.00  0.00    +0.111 A 
ATOM     23  C   LIG    1       17.383  36.369  57.075  0.00  0.00    +0.031 A 
ENDBRANCH   9  18
TORSDOF 1
ENDMDL
MODEL 5
REMARK VINA RESULT:      -5.4      5.098      6.164
REMARK  Name = ZINC00000883
REMARK                            x       y       z     vdW  Elec       q    Type
REMARK                         _______ _______ _______ _____ _____    ______ ____
ROOT
ATOM      1  C   LIG    1       23.770  29.296  56.063  0.00  0.00    +0.025 C 
ATOM      2  C   LIG    1       23.426  30.514  55.203  0.00  0.00    +0.068 C 
ATOM      3  C   LIG    1       23.395  30.131  53.722  0.00  0.00    +0.025 C 
ATOM      4  C   LIG    1       22.101  31.105  55.629  0.00  0.00    -0.010 A 
ATOM      5  C   LIG    1       20.824  30.599  55.654  0.00  0.00    +0.034 A 
ATOM      6  C   LIG    1       19.777  31.391  56.106  0.00  0.00    +0.067 A 
ATOM      7  C   LIG    1       20.029  32.706  56.536  0.00  0.00    +0.091 A 
ATOM      8  N   LIG    1       18.841  33.235  56.917  0.00  0.00    -0.228 NA
ATOM      9  C   LIG    1       17.890  32.349  56.752  0.00  0.00    +0.139 A 
ATOM     10  C   LIG    1       21.333  33.206  56.504  0.00  0.00    +0.053 A 
ATOM     11  N   LIG    1       18.418  31.189  56.254  0.00  0.00    -0.338 N 
ATOM     12  H   LIG    1       17.930  30.379  56.042  0.00  0.00    +0.167 HD
ATOM     13  C   LIG    1       22.372  32.407  56.051  0.00  0.00    +0.040 A 
ATOM     14  N   LIG    1       23.738  32.678  55.926  0.00  0.00    -0.284 N 
ATOM     15  H   LIG    1       24.144  33.525  56.164  0.00  0.00    +0.155 HD
ATOM     16  C   LIG    1       24.422  31.628  55.441  0.00  0.00    +0.227 C 
ATOM     17  O   LIG    1       25.616  31.584  55.232  0.00  0.00    -0.275 OA
ENDROOT
BRANCH   9  18
ATOM     18  C   LIG    1       16.460  32.568  57.062  0.00  0.00    +0.020 A 
ATOM     19  C   LIG    1       15.914  33.856  57.064  0.00  0.00    +0.031 A 
ATOM     20  C   LIG    1       14.575  34.015  57.360  0.00  0.00    +0.111 A 
ATOM     21  N   LIG    1       13.814  32.975  57.637  0.00  0.00    -0.263 NA
ATOM     22  C   LIG    1       14.289  31.743  57.647  0.00  0.00    +0.111 A 
ATOM     23  C   LIG    1       15.615  31.493  57.357  0.00  0.00    +0.031 A 
ENDBRANCH   9  18
TORSDOF 1
ENDMDL
