REMARK VINA RESULT:      -3.8      0.000      0.000
REMARK  Name = ZINC00000920
REMARK                            x       y       z     vdW  Elec       q    Type
REMARK                         _______ _______ _______ _____ _____    ______ ____
ROOT
ATOM      1  C   LIG    1       24.823  30.318  56.216  0.00  0.00    +0.017 A 
ATOM      2  C   LIG    1       23.993  29.233  56.231  0.00  0.00    +0.023 A 
ATOM      3  C   LIG    1       23.132  28.999  55.161  0.00  0.00    +0.025 A 
ATOM      4  C   LIG    1       23.116  29.868  54.072  0.00  0.00    +0.023 A 
ATOM      5  C   LIG    1       23.944  30.953  54.050  0.00  0.00    +0.017 A 
ATOM      6  C   LIG    1       24.810  31.193  55.124  0.00  0.00    +0.059 A 
ENDROOT
BRANCH   3   7
ATOM      7  N   LIG    1       22.289  27.896  55.178  0.00  0.00    -0.358 N 
ATOM      8  H   LIG    1       21.326  28.020  55.200  0.00  0.00    +0.142 HD
ATOM      9  H   LIG    1       22.661  27.000  55.171  0.00  0.00    +0.142 HD
ENDBRANCH   3   7
BRANCH   6  10
ATOM     10  C   LIG    1       25.703  32.362  55.105  0.00  0.00    +0.337 C 
ATOM     11  O   LIG    1       26.624  32.414  54.303  0.00  0.00    -0.245 OA
BRANCH  10  12
ATOM     12  O   LIG    1       25.523  33.282  55.891  0.00  0.00    -0.477 OA
ATOM     13  H   LIG    1       26.219  33.884  56.074  0.00  0.00    +0.295 HD
ENDBRANCH  10  12
ENDBRANCH   6  10
TORSDOF 3
