REMARK VINA RESULT:      -3.6      1.607      1.700
REMARK  Name = ZINC00000920
REMARK                            x       y       z     vdW  Elec       q    Type
REMARK                         _______ _______ _______ _____ _____    ______ ____
ROOT
ATOM      1  C   LIG    1       23.514  32.125  56.110  0.00  0.00    +0.017 A 
ATOM      2  C   LIG    1       22.294  31.562  55.862  0.00  0.00    +0.023 A 
ATOM      3  C   LIG    1       22.124  30.723  54.763  0.00  0.00    +0.025 A 
ATOM      4  C   LIG    1       23.195  30.454  53.914  0.00  0.00    +0.023 A 
ATOM      5  C   LIG    1       24.418  31.013  54.157  0.00  0.00    +0.017 A 
ATOM      6  C   LIG    1       24.593  31.857  55.260  0.00  0.00    +0.059 A 
ENDROOT
BRANCH   3   7
ATOM      7  N   LIG    1       20.883  30.152  54.513  0.00  0.00    -0.358 N 
ATOM      8  H   LIG    1       20.341  29.826  55.249  0.00  0.00    +0.142 HD
ATOM      9  H   LIG    1       20.558  30.077  53.602  0.00  0.00    +0.142 HD
ENDBRANCH   3   7
BRANCH   6  10
ATOM     10  C   LIG    1       25.908  32.462  55.524  0.00  0.00    +0.337 C 
ATOM     11  O   LIG    1       26.910  31.761  55.545  0.00  0.00    -0.245 OA
BRANCH  10  12
ATOM     12  O   LIG    1       25.999  33.666  55.721  0.00  0.00    -0.477 OA
ATOM     13  H   LIG    1       26.145  34.248  55.000  0.00  0.00    +0.295 HD
ENDBRANCH  10  12
ENDBRANCH   6  10
TORSDOF 3
