REMARK VINA RESULT:      -3.6      3.444      4.077
REMARK  Name = ZINC00000920
REMARK                            x       y       z     vdW  Elec       q    Type
REMARK                         _______ _______ _______ _____ _____    ______ ____
ROOT
ATOM      1  C   LIG    1       23.692  30.006  56.474  0.00  0.00    +0.017 A 
ATOM      2  C   LIG    1       24.742  30.769  56.900  0.00  0.00    +0.023 A 
ATOM      3  C   LIG    1       25.398  31.614  56.006  0.00  0.00    +0.025 A 
ATOM      4  C   LIG    1       24.985  31.683  54.677  0.00  0.00    +0.023 A 
ATOM      5  C   LIG    1       23.936  30.924  54.246  0.00  0.00    +0.017 A 
ATOM      6  C   LIG    1       23.275  30.073  55.140  0.00  0.00    +0.059 A 
ENDROOT
BRANCH   3   7
ATOM      7  N   LIG    1       26.465  32.388  56.441  0.00  0.00    -0.358 N 
ATOM      8  H   LIG    1       26.473  32.741  57.345  0.00  0.00    +0.142 HD
ATOM      9  H   LIG    1       27.203  32.579  55.841  0.00  0.00    +0.142 HD
ENDBRANCH   3   7
BRANCH   6  10
ATOM     10  C   LIG    1       22.144  29.252  54.679  0.00  0.00    +0.337 C 
ATOM     11  O   LIG    1       21.807  28.264  55.316  0.00  0.00    -0.245 OA
BRANCH  10  12
ATOM     12  O   LIG    1       21.542  29.558  53.659  0.00  0.00    -0.477 OA
ATOM     13  H   LIG    1       20.608  29.642  53.675  0.00  0.00    +0.295 HD
ENDBRANCH  10  12
ENDBRANCH   6  10
TORSDOF 3
