REMARK VINA RESULT:      -3.5      2.273      2.427
REMARK  Name = ZINC00000920
REMARK                            x       y       z     vdW  Elec       q    Type
REMARK                         _______ _______ _______ _____ _____    ______ ____
ROOT
ATOM      1  C   LIG    1       23.523  30.147  56.537  0.00  0.00    +0.017 A 
ATOM      2  C   LIG    1       23.901  28.893  56.148  0.00  0.00    +0.023 A 
ATOM      3  C   LIG    1       23.724  28.490  54.827  0.00  0.00    +0.025 A 
ATOM      4  C   LIG    1       23.161  29.362  53.898  0.00  0.00    +0.023 A 
ATOM      5  C   LIG    1       22.781  30.617  54.280  0.00  0.00    +0.017 A 
ATOM      6  C   LIG    1       22.957  31.026  55.607  0.00  0.00    +0.059 A 
ENDROOT
BRANCH   3   7
ATOM      7  N   LIG    1       24.110  27.215  54.434  0.00  0.00    -0.358 N 
ATOM      8  H   LIG    1       24.666  27.096  53.647  0.00  0.00    +0.142 HD
ATOM      9  H   LIG    1       23.822  26.442  54.944  0.00  0.00    +0.142 HD
ENDBRANCH   3   7
BRANCH   6  10
ATOM     10  C   LIG    1       22.548  32.377  56.024  0.00  0.00    +0.337 C 
ATOM     11  O   LIG    1       22.954  32.840  57.080  0.00  0.00    -0.245 OA
BRANCH  10  12
ATOM     12  O   LIG    1       21.802  33.036  55.313  0.00  0.00    -0.477 OA
ATOM     13  H   LIG    1       20.915  32.763  55.184  0.00  0.00    +0.295 HD
ENDBRANCH  10  12
ENDBRANCH   6  10
TORSDOF 3
