REMARK VINA RESULT:      -3.8      3.411      4.636
REMARK  Name = ZINC00000920
REMARK                            x       y       z     vdW  Elec       q    Type
REMARK                         _______ _______ _______ _____ _____    ______ ____
ROOT
ATOM      1  C   LIG    1       25.924  32.064  54.015  0.00  0.00    +0.017 A 
ATOM      2  C   LIG    1       27.152  32.611  54.257  0.00  0.00    +0.023 A 
ATOM      3  C   LIG    1       27.593  32.783  55.567  0.00  0.00    +0.025 A 
ATOM      4  C   LIG    1       26.785  32.397  56.634  0.00  0.00    +0.023 A 
ATOM      5  C   LIG    1       25.557  31.848  56.399  0.00  0.00    +0.017 A 
ATOM      6  C   LIG    1       25.110  31.674  55.084  0.00  0.00    +0.059 A 
ENDROOT
BRANCH   3   7
ATOM      7  N   LIG    1       28.841  33.341  55.810  0.00  0.00    -0.358 N 
ATOM      8  H   LIG    1       29.644  32.887  55.506  0.00  0.00    +0.142 HD
ATOM      9  H   LIG    1       28.912  34.183  56.286  0.00  0.00    +0.142 HD
ENDBRANCH   3   7
BRANCH   6  10
ATOM     10  C   LIG    1       23.787  31.084  54.826  0.00  0.00    +0.337 C 
ATOM     11  O   LIG    1       22.785  31.784  54.876  0.00  0.00    -0.245 OA
BRANCH  10  12
ATOM     12  O   LIG    1       23.689  29.894  54.561  0.00  0.00    -0.477 OA
ATOM     13  H   LIG    1       24.445  29.410  54.293  0.00  0.00    +0.295 HD
ENDBRANCH  10  12
ENDBRANCH   6  10
TORSDOF 3
