REMARK  Name = ZINC02565073
REMARK                            x       y       z     vdW  Elec       q    Type
REMARK                         _______ _______ _______ _____ _____    ______ ____
ROOT
ATOM      1  C   LIG    1        1.223  -0.653  -0.013  0.00  0.00    +0.022 A 
ATOM      2  C   LIG    1        0.002  -0.004   0.002  0.00  0.00    +0.039 A 
ATOM      3  C   LIG    1       -0.017   1.370   0.010  0.00  0.00    +0.045 A 
ATOM      4  C   LIG    1        1.203   2.048   0.002  0.00  0.00    +0.095 A 
ATOM      5  S   LIG    1        2.379   0.706  -0.017  0.00  0.00    -0.082 S 
ENDROOT
BRANCH   1  12
ATOM      6  C   LIG    1        0.445  -3.019  -0.013  0.00  0.00    +0.012 A 
ATOM      7  C   LIG    1        0.709  -4.373  -0.029  0.00  0.00    +0.039 A 
ATOM      8  C   LIG    1        2.019  -4.826  -0.043  0.00  0.00    +0.123 A 
ATOM      9  F   LIG    1        2.272  -6.153  -0.053  0.00  0.00    -0.205 F 
ATOM     10  C   LIG    1        3.070  -3.922  -0.049  0.00  0.00    +0.039 A 
ATOM     11  C   LIG    1        2.817  -2.567  -0.039  0.00  0.00    +0.012 A 
ATOM     12  C   LIG    1        1.500  -2.105  -0.024  0.00  0.00    -0.011 A 
ENDBRANCH   1  12
BRANCH   4  13
ATOM     13  C   LIG    1        1.444   3.442   0.007  0.00  0.00    +0.250 C 
ATOM     14  N   LIG    1        2.709   3.906  -0.003  0.00  0.00    -0.325 N 
ATOM     15  H   LIG    1        2.875   4.862   0.001  0.00  0.00    +0.145 HD
ATOM     16  H   LIG    1        3.454   3.285  -0.013  0.00  0.00    +0.145 HD
ATOM     17  O   LIG    1        0.509   4.222   0.020  0.00  0.00    -0.270 OA
ENDBRANCH   4  13
BRANCH   3  18
ATOM     18  N   LIG    1       -1.222   2.067   0.019  0.00  0.00    -0.357 N 
ATOM     19  H   LIG    1       -1.221   3.038   0.024  0.00  0.00    +0.142 HD
ATOM     20  H   LIG    1       -2.062   1.583   0.021  0.00  0.00    +0.142 HD
ENDBRANCH   3  18
TORSDOF 3
