REMARK  Name = ZINC02652325
REMARK                            x       y       z     vdW  Elec       q    Type
REMARK                         _______ _______ _______ _____ _____    ______ ____
ROOT
ATOM      1  C   LIG    1       -7.402  -4.647   0.011  0.00  0.00    +0.186 C 
ENDROOT
BRANCH   1   2
ATOM      2  N   LIG    1       -8.186  -5.885   0.008  0.00  0.00    -0.298 N 
ATOM      3  H   LIG    1       -7.800  -6.704   0.356  0.00  0.00    +0.150 HD
ATOM      4  C   LIG    1       -9.442  -5.886  -0.480  0.00  0.00    +0.245 C 
ATOM      5  O   LIG    1       -9.926  -4.859  -0.916  0.00  0.00    -0.270 OA
BRANCH   4   6
ATOM      6  C   LIG    1      -10.232  -7.134  -0.483  0.00  0.00    +0.037 A 
ATOM      7  C   LIG    1       -9.682  -8.313   0.023  0.00  0.00    +0.016 A 
ATOM      8  C   LIG    1      -10.423  -9.475   0.018  0.00  0.00    +0.039 A 
ATOM      9  C   LIG    1      -11.714  -9.475  -0.490  0.00  0.00    +0.123 A 
ATOM     10  F   LIG    1      -12.436 -10.616  -0.494  0.00  0.00    -0.205 F 
ATOM     11  C   LIG    1      -12.265  -8.306  -0.994  0.00  0.00    +0.039 A 
ATOM     12  C   LIG    1      -11.535  -7.138  -0.987  0.00  0.00    +0.016 A 
ENDBRANCH   4   6
ENDBRANCH   1   2
BRANCH   1  13
ATOM     13  C   LIG    1       -5.933  -4.982   0.002  0.00  0.00    +0.328 C 
ATOM     14  O   LIG    1       -5.577  -6.137  -0.006  0.00  0.00    -0.249 OA
BRANCH  13  15
ATOM     15  O   LIG    1       -5.020  -3.998   0.003  0.00  0.00    -0.454 OA
BRANCH  15  16
ATOM     16  C   LIG    1       -3.646  -4.389  -0.006  0.00  0.00    +0.328 C 
BRANCH  16  19
ATOM     17  N   LIG    1       -1.432  -3.285  -0.010  0.00  0.00    -0.265 N 
ATOM     18  H   LIG    1       -1.027  -4.166  -0.017  0.00  0.00    +0.156 HD
ATOM     19  C   LIG    1       -2.774  -3.159  -0.003  0.00  0.00    +0.256 C 
ATOM     20  O   LIG    1       -3.280  -2.057   0.006  0.00  0.00    -0.272 OA
BRANCH  17  24
ATOM     21  C   LIG    1       -0.018   1.503   0.010  0.00  0.00    +0.089 C 
ATOM     22  C   LIG    1        0.002  -0.004   0.002  0.00  0.00    +0.136 A 
ATOM     23  C   LIG    1       -1.076  -0.808   0.003  0.00  0.00    +0.091 A 
ATOM     24  C   LIG    1       -0.625  -2.147  -0.007  0.00  0.00    +0.168 A 
ATOM     25  N   LIG    1        0.683  -2.130  -0.013  0.00  0.00    -0.063 NA
ATOM     26  O   LIG    1        1.100  -0.776  -0.013  0.00  0.00    -0.358 OA
ENDBRANCH  17  24
ENDBRANCH  16  19
ENDBRANCH  15  16
ENDBRANCH  13  15
ENDBRANCH   1  13
BRANCH   1  27
ATOM     27  C   LIG    1       -7.733  -3.837   1.266  0.00  0.00    +0.071 C 
BRANCH  27  28
ATOM     28  C   LIG    1       -9.173  -3.397   1.216  0.00  0.00    -0.020 A 
ATOM     29  C   LIG    1       -9.633  -2.221   0.761  0.00  0.00    +0.087 A 
ATOM     30  N   LIG    1      -10.997  -2.179   0.872  0.00  0.00    -0.360 N 
ATOM     31  C   LIG    1      -11.459  -3.358   1.413  0.00  0.00    +0.047 A 
ATOM     32  C   LIG    1      -12.727  -3.832   1.733  0.00  0.00    +0.026 A 
ATOM     33  C   LIG    1      -12.871  -5.096   2.263  0.00  0.00    +0.002 A 
ATOM     34  C   LIG    1      -11.761  -5.897   2.495  0.00  0.00    +0.001 A 
ATOM     35  C   LIG    1      -10.506  -5.449   2.192  0.00  0.00    +0.010 A 
ATOM     36  H   LIG    1      -11.554  -1.431   0.608  0.00  0.00    +0.165 HD
ATOM     37  C   LIG    1      -10.338  -4.175   1.646  0.00  0.00    +0.003 A 
ENDBRANCH  27  28
ENDBRANCH   1  27
TORSDOF 9
