REMARK  Name = ZINC02567711
REMARK                            x       y       z     vdW  Elec       q    Type
REMARK                         _______ _______ _______ _____ _____    ______ ____
ROOT
ATOM      1  CA  LIG    1       -1.545   1.642   0.898  0.00  0.00    +0.040 C 
ENDROOT
BRANCH   1   2
ATOM      2  N   LIG    1       -2.961   2.020   0.791  0.00  0.00    +0.387 N 
ATOM      3  H1  LIG    1       -3.404   1.922   1.692  0.00  0.00    -0.089 HD
ATOM      4  H2  LIG    1       -3.419   1.419   0.123  0.00  0.00    -0.089 HD
ATOM      5  H3  LIG    1       -3.030   2.979   0.485  0.00  0.00    -0.089 HD
ENDBRANCH   1   2
BRANCH   1   7
ATOM      6  C   LIG    1       -1.337   0.861  -1.589  0.00  0.00    +0.018 C 
ATOM      7  C   LIG    1       -0.872   1.792  -0.468  0.00  0.00    -0.001 C 
ATOM      8  C   LIG    1        0.031   0.650  -0.939  0.00  0.00    +0.100 C 
BRANCH   8   9
ATOM      9  C   LIG    1        0.191  -0.535  -0.022  0.00  0.00    +0.308 C 
ATOM     10  O   LIG    1       -0.555  -1.493  -0.128  0.00  0.00    -0.251 OA
BRANCH   9  11
ATOM     11  O   LIG    1        1.067  -0.535   0.826  0.00  0.00    -0.480 OA
ATOM     12  H   LIG    1        1.641   0.201   0.908  0.00  0.00    +0.295 HD
ENDBRANCH   9  11
ENDBRANCH   8   9
ENDBRANCH   1   7
BRANCH   1  13
ATOM     13  C   LIG    1       -0.860   2.540   1.896  0.00  0.00    +0.290 C 
ATOM     14  O   LIG    1       -1.211   3.702   2.013  0.00  0.00    -0.253 OA
BRANCH  13  15
ATOM     15  OXT LIG    1        0.046   2.104   2.587  0.00  0.00    -0.482 OA
ATOM     16  HXT LIG    1        0.315   1.211   2.497  0.00  0.00    +0.295 HD
ENDBRANCH  13  15
ENDBRANCH   1  13
TORSDOF 6
