REMARK  Name = ZINC02512068
REMARK                            x       y       z     vdW  Elec       q    Type
REMARK                         _______ _______ _______ _____ _____    ______ ____
ROOT
ATOM      1  C   LIG    1        3.673   2.211  -0.420  0.00  0.00    +0.080 A 
ATOM      2  C   LIG    1        4.856   1.530  -0.363  0.00  0.00    +0.076 A 
ATOM      3  S   LIG    1        5.995   2.871  -0.045  0.00  0.00    -0.060 S 
ATOM      4  C   LIG    1        4.788   4.189  -0.021  0.00  0.00    +0.163 A 
ATOM      5  N   LIG    1        3.670   3.526  -0.253  0.00  0.00    -0.225 NA
ENDROOT
BRANCH   1  11
ATOM      6  C   LIG    1        2.399   0.095  -0.750  0.00  0.00    +0.014 A 
ATOM      7  C   LIG    1        1.217  -0.580  -0.986  0.00  0.00    +0.050 A 
ATOM      8  C   LIG    1        0.034   0.125  -1.146  0.00  0.00    +0.158 A 
ATOM      9  C   LIG    1        0.033   1.515  -1.070  0.00  0.00    +0.159 A 
ATOM     10  C   LIG    1        1.215   2.195  -0.834  0.00  0.00    +0.059 A 
ATOM     11  C   LIG    1        2.404   1.486  -0.673  0.00  0.00    +0.005 A 
BRANCH   8  12
ATOM     12  O   LIG    1       -1.128  -0.543  -1.378  0.00  0.00    -0.503 OA
ATOM     13  H   LIG    1       -1.317  -0.689  -2.315  0.00  0.00    +0.292 HD
ENDBRANCH   8  12
BRANCH   9  14
ATOM     14  O   LIG    1       -1.127   2.205  -1.233  0.00  0.00    -0.503 OA
ATOM     15  H   LIG    1       -1.613   2.357  -0.411  0.00  0.00    +0.292 HD
ENDBRANCH   9  14
ENDBRANCH   1  11
BRANCH   4  16
ATOM     16  N   LIG    1        4.976   5.547   0.182  0.00  0.00    -0.291 N 
ATOM     17  H   LIG    1        4.210   6.135   0.269  0.00  0.00    +0.154 HD
BRANCH  16  18
ATOM     18  C   LIG    1        6.273   6.070   0.261  0.00  0.00    +0.069 A 
ATOM     19  C   LIG    1        7.310   5.467  -0.438  0.00  0.00    +0.029 A 
ATOM     20  C   LIG    1        8.587   5.987  -0.363  0.00  0.00    +0.040 A 
ATOM     21  C   LIG    1        8.837   7.104   0.416  0.00  0.00    +0.126 A 
ATOM     22  F   LIG    1       10.089   7.608   0.492  0.00  0.00    -0.205 F 
ATOM     23  C   LIG    1        7.807   7.706   1.119  0.00  0.00    +0.078 A 
ATOM     24  C   LIG    1        6.525   7.192   1.043  0.00  0.00    +0.147 A 
ATOM     25  F   LIG    1        5.520   7.778   1.729  0.00  0.00    -0.203 F 
ENDBRANCH  16  18
ENDBRANCH   4  16
TORSDOF 5
