REMARK  Name = ZINC02836011
REMARK                            x       y       z     vdW  Elec       q    Type
REMARK                         _______ _______ _______ _____ _____    ______ ____
ROOT
ATOM      1  C   LIG    1       -1.158   6.215  -0.913  0.00  0.00    +0.028 C 
ATOM      2  C   LIG    1       -0.391   5.147  -1.696  0.00  0.00    +0.081 C 
ATOM      3  C   LIG    1       -1.300   3.938  -1.953  0.00  0.00    +0.050 C 
ATOM      4  C   LIG    1       -0.536   2.917  -2.796  0.00  0.00    +0.115 C 
ATOM      5  C   LIG    1        0.802   2.617  -2.174  0.00  0.00    -0.005 A 
ATOM      6  C   LIG    1        1.451   1.441  -2.514  0.00  0.00    +0.007 A 
ATOM      7  C   LIG    1        2.683   1.142  -1.966  0.00  0.00    +0.000 A 
ATOM      8  C   LIG    1        3.279   2.016  -1.075  0.00  0.00    +0.002 A 
ATOM      9  C   LIG    1        2.639   3.189  -0.730  0.00  0.00    +0.024 A 
ATOM     10  C   LIG    1        1.397   3.492  -1.278  0.00  0.00    +0.042 A 
ATOM     11  N   LIG    1        0.760   4.684  -0.909  0.00  0.00    -0.264 N 
ATOM     12  C   LIG    1        1.196   5.394   0.150  0.00  0.00    +0.251 C 
ATOM     13  O   LIG    1        0.777   6.519   0.342  0.00  0.00    -0.270 OA
ENDROOT
BRANCH  12  14
ATOM     14  C   LIG    1        2.185   4.805   1.078  0.00  0.00    +0.037 A 
ATOM     15  C   LIG    1        2.072   3.469   1.466  0.00  0.00    +0.013 A 
ATOM     16  C   LIG    1        3.001   2.924   2.329  0.00  0.00    +0.005 A 
ATOM     17  C   LIG    1        4.036   3.702   2.817  0.00  0.00    -0.042 A 
ATOM     18  C   LIG    1        4.150   5.028   2.441  0.00  0.00    +0.005 A 
ATOM     19  C   LIG    1        3.231   5.584   1.575  0.00  0.00    +0.013 A 
BRANCH  17  20
ATOM     20  C   LIG    1        5.043   3.102   3.765  0.00  0.00    -0.013 C 
ATOM     21  C   LIG    1        6.440   3.194   3.149  0.00  0.00    +0.015 C 
ATOM     22  C   LIG    1        4.693   1.634   4.018  0.00  0.00    +0.015 C 
ATOM     23  C   LIG    1        5.017   3.868   5.089  0.00  0.00    +0.015 C 
ENDBRANCH  17  20
ENDBRANCH  12  14
BRANCH   4  24
ATOM     24  N   LIG    1       -0.333   3.454  -4.144  0.00  0.00    -0.264 N 
ATOM     25  C   LIG    1       -0.881   2.833  -5.207  0.00  0.00    +0.217 C 
ATOM     26  C   LIG    1       -1.810   1.664  -5.000  0.00  0.00    +0.109 C 
ATOM     27  O   LIG    1       -0.627   3.214  -6.330  0.00  0.00    -0.276 OA
BRANCH  24  28
ATOM     28  C   LIG    1        0.429   4.613  -4.327  0.00  0.00    +0.037 A 
ATOM     29  C   LIG    1       -0.177   5.784  -4.764  0.00  0.00    +0.023 A 
ATOM     30  C   LIG    1        0.577   6.927  -4.939  0.00  0.00    +0.002 A 
ATOM     31  C   LIG    1        1.937   6.905  -4.690  0.00  0.00    +0.000 A 
ATOM     32  C   LIG    1        2.546   5.739  -4.260  0.00  0.00    +0.002 A 
ATOM     33  C   LIG    1        1.796   4.594  -4.078  0.00  0.00    +0.023 A 
ENDBRANCH  24  28
ENDBRANCH   4  24
TORSDOF 4
