REMARK  Name = ZINC02522669
REMARK                            x       y       z     vdW  Elec       q    Type
REMARK                         _______ _______ _______ _____ _____    ______ ____
ROOT
ATOM      1  C   LIG    1       -0.355  -2.549   0.168  0.00  0.00    +0.078 C 
ATOM      2  C   LIG    1        0.380  -2.158   1.454  0.00  0.00    +0.004 C 
ATOM      3  C   LIG    1        1.757  -2.825   1.471  0.00  0.00    -0.077 C 
ATOM      4  N   LIG    1        2.534  -2.381   0.307  0.00  0.00    +0.380 N 
ATOM      5  H   LIG    1        2.603  -1.375   0.314  0.00  0.00    -0.082 HD
ATOM      6  C   LIG    1        1.871  -2.816  -0.929  0.00  0.00    -0.077 C 
ATOM      7  C   LIG    1        0.499  -2.148  -1.038  0.00  0.00    +0.004 C 
ENDROOT
BRANCH   1   9
ATOM      8  C   LIG    1       -2.780  -2.555  -0.074  0.00  0.00    +0.220 C 
ATOM      9  N   LIG    1       -1.643  -1.854   0.110  0.00  0.00    -0.269 N 
ATOM     10  O   LIG    1       -3.832  -1.973  -0.237  0.00  0.00    -0.275 OA
BRANCH   9  11
ATOM     11  C   LIG    1       -1.694  -0.462   0.244  0.00  0.00    +0.037 A 
ATOM     12  C   LIG    1       -0.519   0.279   0.262  0.00  0.00    +0.023 A 
ATOM     13  C   LIG    1       -0.573   1.652   0.394  0.00  0.00    +0.002 A 
ATOM     14  C   LIG    1       -1.794   2.290   0.509  0.00  0.00    +0.000 A 
ATOM     15  C   LIG    1       -2.966   1.556   0.492  0.00  0.00    +0.002 A 
ATOM     16  C   LIG    1       -2.919   0.182   0.354  0.00  0.00    +0.023 A 
ENDBRANCH   9  11
BRANCH   8  18
ATOM     17  C   LIG    1       -4.170  -4.606  -0.177  0.00  0.00    +0.013 C 
ATOM     18  C   LIG    1       -2.744  -4.061  -0.076  0.00  0.00    +0.093 C 
ENDBRANCH   8  18
ENDBRANCH   1   9
BRANCH   4  19
ATOM     19  C   LIG    1        3.881  -2.962   0.369  0.00  0.00    -0.074 C 
BRANCH  19  20
ATOM     20  C   LIG    1        4.731  -2.404  -0.774  0.00  0.00    +0.016 C 
BRANCH  20  21
ATOM     21  C   LIG    1        6.113  -3.000  -0.710  0.00  0.00    -0.049 A 
ATOM     22  C   LIG    1        7.102  -2.377   0.029  0.00  0.00    +0.003 A 
ATOM     23  C   LIG    1        8.370  -2.924   0.087  0.00  0.00    +0.000 A 
ATOM     24  C   LIG    1        8.649  -4.095  -0.593  0.00  0.00    +0.000 A 
ATOM     25  C   LIG    1        7.661  -4.719  -1.330  0.00  0.00    +0.000 A 
ATOM     26  C   LIG    1        6.392  -4.174  -1.385  0.00  0.00    +0.003 A 
ENDBRANCH  20  21
ENDBRANCH  19  20
ENDBRANCH   4  19
TORSDOF 6
