REMARK  Name = ZINC03069974
REMARK                            x       y       z     vdW  Elec       q    Type
REMARK                         _______ _______ _______ _____ _____    ______ ____
ROOT
ATOM      1  C   LIG    1       -7.012   1.988   4.835  0.00  0.00    +0.039 A 
ATOM      2  C   LIG    1       -6.283   2.778   5.728  0.00  0.00    +0.015 A 
ATOM      3  C   LIG    1       -6.821   3.103   6.954  0.00  0.00    +0.031 A 
ATOM      4  C   LIG    1       -8.087   2.645   7.303  0.00  0.00    +0.095 A 
ATOM      5  C   LIG    1       -8.815   1.859   6.417  0.00  0.00    +0.148 A 
ATOM      6  C   LIG    1       -8.286   1.535   5.187  0.00  0.00    +0.047 A 
ENDROOT
BRANCH   4   7
ATOM      7  N   LIG    1       -8.629   2.976   8.549  0.00  0.00    -0.238 N 
ATOM      8  C   LIG    1       -7.983   3.617   9.558  0.00  0.00    +0.114 A 
ATOM      9  C   LIG    1       -8.854   3.744  10.585  0.00  0.00    +0.041 A 
ATOM     10  C   LIG    1      -10.068   3.166  10.197  0.00  0.00    +0.135 A 
ATOM     11  N   LIG    1       -9.936   2.712   8.977  0.00  0.00    -0.175 NA
ENDBRANCH   4   7
BRANCH   1  14
ATOM     12  N   LIG    1       -5.213   2.082   3.179  0.00  0.00    -0.281 N 
ATOM     13  H   LIG    1       -4.674   2.562   3.827  0.00  0.00    +0.155 HD
ATOM     14  C   LIG    1       -6.440   1.639   3.520  0.00  0.00    +0.248 C 
ATOM     15  O   LIG    1       -7.075   0.952   2.744  0.00  0.00    -0.270 OA
BRANCH  12  20
ATOM     16  C   LIG    1       -5.079   1.666  -0.474  0.00  0.00    +0.122 A 
ATOM     17  C   LIG    1       -3.731   1.389  -0.655  0.00  0.00    +0.046 A 
ATOM     18  C   LIG    1       -2.881   1.342   0.434  0.00  0.00    +0.005 A 
ATOM     19  C   LIG    1       -3.370   1.571   1.706  0.00  0.00    +0.023 A 
ATOM     20  C   LIG    1       -4.718   1.850   1.892  0.00  0.00    +0.037 A 
ATOM     21  C   LIG    1       -5.572   1.902   0.799  0.00  0.00    +0.069 A 
BRANCH  16  23
ATOM     22  C   LIG    1       -5.335   1.466  -2.829  0.00  0.00    +0.277 C 
ATOM     23  O   LIG    1       -5.913   1.712  -1.546  0.00  0.00    -0.495 OA
ENDBRANCH  16  23
ENDBRANCH  12  20
ENDBRANCH   1  14
BRANCH   5  24
ATOM     24  N   LIG    1      -10.162   1.375   6.793  0.00  0.00    +0.008 N 
ATOM     25  O   LIG    1      -10.326   0.792   7.850  0.00  0.00    -0.130 OA
BRANCH  24  26
ATOM     26  O   LIG    1      -11.106   1.558   6.046  0.00  0.00    -0.396 OA
ATOM     27  H   LIG    1      -10.979   2.007   5.233  0.00  0.00    +0.329 HD
ENDBRANCH  24  26
ENDBRANCH   5  24
TORSDOF 6
