REMARK  Name = ZINC02562349
REMARK                            x       y       z     vdW  Elec       q    Type
REMARK                         _______ _______ _______ _____ _____    ______ ____
ROOT
ATOM      1  N   LIG    1        1.419  -2.510  -2.644  0.00  0.00    +0.386 N 
ATOM      2  H   LIG    1        0.962  -2.279  -3.514  0.00  0.00    -0.081 HD
ATOM      3  C   LIG    1        2.789  -1.985  -2.659  0.00  0.00    -0.044 C 
ATOM      4  C   LIG    1        3.542  -2.548  -3.867  0.00  0.00    +0.129 C 
ATOM      5  C   LIG    1        3.580  -4.076  -3.772  0.00  0.00    +0.168 C 
ATOM      6  C   LIG    1        2.146  -4.607  -3.682  0.00  0.00    +0.134 C 
ATOM      7  C   LIG    1        1.446  -3.969  -2.481  0.00  0.00    -0.011 C 
ENDROOT
BRANCH   4   8
ATOM      8  O   LIG    1        4.876  -2.036  -3.879  0.00  0.00    -0.391 OA
ATOM      9  H   LIG    1        5.412  -2.352  -4.619  0.00  0.00    +0.210 HD
ENDBRANCH   4   8
BRANCH   5  10
ATOM     10  O   LIG    1        4.217  -4.611  -4.933  0.00  0.00    -0.387 OA
ATOM     11  H   LIG    1        5.128  -4.311  -5.055  0.00  0.00    +0.210 HD
ENDBRANCH   5  10
BRANCH   6  12
ATOM     12  O   LIG    1        1.439  -4.278  -4.879  0.00  0.00    -0.391 OA
ATOM     13  H   LIG    1        1.830  -4.648  -5.682  0.00  0.00    +0.210 HD
ENDBRANCH   6  12
BRANCH   1  14
ATOM     14  C   LIG    1        0.677  -1.908  -1.528  0.00  0.00    -0.078 C 
BRANCH  14  15
ATOM     15  C   LIG    1        0.546  -0.401  -1.758  0.00  0.00    -0.019 C 
BRANCH  15  17
ATOM     16  C   LIG    1       -0.358   1.734  -0.826  0.00  0.00    +0.004 C 
ATOM     17  C   LIG    1       -0.226   0.227  -0.596  0.00  0.00    -0.005 C 
ENDBRANCH  15  17
ENDBRANCH  14  15
ENDBRANCH   1  14
BRANCH   7  18
ATOM     18  C   LIG    1        0.013  -4.497  -2.386  0.00  0.00    +0.143 C 
BRANCH  18  19
ATOM     19  O   LIG    1       -0.677  -4.225  -3.608  0.00  0.00    -0.397 OA
ATOM     20  H   LIG    1       -1.593  -4.533  -3.619  0.00  0.00    +0.209 HD
ENDBRANCH  18  19
ENDBRANCH   7  18
TORSDOF 8
