REMARK  Name = ZINC03363859
REMARK                            x       y       z     vdW  Elec       q    Type
REMARK                         _______ _______ _______ _____ _____    ______ ____
ROOT
ATOM      1  C   LIG    1        2.232   0.093   1.204  0.00  0.00    +0.234 C 
ATOM      2  N   LIG    1        2.372   1.426   1.346  0.00  0.00    -0.315 N 
ATOM      3  H   LIG    1        1.589   1.983   1.483  0.00  0.00    +0.149 HD
ATOM      4  O   LIG    1        3.200  -0.595   0.954  0.00  0.00    -0.274 OA
ENDROOT
BRANCH   1   5
ATOM      5  C   LIG    1        0.875  -0.544   1.356  0.00  0.00    +0.162 C 
BRANCH   5   6
ATOM      6  N   LIG    1        1.034  -1.974   1.632  0.00  0.00    -0.297 N 
ATOM      7  H   LIG    1        1.837  -2.437   1.344  0.00  0.00    +0.150 HD
ATOM      8  C   LIG    1        0.066  -2.646   2.286  0.00  0.00    +0.280 C 
ATOM      9  O   LIG    1       -0.941  -2.065   2.647  0.00  0.00    -0.267 OA
BRANCH   8  10
ATOM     10  C   LIG    1        0.225  -4.077   2.562  0.00  0.00    +0.189 A 
ATOM     11  C   LIG    1       -0.675  -4.875   3.207  0.00  0.00    +0.054 A 
ATOM     12  C   LIG    1       -0.117  -6.162   3.249  0.00  0.00    +0.042 A 
ATOM     13  C   LIG    1        1.085  -6.094   2.635  0.00  0.00    +0.196 A 
ATOM     14  O   LIG    1        1.285  -4.838   2.218  0.00  0.00    -0.458 OA
ENDBRANCH   8  10
ENDBRANCH   5   6
BRANCH   5  16
ATOM     15  C   LIG    1       -0.185   1.130  -0.166  0.00  0.00    +0.009 C 
ATOM     16  C   LIG    1        0.077  -0.359   0.063  0.00  0.00    +0.012 C 
ATOM     17  C   LIG    1        0.876  -0.924  -1.113  0.00  0.00    +0.009 C 
ENDBRANCH   5  16
ENDBRANCH   1   5
BRANCH   2  18
ATOM     18  C   LIG    1        3.704   2.033   1.293  0.00  0.00    +0.096 C 
BRANCH  18  19
ATOM     19  C   LIG    1        3.596   3.526   1.610  0.00  0.00    +0.016 C 
BRANCH  19  20
ATOM     20  N   LIG    1        4.907   4.162   1.420  0.00  0.00    +0.387 N 
ATOM     21  H   LIG    1        5.596   3.684   1.981  0.00  0.00    -0.081 HD
ATOM     22  C   LIG    1        4.831   5.568   1.835  0.00  0.00    -0.078 C 
ATOM     23  C   LIG    1        6.213   6.214   1.716  0.00  0.00    -0.019 C 
ATOM     24  C   LIG    1        6.684   6.135   0.261  0.00  0.00    -0.004 C 
ATOM     25  C   LIG    1        6.688   4.670  -0.185  0.00  0.00    -0.019 C 
ATOM     26  C   LIG    1        5.288   4.081   0.005  0.00  0.00    -0.078 C 
ENDBRANCH  19  20
BRANCH  19  27
ATOM     27  C   LIG    1        3.153   3.706   3.039  0.00  0.00    +0.093 A 
ATOM     28  C   LIG    1        1.900   3.976   3.446  0.00  0.00    +0.043 A 
ATOM     29  C   LIG    1        1.936   4.062   4.856  0.00  0.00    +0.041 A 
ATOM     30  C   LIG    1        3.210   3.838   5.227  0.00  0.00    +0.195 A 
ATOM     31  O   LIG    1        3.941   3.618   4.123  0.00  0.00    -0.469 OA
ENDBRANCH  19  27
ENDBRANCH  18  19
ENDBRANCH   2  18
TORSDOF 8
