REMARK  Name = ZINC03596259
REMARK                            x       y       z     vdW  Elec       q    Type
REMARK                         _______ _______ _______ _____ _____    ______ ____
ROOT
ATOM      1  N   LIG    1       -2.790  -2.565  -0.111  0.00  0.00    -0.311 N 
ATOM      2  C   LIG    1       -3.374  -2.897   1.096  0.00  0.00    +0.056 A 
ATOM      3  C   LIG    1       -2.670  -2.753   2.288  0.00  0.00    +0.026 A 
ATOM      4  C   LIG    1       -3.268  -3.089   3.483  0.00  0.00    +0.002 A 
ATOM      5  C   LIG    1       -4.569  -3.571   3.513  0.00  0.00    +0.001 A 
ATOM      6  C   LIG    1       -5.282  -3.721   2.345  0.00  0.00    +0.014 A 
ATOM      7  C   LIG    1       -4.690  -3.385   1.127  0.00  0.00    +0.046 A 
ATOM      8  C   LIG    1       -5.425  -3.532  -0.143  0.00  0.00    +0.208 A 
ATOM      9  O   LIG    1       -6.569  -3.952  -0.163  0.00  0.00    -0.286 OA
ATOM     10  C   LIG    1       -4.756  -3.170  -1.343  0.00  0.00    +0.174 A 
ATOM     11  C   LIG    1       -3.454  -2.689  -1.284  0.00  0.00    +0.212 A 
ENDROOT
BRANCH  10  12
ATOM     12  C   LIG    1       -5.441  -3.297  -2.640  0.00  0.00    +0.358 C 
ATOM     13  N   LIG    1       -4.776  -2.955  -3.700  0.00  0.00    +0.096 NA
ATOM     14  S   LIG    1       -5.464  -3.052  -5.205  0.00  0.00    +0.183 S 
ATOM     15  C   LIG    1       -7.197  -3.243  -4.935  0.00  0.00    +0.179 A 
ATOM     16  C   LIG    1       -8.095  -3.065  -5.963  0.00  0.00    +0.035 A 
ATOM     17  C   LIG    1       -9.450  -3.218  -5.727  0.00  0.00    +0.002 A 
ATOM     18  C   LIG    1       -9.899  -3.549  -4.462  0.00  0.00    +0.004 A 
ATOM     19  C   LIG    1       -9.001  -3.729  -3.429  0.00  0.00    +0.051 A 
ATOM     20  C   LIG    1       -7.639  -3.578  -3.660  0.00  0.00    +0.148 A 
ATOM     21  O   LIG    1       -5.001  -4.261  -5.791  0.00  0.00    -0.125 OA
ATOM     22  O   LIG    1       -5.283  -1.784  -5.821  0.00  0.00    -0.125 OA
ATOM     23  N   LIG    1       -6.722  -3.770  -2.628  0.00  0.00    -0.196 N 
ATOM     24  H   LIG    1       -7.017  -4.279  -1.839  0.00  0.00    +0.299 HD
ENDBRANCH  10  12
BRANCH  11  25
ATOM     25  O   LIG    1       -2.832  -2.343  -2.429  0.00  0.00    -0.493 OA
ATOM     26  H   LIG    1       -1.954  -2.018  -2.404  0.00  0.00    +0.294 HD
ENDBRANCH  11  25
BRANCH   1  27
ATOM     27  C   LIG    1       -1.416  -2.058  -0.121  0.00  0.00    +0.125 C 
BRANCH  27  28
ATOM     28  C   LIG    1       -1.433  -0.534   0.013  0.00  0.00    +0.024 C 
BRANCH  28  30
ATOM     29  C   LIG    1       -0.019   1.526   0.010  0.00  0.00    +0.007 C 
ATOM     30  C   LIG    1        0.002  -0.004   0.002  0.00  0.00    -0.016 C 
ATOM     31  C   LIG    1        0.742  -0.511   1.242  0.00  0.00    +0.007 C 
ENDBRANCH  28  30
ENDBRANCH  27  28
ENDBRANCH   1  27
TORSDOF 5
