REMARK  Name = ZINC02780061
REMARK                            x       y       z     vdW  Elec       q    Type
REMARK                         _______ _______ _______ _____ _____    ______ ____
ROOT
ATOM      1  C   LIG    1        4.353  -1.687   1.453  0.00  0.00    +0.085 A 
ATOM      2  C   LIG    1        2.999  -1.642   1.746  0.00  0.00    +0.068 A 
ATOM      3  C   LIG    1        2.179  -0.684   1.016  0.00  0.00    -0.023 A 
ATOM      4  C   LIG    1        2.846   0.061   0.110  0.00  0.00    -0.004 A 
ATOM      5  C   LIG    1        2.288   1.105  -0.807  0.00  0.00    +0.043 C 
ATOM      6  C   LIG    1        1.406   2.068  -0.000  0.00  0.00    +0.005 C 
ATOM      7  C   LIG    1       -0.019   1.523   0.010  0.00  0.00    +0.001 C 
ATOM      8  C   LIG    1        0.002  -0.004   0.002  0.00  0.00    +0.005 C 
ATOM      9  C   LIG    1        0.682  -0.535   1.259  0.00  0.00    +0.037 C 
ATOM     10  S   LIG    1        4.530  -0.479   0.225  0.00  0.00    -0.077 S 
ENDROOT
BRANCH   2  11
ATOM     11  C   LIG    1        2.412  -2.526   2.757  0.00  0.00    +0.244 C 
ATOM     12  N   LIG    1        2.348  -2.130   4.044  0.00  0.00    -0.325 N 
ATOM     13  H   LIG    1        1.959  -2.716   4.713  0.00  0.00    +0.145 HD
ATOM     14  H   LIG    1        2.689  -1.260   4.301  0.00  0.00    +0.145 HD
ATOM     15  O   LIG    1        1.983  -3.619   2.435  0.00  0.00    -0.270 OA
ENDBRANCH   2  11
BRANCH   1  17
ATOM     16  C   LIG    1        6.606  -2.402   1.591  0.00  0.00    +0.249 C 
ATOM     17  N   LIG    1        5.328  -2.501   2.008  0.00  0.00    -0.275 N 
ATOM     18  H   LIG    1        5.090  -3.142   2.696  0.00  0.00    +0.156 HD
ATOM     19  O   LIG    1        6.903  -1.598   0.729  0.00  0.00    -0.270 OA
BRANCH  16  23
ATOM     20  C   LIG    1        9.591  -4.900   3.296  0.00  0.00    +0.162 A 
ATOM     21  C   LIG    1        8.274  -5.000   3.724  0.00  0.00    +0.050 A 
ATOM     22  C   LIG    1        7.304  -4.188   3.178  0.00  0.00    +0.017 A 
ATOM     23  C   LIG    1        7.644  -3.268   2.182  0.00  0.00    +0.041 A 
ATOM     24  C   LIG    1        8.969  -3.167   1.751  0.00  0.00    +0.062 A 
ATOM     25  C   LIG    1        9.937  -3.980   2.308  0.00  0.00    +0.162 A 
BRANCH  20  27
ATOM     26  C   LIG    1       10.119  -6.618   4.851  0.00  0.00    +0.277 C 
ATOM     27  O   LIG    1       10.543  -5.699   3.842  0.00  0.00    -0.491 OA
ENDBRANCH  20  27
BRANCH  25  28
ATOM     28  O   LIG    1       11.228  -3.884   1.890  0.00  0.00    -0.491 OA
ATOM     29  C   LIG    1       11.511  -2.921   0.874  0.00  0.00    +0.277 C 
ENDBRANCH  25  28
ENDBRANCH  16  23
ENDBRANCH   1  17
TORSDOF 5
