REMARK  Name = ZINC02569900
REMARK                            x       y       z     vdW  Elec       q    Type
REMARK                         _______ _______ _______ _____ _____    ______ ____
ROOT
ATOM      1  C   LIG    1       -0.729   1.579   1.267  0.00  0.00    +0.042 C 
ENDROOT
BRANCH   1   2
ATOM      2  N   LIG    1       -0.032   1.103   2.475  0.00  0.00    +0.388 N 
ATOM      3  H   LIG    1       -0.509   1.472   3.307  0.00  0.00    -0.089 HD
ATOM      4  H   LIG    1        0.933   1.429   2.473  0.00  0.00    -0.089 HD
ATOM      5  H   LIG    1       -0.047   0.085   2.508  0.00  0.00    -0.089 HD
ENDBRANCH   1   2
BRANCH   1   6
ATOM      6  P   LIG    1       -0.754   3.402   1.277  0.00  0.00    +0.314 P 
ATOM      7  O   LIG    1        0.628   3.915   1.145  0.00  0.00    -0.261 OA
BRANCH   6   8
ATOM      8  O   LIG    1       -1.389   3.922   2.662  0.00  0.00    -0.325 OA
ATOM      9  H   LIG    1       -0.853   3.602   3.404  0.00  0.00    +0.220 HD
ENDBRANCH   6   8
BRANCH   6  10
ATOM     10  O   LIG    1       -1.643   3.933   0.045  0.00  0.00    -0.325 OA
ATOM     11  H   LIG    1       -1.260   3.620  -0.790  0.00  0.00    +0.220 HD
ENDBRANCH   6  10
ENDBRANCH   1   6
BRANCH   1  12
ATOM     12  C   LIG    1       -0.013   1.086   0.008  0.00  0.00    -0.004 C 
BRANCH  12  13
ATOM     13  C   LIG    1       -0.753   1.593  -1.232  0.00  0.00    -0.001 C 
BRANCH  13  14
ATOM     14  C   LIG    1       -0.037   1.099  -2.490  0.00  0.00    -0.000 C 
BRANCH  14  16
ATOM     15  C   LIG    1       -0.060   1.113  -4.989  0.00  0.00    +0.004 C 
ATOM     16  C   LIG    1       -0.777   1.606  -3.730  0.00  0.00    -0.003 C 
ENDBRANCH  14  16
ENDBRANCH  13  14
ENDBRANCH  12  13
ENDBRANCH   1  12
TORSDOF 8
