REMARK  Name = ZINC02436092
REMARK                            x       y       z     vdW  Elec       q    Type
REMARK                         _______ _______ _______ _____ _____    ______ ____
ROOT
ATOM      1  C   LIG    1        0.702   8.239  -1.201  0.00  0.00    +0.034 A 
ATOM      2  C   LIG    1        1.824   7.819  -1.907  0.00  0.00    +0.025 A 
ATOM      3  C   LIG    1        2.449   8.674  -2.794  0.00  0.00    +0.022 A 
ATOM      4  C   LIG    1        1.970   9.956  -2.978  0.00  0.00    +0.052 A 
ATOM      5 CL   LIG    1        2.763  11.029  -4.089  0.00  0.00    -0.083 Cl
ATOM      6  C   LIG    1        0.847  10.390  -2.270  0.00  0.00    +0.037 A 
ATOM      7  C   LIG    1        0.213   9.524  -1.379  0.00  0.00    +0.036 A 
ENDROOT
BRANCH   6   8
ATOM      8  C   LIG    1        0.332  11.762  -2.464  0.00  0.00    +0.141 A 
ATOM      9  N   LIG    1       -0.683  12.332  -1.743  0.00  0.00    -0.338 N 
ATOM     10  C   LIG    1       -0.860  13.613  -2.228  0.00  0.00    +0.066 A 
ATOM     11  C   LIG    1       -1.718  14.655  -1.906  0.00  0.00    +0.028 A 
ATOM     12  C   LIG    1       -1.639  15.845  -2.599  0.00  0.00    +0.002 A 
ATOM     13  C   LIG    1       -0.707  16.006  -3.614  0.00  0.00    +0.002 A 
ATOM     14  C   LIG    1        0.146  14.993  -3.945  0.00  0.00    +0.030 A 
ATOM     15  C   LIG    1        0.085  13.777  -3.256  0.00  0.00    +0.089 A 
ATOM     16  H   LIG    1       -1.200  11.900  -1.004  0.00  0.00    +0.167 HD
ATOM     17  N   LIG    1        0.782  12.619  -3.348  0.00  0.00    -0.228 NA
ENDBRANCH   6   8
BRANCH   1  19
ATOM     18  C   LIG    1        0.043   6.045  -0.563  0.00  0.00    +0.248 C 
ATOM     19  N   LIG    1        0.070   7.368  -0.308  0.00  0.00    -0.281 N 
ATOM     20  H   LIG    1       -0.348   7.716   0.495  0.00  0.00    +0.155 HD
ATOM     21  O   LIG    1        0.484   5.619  -1.613  0.00  0.00    -0.270 OA
BRANCH  18  24
ATOM     22  C   LIG    1       -1.082   2.871   1.103  0.00  0.00    +0.166 A 
ATOM     23  C   LIG    1       -0.552   3.741   0.169  0.00  0.00    +0.062 A 
ATOM     24  C   LIG    1       -0.523   5.113   0.432  0.00  0.00    +0.044 A 
ATOM     25  C   LIG    1       -1.030   5.601   1.639  0.00  0.00    +0.062 A 
ATOM     26  C   LIG    1       -1.559   4.726   2.570  0.00  0.00    +0.166 A 
ATOM     27  C   LIG    1       -1.591   3.360   2.303  0.00  0.00    +0.204 A 
BRANCH  22  29
ATOM     28  C   LIG    1       -0.578   1.103  -0.406  0.00  0.00    +0.277 C 
ATOM     29  O   LIG    1       -1.111   1.535   0.847  0.00  0.00    -0.491 OA
ENDBRANCH  22  29
BRANCH  26  30
ATOM     30  O   LIG    1       -2.053   5.201   3.744  0.00  0.00    -0.491 OA
ATOM     31  C   LIG    1       -1.993   6.614   3.950  0.00  0.00    +0.277 C 
ENDBRANCH  26  30
BRANCH  27  32
ATOM     32  O   LIG    1       -2.117   2.503   3.216  0.00  0.00    -0.488 OA
ATOM     33  C   LIG    1       -1.222   1.965   4.192  0.00  0.00    +0.277 C 
ENDBRANCH  27  32
ENDBRANCH  18  24
ENDBRANCH   1  19
TORSDOF 6
