REMARK  Name = ZINC02568243
REMARK                            x       y       z     vdW  Elec       q    Type
REMARK                         _______ _______ _______ _____ _____    ______ ____
ROOT
ATOM      1  C   LIG    1       -1.201  -0.638   0.010  0.00  0.00    +0.121 A 
ATOM      2  C   LIG    1       -2.377   0.107   0.019  0.00  0.00    +0.047 A 
ATOM      3  C   LIG    1       -3.603  -0.520   0.027  0.00  0.00    +0.030 A 
ATOM      4  C   LIG    1       -3.674  -1.910   0.026  0.00  0.00    +0.047 A 
ATOM      5  C   LIG    1       -2.488  -2.662   0.016  0.00  0.00    +0.010 A 
ATOM      6  C   LIG    1       -2.903  -4.075   0.017  0.00  0.00    +0.003 A 
ATOM      7  C   LIG    1       -4.261  -4.082   0.027  0.00  0.00    +0.091 A 
ATOM      8  N   LIG    1       -4.728  -2.801   0.032  0.00  0.00    -0.360 N 
ATOM      9  H   LIG    1       -5.666  -2.552   0.040  0.00  0.00    +0.165 HD
ATOM     10  C   LIG    1       -1.252  -2.018   0.003  0.00  0.00    +0.056 A 
ENDROOT
BRANCH   6  11
ATOM     11  C   LIG    1       -2.016  -5.255   0.009  0.00  0.00    -0.046 C 
ATOM     12  C   LIG    1       -1.399  -5.578  -1.109  0.00  0.00    -0.042 C 
ATOM     13  C   LIG    1       -0.480  -6.760  -1.222  0.00  0.00    -0.055 C 
ATOM     14  N   LIG    1       -0.046  -7.200   0.109  0.00  0.00    +0.382 N 
ATOM     15  H   LIG    1        0.544  -6.494   0.522  0.00  0.00    -0.085 HD
ATOM     16  H   LIG    1        0.467  -8.065   0.028  0.00  0.00    -0.085 HD
ATOM     17  C   LIG    1       -1.232  -7.408   0.955  0.00  0.00    -0.078 C 
ATOM     18  C   LIG    1       -1.843  -6.041   1.280  0.00  0.00    +0.016 C 
ENDBRANCH   6  11
BRANCH   1  20
ATOM     19  C   LIG    1       -0.017   1.425   0.010  0.00  0.00    +0.277 C 
ATOM     20  O   LIG    1        0.002  -0.004   0.002  0.00  0.00    -0.495 OA
ENDBRANCH   1  20
TORSDOF 2
