REMARK  Name = ZINC03363862
REMARK                            x       y       z     vdW  Elec       q    Type
REMARK                         _______ _______ _______ _____ _____    ______ ____
ROOT
ATOM      1  C   LIG    1        0.519  -1.843   0.881  0.00  0.00    +0.234 C 
ATOM      2  N   LIG    1       -0.575  -2.623   0.986  0.00  0.00    -0.315 N 
ATOM      3  H   LIG    1       -1.459  -2.225   0.957  0.00  0.00    +0.149 HD
ATOM      4  O   LIG    1        1.624  -2.340   0.918  0.00  0.00    -0.274 OA
ENDROOT
BRANCH   1   5
ATOM      5  C   LIG    1        0.368  -0.352   0.720  0.00  0.00    +0.162 C 
BRANCH   5   6
ATOM      6  N   LIG    1        1.693   0.266   0.629  0.00  0.00    -0.297 N 
ATOM      7  H   LIG    1        2.450  -0.254   0.317  0.00  0.00    +0.150 HD
ATOM      8  C   LIG    1        1.860   1.556   0.980  0.00  0.00    +0.280 C 
ATOM      9  O   LIG    1        0.910   2.208   1.373  0.00  0.00    -0.267 OA
BRANCH   8  10
ATOM     10  C   LIG    1        3.187   2.175   0.890  0.00  0.00    +0.189 A 
ATOM     11  C   LIG    1        3.495   3.464   1.218  0.00  0.00    +0.054 A 
ATOM     12  C   LIG    1        4.869   3.624   0.979  0.00  0.00    +0.042 A 
ATOM     13  C   LIG    1        5.333   2.440   0.521  0.00  0.00    +0.196 A 
ATOM     14  O   LIG    1        4.318   1.568   0.474  0.00  0.00    -0.458 OA
ENDBRANCH   8  10
ENDBRANCH   5   6
BRANCH   5  16
ATOM     15  C   LIG    1       -0.574   1.459  -0.722  0.00  0.00    +0.009 C 
ATOM     16  C   LIG    1       -0.421  -0.055  -0.557  0.00  0.00    +0.012 C 
ATOM     17  C   LIG    1        0.327  -0.626  -1.764  0.00  0.00    +0.009 C 
ENDBRANCH   5  16
ENDBRANCH   1   5
BRANCH   2  18
ATOM     18  C   LIG    1       -0.428  -4.072   1.143  0.00  0.00    +0.096 C 
BRANCH  18  19
ATOM     19  C   LIG    1       -1.804  -4.702   1.369  0.00  0.00    +0.016 C 
BRANCH  19  20
ATOM     20  N   LIG    1       -2.466  -4.042   2.502  0.00  0.00    +0.387 N 
ATOM     21  H   LIG    1       -2.566  -3.057   2.304  0.00  0.00    -0.081 HD
ATOM     22  C   LIG    1       -1.651  -4.214   3.711  0.00  0.00    -0.078 C 
ATOM     23  C   LIG    1       -2.294  -3.459   4.876  0.00  0.00    -0.019 C 
ATOM     24  C   LIG    1       -3.700  -4.014   5.123  0.00  0.00    -0.004 C 
ATOM     25  C   LIG    1       -4.518  -3.897   3.833  0.00  0.00    -0.019 C 
ATOM     26  C   LIG    1       -3.792  -4.635   2.707  0.00  0.00    -0.078 C 
ENDBRANCH  19  20
BRANCH  19  27
ATOM     27  C   LIG    1       -2.644  -4.534   0.129  0.00  0.00    +0.093 A 
ATOM     28  C   LIG    1       -2.862  -5.474  -0.807  0.00  0.00    +0.043 A 
ATOM     29  C   LIG    1       -3.700  -4.891  -1.786  0.00  0.00    +0.041 A 
ATOM     30  C   LIG    1       -3.943  -3.629  -1.389  0.00  0.00    +0.195 A 
ATOM     31  O   LIG    1       -3.305  -3.420  -0.226  0.00  0.00    -0.469 OA
ENDBRANCH  19  27
ENDBRANCH  18  19
ENDBRANCH   2  18
TORSDOF 8
