REMARK  Name = ZINC02992723
REMARK                            x       y       z     vdW  Elec       q    Type
REMARK                         _______ _______ _______ _____ _____    ______ ____
ROOT
ATOM      1  C   LIG    1       -0.058   1.329   0.640  0.00  0.00    +0.011 A 
ATOM      2  C   LIG    1        1.093   2.059   0.726  0.00  0.00    +0.046 A 
ATOM      3  C   LIG    1        2.298   1.519   0.285  0.00  0.00    +0.121 A 
ATOM      4  C   LIG    1        2.338   0.234  -0.246  0.00  0.00    +0.046 A 
ATOM      5  C   LIG    1        1.194  -0.506  -0.339  0.00  0.00    +0.011 A 
ATOM      6  C   LIG    1       -0.024   0.032   0.105  0.00  0.00    -0.024 A 
ENDROOT
BRANCH   6   7
ATOM      7  C   LIG    1       -1.253  -0.756   0.010  0.00  0.00    +0.026 C 
ATOM      8  C   LIG    1       -2.408  -0.177  -0.481  0.00  0.00    +0.100 C 
ATOM      9  C   LIG    1       -2.391   1.150  -1.126  0.00  0.00    +0.256 C 
ATOM     10  N   LIG    1       -3.558   1.651  -1.582  0.00  0.00    -0.236 N 
ATOM     11  H   LIG    1       -3.564   2.523  -2.008  0.00  0.00    +0.159 HD
ATOM     12  C   LIG    1       -4.707   0.974  -1.458  0.00  0.00    +0.313 C 
ATOM     13  N   LIG    1       -4.798  -0.234  -0.885  0.00  0.00    -0.236 N 
ATOM     14  H   LIG    1       -5.663  -0.668  -0.829  0.00  0.00    +0.159 HD
ATOM     15  O   LIG    1       -5.723   1.483  -1.890  0.00  0.00    -0.252 OA
ATOM     16  O   LIG    1       -1.354   1.775  -1.244  0.00  0.00    -0.270 OA
ATOM     17  C   LIG    1       -3.712  -0.863  -0.389  0.00  0.00    +0.256 C 
ATOM     18  O   LIG    1       -3.806  -1.962   0.124  0.00  0.00    -0.270 OA
ENDBRANCH   6   7
BRANCH   3  19
ATOM     19  O   LIG    1        3.437   2.249   0.373  0.00  0.00    -0.489 OA
BRANCH  19  20
ATOM     20  C   LIG    1        4.639   1.636  -0.098  0.00  0.00    +0.270 C 
BRANCH  20  21
ATOM     21  C   LIG    1        5.810   2.604   0.081  0.00  0.00    +0.270 C 
BRANCH  21  22
ATOM     22  O   LIG    1        6.026   2.838   1.474  0.00  0.00    -0.489 OA
BRANCH  22  23
ATOM     23  C   LIG    1        7.037   3.682   1.808  0.00  0.00    +0.121 A 
ATOM     24  C   LIG    1        7.803   4.277   0.816  0.00  0.00    +0.048 A 
ATOM     25  C   LIG    1        8.830   5.135   1.159  0.00  0.00    +0.036 A 
ATOM     26  C   LIG    1        9.096   5.400   2.489  0.00  0.00    +0.122 A 
ATOM     27  C   LIG    1        8.335   4.808   3.480  0.00  0.00    +0.036 A 
ATOM     28  C   LIG    1        7.303   3.954   3.143  0.00  0.00    +0.048 A 
BRANCH  26  29
ATOM     29  N   LIG    1       10.197   6.319   2.853  0.00  0.00    +0.006 N 
ATOM     30  O   LIG    1       10.864   6.837   1.988  0.00  0.00    -0.130 OA
BRANCH  29  31
ATOM     31  O   LIG    1       10.431   6.553   4.016  0.00  0.00    -0.396 OA
ATOM     32  H   LIG    1        9.914   6.151   4.687  0.00  0.00    +0.329 HD
ENDBRANCH  29  31
ENDBRANCH  26  29
ENDBRANCH  22  23
ENDBRANCH  21  22
ENDBRANCH  20  21
ENDBRANCH  19  20
ENDBRANCH   3  19
TORSDOF 8
