REMARK  Name = ZINC03076474
REMARK                            x       y       z     vdW  Elec       q    Type
REMARK                         _______ _______ _______ _____ _____    ______ ____
ROOT
ATOM      1  N   LIG    1        0.058  -4.169  -0.021  0.00  0.00    -0.155 N 
ATOM      2  C   LIG    1       -0.034  -4.877  -1.197  0.00  0.00    +0.383 C 
ATOM      3  N   LIG    1       -0.585  -6.076  -1.170  0.00  0.00    -0.012 NA
ATOM      4  C   LIG    1       -1.024  -6.609  -0.017  0.00  0.00    +0.384 C 
ATOM      5  N   LIG    1       -0.714  -6.097   1.144  0.00  0.00    -0.241 N 
ATOM      6  H   LIG    1       -1.075  -6.488   1.955  0.00  0.00    +0.261 HD
ATOM      7  C   LIG    1        0.185  -4.935   1.228  0.00  0.00    +0.336 C 
ENDROOT
BRANCH   1  12
ATOM      8  C   LIG    1       -0.026   1.503   0.006  0.00  0.00    +0.044 C 
ATOM      9  C   LIG    1       -0.004  -0.003  -0.001  0.00  0.00    -0.050 A 
ATOM     10  C   LIG    1        1.064  -0.675  -0.568  0.00  0.00    +0.006 A 
ATOM     11  C   LIG    1        1.088  -2.056  -0.576  0.00  0.00    +0.040 A 
ATOM     12  C   LIG    1        0.037  -2.770  -0.014  0.00  0.00    +0.098 A 
ATOM     13  C   LIG    1       -1.034  -2.093   0.554  0.00  0.00    +0.040 A 
ATOM     14  C   LIG    1       -1.049  -0.712   0.564  0.00  0.00    +0.006 A 
ENDBRANCH   1  12
BRANCH   7  15
ATOM     15  C   LIG    1        1.609  -5.399   1.397  0.00  0.00    +0.023 A 
ATOM     16  C   LIG    1        2.647  -4.645   0.883  0.00  0.00    +0.010 A 
ATOM     17  C   LIG    1        3.953  -5.070   1.038  0.00  0.00    +0.000 A 
ATOM     18  C   LIG    1        4.221  -6.249   1.709  0.00  0.00    +0.000 A 
ATOM     19  C   LIG    1        3.183  -7.002   2.224  0.00  0.00    +0.000 A 
ATOM     20  C   LIG    1        1.877  -6.575   2.073  0.00  0.00    +0.010 A 
ENDBRANCH   7  15
BRANCH   2  21
ATOM     21  N   LIG    1        0.435  -4.349  -2.368  0.00  0.00    -0.251 N 
ATOM     22  H   LIG    1        0.299  -4.825  -3.203  0.00  0.00    +0.241 HD
ATOM     23  H   LIG    1        0.903  -3.500  -2.365  0.00  0.00    +0.241 HD
ENDBRANCH   2  21
BRANCH   4  24
ATOM     24  N   LIG    1       -1.828  -7.729  -0.061  0.00  0.00    -0.249 N 
ATOM     25  H   LIG    1       -2.154  -8.126   0.762  0.00  0.00    +0.241 HD
ATOM     26  H   LIG    1       -2.068  -8.121  -0.916  0.00  0.00    +0.241 HD
ENDBRANCH   4  24
TORSDOF 4
