REMARK  Name = ZINC02753087
REMARK                            x       y       z     vdW  Elec       q    Type
REMARK                         _______ _______ _______ _____ _____    ______ ____
ROOT
ATOM      1  C   LIG    1       -1.305   1.933   0.019  0.00  0.00    +0.037 A 
ATOM      2  C   LIG    1       -1.327   3.329   0.032  0.00  0.00    +0.013 A 
ATOM      3  C   LIG    1       -2.534   3.996   0.036  0.00  0.00    +0.008 A 
ATOM      4  C   LIG    1       -3.721   3.285   0.038  0.00  0.00    -0.010 A 
ATOM      5  C   LIG    1       -3.706   1.901   0.030  0.00  0.00    +0.008 A 
ATOM      6  C   LIG    1       -2.506   1.222   0.021  0.00  0.00    +0.013 A 
ENDROOT
BRANCH   1   9
ATOM      7  N   LIG    1        1.143   1.901   0.001  0.00  0.00    -0.313 N 
ATOM      8  H   LIG    1        1.130   2.871   0.007  0.00  0.00    +0.149 HD
ATOM      9  C   LIG    1       -0.014   1.211   0.009  0.00  0.00    +0.244 C 
ATOM     10  O   LIG    1        0.002  -0.004   0.002  0.00  0.00    -0.270 OA
BRANCH   7  11
ATOM     11  C   LIG    1        2.422   1.186  -0.015  0.00  0.00    +0.086 C 
BRANCH  11  12
ATOM     12  C   LIG    1        3.571   2.196  -0.020  0.00  0.00    -0.061 C 
BRANCH  12  14
ATOM     13  C   LIG    1        5.029   0.743  -1.295  0.00  0.00    -0.097 C 
ATOM     14  N   LIG    1        4.853   1.460  -0.015  0.00  0.00    +0.377 N 
ATOM     15  H   LIG    1        4.842   0.776   0.751  0.00  0.00    -0.083 HD
ATOM     16  C   LIG    1        5.974   2.399   0.196  0.00  0.00    -0.097 C 
ENDBRANCH  12  14
ENDBRANCH  11  12
ENDBRANCH   7  11
ENDBRANCH   1   9
BRANCH   4  17
ATOM     17  C   LIG    1       -5.037   4.021   0.048  0.00  0.00    +0.264 C 
BRANCH  17  18
ATOM     18  O   LIG    1       -5.446   4.246   1.398  0.00  0.00    -0.487 OA
BRANCH  18  19
ATOM     19  C   LIG    1       -6.621   4.902   1.585  0.00  0.00    +0.122 A 
ATOM     20  C   LIG    1       -7.359   5.325   0.475  0.00  0.00    +0.046 A 
ATOM     21  C   LIG    1       -8.542   5.979   0.630  0.00  0.00    +0.012 A 
ATOM     22  C   LIG    1       -9.027   6.247   1.922  0.00  0.00    -0.018 A 
ATOM     23  C   LIG    1      -10.241   6.926   2.118  0.00  0.00    +0.008 A 
ATOM     24  C   LIG    1      -10.681   7.169   3.383  0.00  0.00    +0.001 A 
ATOM     25  C   LIG    1       -9.944   6.753   4.491  0.00  0.00    +0.001 A 
ATOM     26  C   LIG    1       -8.764   6.093   4.340  0.00  0.00    +0.008 A 
ATOM     27  C   LIG    1       -8.277   5.824   3.049  0.00  0.00    -0.014 A 
ATOM     28  C   LIG    1       -7.063   5.146   2.854  0.00  0.00    +0.054 A 
ENDBRANCH  18  19
ENDBRANCH  17  18
ENDBRANCH   4  17
TORSDOF 7
