REMARK  Name = ZINC02496392
REMARK                            x       y       z     vdW  Elec       q    Type
REMARK                         _______ _______ _______ _____ _____    ______ ____
ROOT
ATOM      1  N   LIG    1        7.296  -2.750  -0.979  0.00  0.00    -0.224 N 
ATOM      2  C   LIG    1        7.201  -1.659  -0.192  0.00  0.00    +0.244 C 
ATOM      3  C   LIG    1        5.806  -1.696   0.400  0.00  0.00    +0.169 C 
ATOM      4  C   LIG    1        5.016  -0.468  -0.065  0.00  0.00    +0.069 C 
ATOM      5  C   LIG    1        3.541  -0.782  -0.038  0.00  0.00    -0.015 A 
ATOM      6  C   LIG    1        2.438   0.161  -0.020  0.00  0.00    +0.003 A 
ATOM      7  C   LIG    1        2.390   1.558  -0.012  0.00  0.00    +0.010 A 
ATOM      8  C   LIG    1        1.145   2.135   0.003  0.00  0.00    +0.001 A 
ATOM      9  C   LIG    1       -0.017   1.380   0.010  0.00  0.00    +0.002 A 
ATOM     10  C   LIG    1        0.002  -0.004   0.002  0.00  0.00    +0.026 A 
ATOM     11  C   LIG    1        1.253  -0.618  -0.013  0.00  0.00    +0.047 A 
ATOM     12  N   LIG    1        1.630  -1.930  -0.024  0.00  0.00    -0.356 N 
ATOM     13  H   LIG    1        1.022  -2.685  -0.023  0.00  0.00    +0.166 HD
ATOM     14  C   LIG    1        2.996  -2.017  -0.035  0.00  0.00    +0.046 A 
ATOM     15  C   LIG    1        3.812  -3.295  -0.035  0.00  0.00    +0.157 C 
ATOM     16  N   LIG    1        5.209  -2.891  -0.236  0.00  0.00    -0.261 N 
ATOM     17  O   LIG    1        8.054  -0.820   0.001  0.00  0.00    -0.273 OA
ATOM     18  C   LIG    1        6.158  -3.460  -0.982  0.00  0.00    +0.313 C 
ATOM     19  O   LIG    1        6.009  -4.500  -1.592  0.00  0.00    -0.252 OA
ENDROOT
BRANCH  15  20
ATOM     20  C   LIG    1        3.365  -4.195  -1.159  0.00  0.00    -0.003 A 
ATOM     21  C   LIG    1        2.510  -5.258  -0.909  0.00  0.00    +0.009 A 
ATOM     22  C   LIG    1        2.125  -6.059  -1.973  0.00  0.00    +0.020 A 
ATOM     23  C   LIG    1        2.603  -5.773  -3.239  0.00  0.00    +0.111 A 
ATOM     24  N   LIG    1        3.414  -4.753  -3.439  0.00  0.00    -0.263 NA
ATOM     25  C   LIG    1        3.797  -3.967  -2.452  0.00  0.00    +0.116 A 
ENDBRANCH  15  20
BRANCH   1  26
ATOM     26  C   LIG    1        8.495  -3.116  -1.736  0.00  0.00    +0.118 C 
BRANCH  26  27
ATOM     27  C   LIG    1        9.389  -4.011  -0.876  0.00  0.00    +0.019 C 
BRANCH  27  29
ATOM     28  C   LIG    1       11.535  -5.288  -0.807  0.00  0.00    +0.004 C 
ATOM     29  C   LIG    1       10.642  -4.393  -1.667  0.00  0.00    -0.002 C 
ENDBRANCH  27  29
ENDBRANCH  26  27
ENDBRANCH   1  26
TORSDOF 4
