REMARK  Name = ZINC02391782
REMARK                            x       y       z     vdW  Elec       q    Type
REMARK                         _______ _______ _______ _____ _____    ______ ____
ROOT
ATOM      1  N   LIG    1        4.747   7.842  -0.406  0.00  0.00    -0.312 N 
ATOM      2  C   LIG    1        5.561   6.748  -0.372  0.00  0.00    +0.201 A 
ATOM      3  N   LIG    1        4.847   5.667  -0.257  0.00  0.00    -0.231 NA
ATOM      4  C   LIG    1        3.533   5.997  -0.211  0.00  0.00    +0.148 A 
ATOM      5  C   LIG    1        2.336   5.269  -0.097  0.00  0.00    +0.156 A 
ATOM      6  N   LIG    1        1.186   5.934  -0.089  0.00  0.00    -0.197 NA
ATOM      7  C   LIG    1        1.158   7.257  -0.175  0.00  0.00    +0.219 A 
ATOM      8  N   LIG    1        2.260   7.981  -0.285  0.00  0.00    -0.195 NA
ATOM      9  C   LIG    1        3.454   7.396  -0.307  0.00  0.00    +0.167 A 
ENDROOT
BRANCH   1  11
ATOM     10  C   LIG    1        6.079   9.599   0.653  0.00  0.00    +0.030 C 
ATOM     11  C   LIG    1        5.176   9.238  -0.528  0.00  0.00    +0.084 C 
ATOM     12  C   LIG    1        5.949   9.422  -1.835  0.00  0.00    +0.030 C 
ENDBRANCH   1  11
BRANCH   5  13
ATOM     13  N   LIG    1        2.355   3.888   0.000  0.00  0.00    -0.298 N 
ATOM     14  H   LIG    1        2.867   3.507  -0.770  0.00  0.00    +0.154 HD
BRANCH  13  15
ATOM     15  C   LIG    1        1.156   3.170  -0.004  0.00  0.00    +0.034 A 
ATOM     16  C   LIG    1        0.072   3.629  -0.742  0.00  0.00    +0.023 A 
ATOM     17  C   LIG    1       -1.112   2.919  -0.744  0.00  0.00    +0.003 A 
ATOM     18  C   LIG    1       -1.222   1.754  -0.007  0.00  0.00    +0.020 A 
ATOM     19  C   LIG    1       -0.143   1.290   0.725  0.00  0.00    +0.043 A 
ATOM     20 CL   LIG    1       -0.284  -0.177   1.643  0.00  0.00    -0.083 Cl
ATOM     21  C   LIG    1        1.045   1.997   0.731  0.00  0.00    +0.043 A 
ENDBRANCH  13  15
ENDBRANCH   5  13
BRANCH   7  22
ATOM     22  N   LIG    1       -0.067   7.903  -0.156  0.00  0.00    -0.311 N 
ATOM     23  H   LIG    1       -0.107   8.870  -0.222  0.00  0.00    +0.149 HD
BRANCH  22  24
ATOM     24  C   LIG    1       -1.303   7.126  -0.035  0.00  0.00    +0.132 C 
BRANCH  24  25
ATOM     25  C   LIG    1       -2.504   8.074  -0.039  0.00  0.00    +0.174 C 
BRANCH  25  26
ATOM     26  O   LIG    1       -2.591   8.728  -1.307  0.00  0.00    -0.393 OA
ATOM     27  H   LIG    1       -3.331   9.346  -1.381  0.00  0.00    +0.209 HD
ENDBRANCH  25  26
ENDBRANCH  24  25
ENDBRANCH  22  24
ENDBRANCH   7  22
TORSDOF 7
