REMARK  Name = ZINC02391787
REMARK                            x       y       z     vdW  Elec       q    Type
REMARK                         _______ _______ _______ _____ _____    ______ ____
ROOT
ATOM      1  N   LIG    1        2.322  -2.569  -4.334  0.00  0.00    -0.232 N 
ATOM      2  C   LIG    1        3.245  -3.572  -4.253  0.00  0.00    +0.075 A 
ATOM      3  C   LIG    1        3.782  -3.731  -5.500  0.00  0.00    +0.062 A 
ATOM      4  C   LIG    1        3.171  -2.808  -6.350  0.00  0.00    +0.166 A 
ATOM      5  N   LIG    1        2.298  -2.118  -5.660  0.00  0.00    -0.162 NA
ENDROOT
BRANCH   2   6
ATOM      6  C   LIG    1        3.600  -4.342  -3.041  0.00  0.00    +0.001 A 
ATOM      7  C   LIG    1        2.674  -4.489  -2.009  0.00  0.00    +0.011 A 
ATOM      8  C   LIG    1        3.010  -5.208  -0.881  0.00  0.00    +0.020 A 
ATOM      9  C   LIG    1        4.264  -5.785  -0.772  0.00  0.00    +0.041 A 
ATOM     10 CL   LIG    1        4.681  -6.688   0.650  0.00  0.00    -0.084 Cl
ATOM     11  C   LIG    1        5.188  -5.642  -1.794  0.00  0.00    +0.020 A 
ATOM     12  C   LIG    1        4.861  -4.930  -2.929  0.00  0.00    +0.011 A 
ENDBRANCH   2   6
BRANCH   1  16
ATOM     13  C   LIG    1       -0.017  -1.120  -1.200  0.00  0.00    +0.120 A 
ATOM     14  C   LIG    1        1.339  -1.343  -1.007  0.00  0.00    +0.048 A 
ATOM     15  C   LIG    1        2.114  -1.823  -2.045  0.00  0.00    +0.031 A 
ATOM     16  C   LIG    1        1.536  -2.083  -3.280  0.00  0.00    +0.066 A 
ATOM     17  C   LIG    1        0.179  -1.860  -3.472  0.00  0.00    +0.031 A 
ATOM     18  C   LIG    1       -0.596  -1.385  -2.433  0.00  0.00    +0.048 A 
BRANCH  13  20
ATOM     19  C   LIG    1       -0.118  -0.397   1.063  0.00  0.00    +0.277 C 
ATOM     20  O   LIG    1       -0.780  -0.648  -0.178  0.00  0.00    -0.495 OA
ENDBRANCH  13  20
ENDBRANCH   1  16
BRANCH   4  21
ATOM     21  C   LIG    1        3.464  -2.638  -7.818  0.00  0.00    +0.436 C 
ATOM     22  F   LIG    1        4.796  -2.980  -8.071  0.00  0.00    -0.164 F 
ATOM     23  F   LIG    1        3.247  -1.305  -8.185  0.00  0.00    -0.164 F 
ATOM     24  F   LIG    1        2.619  -3.469  -8.562  0.00  0.00    -0.164 F 
ENDBRANCH   4  21
TORSDOF 4
