REMARK  Name = ZINC02568244
REMARK                            x       y       z     vdW  Elec       q    Type
REMARK                         _______ _______ _______ _____ _____    ______ ____
ROOT
ATOM      1  C   LIG    1        2.284  -6.091   3.696  0.00  0.00    -0.038 A 
ATOM      2  C   LIG    1        1.690  -6.784   2.657  0.00  0.00    +0.004 A 
ATOM      3  C   LIG    1        1.706  -8.167   2.647  0.00  0.00    +0.008 A 
ATOM      4  C   LIG    1        2.317  -8.859   3.674  0.00  0.00    -0.003 A 
ATOM      5  C   LIG    1        2.915  -8.166   4.717  0.00  0.00    +0.121 A 
ATOM      6  C   LIG    1        2.901  -6.779   4.722  0.00  0.00    +0.049 A 
ENDROOT
BRANCH   4   7
ATOM      7  C   LIG    1        2.335 -10.366   3.663  0.00  0.00    +0.028 C 
ATOM      8  C   LIG    1        3.056 -10.858   2.406  0.00  0.00    +0.040 C 
ATOM      9  C   LIG    1        3.074 -12.388   2.394  0.00  0.00    +0.115 C 
ATOM     10  C   LIG    1        1.637 -12.914   2.397  0.00  0.00    +0.031 C 
ATOM     11  C   LIG    1        0.916 -12.422   3.654  0.00  0.00    +0.006 C 
ATOM     12  C   LIG    1        0.898 -10.893   3.666  0.00  0.00    -0.003 C 
BRANCH   9  13
ATOM     13  O   LIG    1        3.747 -12.847   1.221  0.00  0.00    -0.392 OA
ATOM     14  H   LIG    1        3.796 -13.810   1.147  0.00  0.00    +0.210 HD
ENDBRANCH   9  13
BRANCH  12  15
ATOM     15  C   LIG    1        0.177 -10.400   4.922  0.00  0.00    +0.006 C 
BRANCH  15  16
ATOM     16  C   LIG    1       -1.292 -10.822   4.865  0.00  0.00    +0.028 C 
BRANCH  16  17
ATOM     17  C   LIG    1       -2.014 -10.330   6.121  0.00  0.00    +0.156 C 
BRANCH  17  18
ATOM     18  O   LIG    1       -3.386 -10.723   6.068  0.00  0.00    -0.395 OA
ATOM     19  H   LIG    1       -3.906 -10.444   6.834  0.00  0.00    +0.209 HD
ENDBRANCH  17  18
ENDBRANCH  16  17
ENDBRANCH  15  16
ENDBRANCH  12  15
ENDBRANCH   4   7
BRANCH   1  20
ATOM     20  C   LIG    1        2.264  -4.584   3.704  0.00  0.00    -0.010 C 
ATOM     21  C   LIG    1        1.547  -4.091   4.963  0.00  0.00    +0.016 C 
ATOM     22  C   LIG    1        3.699  -4.055   3.693  0.00  0.00    +0.016 C 
BRANCH  20  23
ATOM     23  C   LIG    1        1.524  -4.077   2.464  0.00  0.00    +0.011 C 
BRANCH  23  24
ATOM     24  C   LIG    1        1.503  -2.548   2.473  0.00  0.00    +0.001 C 
BRANCH  24  25
ATOM     25  C   LIG    1        0.763  -2.041   1.233  0.00  0.00    +0.000 C 
BRANCH  25  26
ATOM     26  C   LIG    1        0.742  -0.511   1.242  0.00  0.00    -0.000 C 
BRANCH  26  28
ATOM     27  C   LIG    1       -0.019   1.526   0.010  0.00  0.00    +0.004 C 
ATOM     28  C   LIG    1        0.002  -0.004   0.002  0.00  0.00    -0.003 C 
ENDBRANCH  26  28
ENDBRANCH  25  26
ENDBRANCH  24  25
ENDBRANCH  23  24
ENDBRANCH  20  23
ENDBRANCH   1  20
BRANCH   5  29
ATOM     29  O   LIG    1        3.516  -8.845   5.729  0.00  0.00    -0.506 OA
ATOM     30  H   LIG    1        4.453  -9.028   5.577  0.00  0.00    +0.292 HD
ENDBRANCH   5  29
TORSDOF 13
