REMARK  Name = ZINC03044367
REMARK                            x       y       z     vdW  Elec       q    Type
REMARK                         _______ _______ _______ _____ _____    ______ ____
ROOT
ATOM      1  C   LIG    1       -3.343   2.742  -0.515  0.00  0.00    +0.130 A 
ATOM      2  C   LIG    1       -2.942   3.533   0.547  0.00  0.00    +0.050 A 
ATOM      3  C   LIG    1       -1.646   3.132   0.883  0.00  0.00    +0.050 A 
ATOM      4  C   LIG    1       -1.302   2.117   0.020  0.00  0.00    +0.137 A 
ATOM      5  O   LIG    1       -2.333   1.899  -0.817  0.00  0.00    -0.455 OA
ENDROOT
BRANCH   1  11
ATOM      6  C   LIG    1       -7.247   0.811  -4.812  0.00  0.00    +0.139 C 
ATOM      7  N   LIG    1       -6.055   0.950  -3.972  0.00  0.00    -0.258 N 
ATOM      8  C   LIG    1       -6.038   1.858  -3.011  0.00  0.00    +0.258 C 
ATOM      9  C   LIG    1       -4.859   1.966  -2.211  0.00  0.00    +0.080 C 
ATOM     10  S   LIG    1       -3.831   0.702  -2.947  0.00  0.00    -0.061 S 
ATOM     11  C   LIG    1       -4.590   2.809  -1.172  0.00  0.00    +0.066 C 
ATOM     12  O   LIG    1       -6.998   2.581  -2.814  0.00  0.00    -0.269 OA
ATOM     13  C   LIG    1       -4.989   0.148  -4.190  0.00  0.00    +0.120 C 
ATOM     14  S   LIG    1       -4.795  -1.082  -5.364  0.00  0.00    -0.027 S 
ENDBRANCH   1  11
BRANCH   4  15
ATOM     15  C   LIG    1       -0.017   1.393   0.010  0.00  0.00    +0.036 A 
ATOM     16  C   LIG    1        0.002  -0.004   0.002  0.00  0.00    +0.014 A 
ATOM     17  C   LIG    1        1.207  -0.674  -0.013  0.00  0.00    +0.021 A 
ATOM     18  C   LIG    1        2.397   0.034  -0.021  0.00  0.00    +0.042 A 
ATOM     19 CL   LIG    1        3.910  -0.819  -0.041  0.00  0.00    -0.083 Cl
ATOM     20  C   LIG    1        2.387   1.419  -0.013  0.00  0.00    +0.040 A 
ATOM     21  C   LIG    1        1.188   2.102   0.002  0.00  0.00    +0.053 A 
ATOM     22 CL   LIG    1        1.177   3.838   0.011  0.00  0.00    -0.083 Cl
ENDBRANCH   4  15
TORSDOF 2
