REMARK  Name = ZINC02560259
REMARK                            x       y       z     vdW  Elec       q    Type
REMARK                         _______ _______ _______ _____ _____    ______ ____
ROOT
ATOM      1  C   LIG    1        5.041   0.675   7.816  0.00  0.00    +0.121 A 
ATOM      2  C   LIG    1        6.245   0.627   8.524  0.00  0.00    +0.048 A 
ATOM      3  C   LIG    1        7.407   0.273   7.907  0.00  0.00    +0.032 A 
ATOM      4  C   LIG    1        7.401  -0.051   6.544  0.00  0.00    +0.076 A 
ATOM      5  C   LIG    1        6.185   0.001   5.820  0.00  0.00    +0.044 A 
ATOM      6  C   LIG    1        6.210  -0.336   4.445  0.00  0.00    +0.130 A 
ATOM      7  N   LIG    1        7.372  -0.673   3.903  0.00  0.00    -0.220 NA
ATOM      8  C   LIG    1        8.486  -0.703   4.619  0.00  0.00    +0.223 A 
ATOM      9  N   LIG    1        8.521  -0.406   5.896  0.00  0.00    -0.235 NA
ATOM     10  C   LIG    1        5.003   0.363   6.474  0.00  0.00    +0.059 A 
ENDROOT
BRANCH   1  12
ATOM     11  C   LIG    1        4.003   1.344   9.848  0.00  0.00    +0.277 C 
ATOM     12  O   LIG    1        3.897   1.032   8.457  0.00  0.00    -0.495 OA
ENDBRANCH   1  12
BRANCH   6  13
ATOM     13  N   LIG    1        5.057  -0.309   3.688  0.00  0.00    -0.324 N 
ATOM     14  H   LIG    1        4.214  -0.061   4.097  0.00  0.00    +0.148 HD
BRANCH  13  15
ATOM     15  C   LIG    1        5.107  -0.655   2.265  0.00  0.00    +0.138 C 
BRANCH  15  16
ATOM     16  C   LIG    1        3.725  -0.548   1.673  0.00  0.00    -0.027 A 
ATOM     17  C   LIG    1        2.886  -1.647   1.675  0.00  0.00    +0.009 A 
ATOM     18  C   LIG    1        1.617  -1.553   1.135  0.00  0.00    +0.050 A 
ATOM     19  C   LIG    1        1.183  -0.356   0.589  0.00  0.00    +0.166 A 
ATOM     20  C   LIG    1        2.028   0.751   0.586  0.00  0.00    +0.167 A 
ATOM     21  O   LIG    1        1.376   1.797  -0.001  0.00  0.00    -0.453 OA
ATOM     22  C   LIG    1       -0.018   1.436   0.010  0.00  0.00    +0.466 C 
ATOM     23  O   LIG    1        0.002  -0.004   0.002  0.00  0.00    -0.453 OA
ATOM     24  C   LIG    1        3.299   0.650   1.130  0.00  0.00    +0.054 A 
ENDBRANCH  15  16
ENDBRANCH  13  15
ENDBRANCH   6  13
TORSDOF 4
