REMARK  Name = ZINC03630928
REMARK                            x       y       z     vdW  Elec       q    Type
REMARK                         _______ _______ _______ _____ _____    ______ ____
ROOT
ATOM      1  O   LIG    1        0.010  -0.149   2.414  0.00  0.00    -0.489 OA
ENDROOT
BRANCH   1   2
ATOM      2  C   LIG    1        0.534  -0.527   3.610  0.00  0.00    +0.121 A 
ATOM      3  C   LIG    1        1.727  -1.236   3.650  0.00  0.00    +0.046 A 
ATOM      4  C   LIG    1        2.265  -1.616   4.862  0.00  0.00    +0.012 A 
ATOM      5  C   LIG    1        1.603  -1.296   6.046  0.00  0.00    -0.018 A 
ATOM      6  C   LIG    1        0.403  -0.589   6.003  0.00  0.00    +0.012 A 
ATOM      7  C   LIG    1       -0.126  -0.207   4.788  0.00  0.00    +0.046 A 
BRANCH   5   8
ATOM      8  C   LIG    1        2.176  -1.709   7.351  0.00  0.00    -0.018 A 
ATOM      9  C   LIG    1        1.518  -1.386   8.537  0.00  0.00    +0.008 A 
ATOM     10  C   LIG    1        2.053  -1.776   9.748  0.00  0.00    +0.001 A 
ATOM     11  C   LIG    1        3.244  -2.478   9.787  0.00  0.00    +0.000 A 
ATOM     12  C   LIG    1        3.904  -2.798   8.614  0.00  0.00    +0.001 A 
ATOM     13  C   LIG    1        3.376  -2.417   7.397  0.00  0.00    +0.008 A 
ENDBRANCH   5   8
ENDBRANCH   1   2
BRANCH   1  14
ATOM     14  C   LIG    1        0.742  -0.511   1.242  0.00  0.00    +0.258 C 
BRANCH  14  15
ATOM     15  C   LIG    1        0.002  -0.004   0.002  0.00  0.00    +0.135 C 
BRANCH  15  16
ATOM     16  O   LIG    1       -0.017   1.425   0.010  0.00  0.00    -0.390 OA
ATOM     17  H   LIG    1        0.861   1.830   0.004  0.00  0.00    +0.210 HD
ENDBRANCH  15  16
BRANCH  15  18
ATOM     18  C   LIG    1        0.718  -0.497  -1.257  0.00  0.00    -0.047 C 
BRANCH  18  19
ATOM     19  N   LIG    1       -0.001  -0.005  -2.447  0.00  0.00    +0.382 N 
ATOM     20  H   LIG    1       -0.015   1.022  -2.433  0.00  0.00    -0.085 HD
ATOM     21  H   LIG    1       -0.964  -0.360  -2.432  0.00  0.00    -0.085 HD
BRANCH  19  23
ATOM     22  C   LIG    1        0.171  -1.868  -4.035  0.00  0.00    -0.014 C 
ATOM     23  C   LIG    1        0.668  -0.466  -3.677  0.00  0.00    -0.078 C 
ATOM     24  C   LIG    1        0.340   0.498  -4.819  0.00  0.00    -0.014 C 
ENDBRANCH  19  23
ENDBRANCH  18  19
ENDBRANCH  15  18
ENDBRANCH  14  15
ENDBRANCH   1  14
TORSDOF 8
