REMARK  Name = ZINC03137566
REMARK                            x       y       z     vdW  Elec       q    Type
REMARK                         _______ _______ _______ _____ _____    ______ ____
ROOT
ATOM      1  C   LIG    1        0.718  -0.497  -1.257  0.00  0.00    +0.145 C 
ATOM      2  C   LIG    1       -0.126  -0.120  -2.459  0.00  0.00    +0.200 C 
ATOM      3  N   LIG    1        0.420   0.634  -3.378  0.00  0.00    -0.131 NA
ATOM      4  C   LIG    1        1.679   1.076  -3.294  0.00  0.00    +0.332 C 
ATOM      5  N   LIG    1        2.517   0.809  -2.284  0.00  0.00    -0.237 N 
ATOM      6  H   LIG    1        3.416   1.172  -2.304  0.00  0.00    +0.159 HD
ATOM      7  O   LIG    1        2.094   1.772  -4.201  0.00  0.00    -0.250 OA
ATOM      8  C   LIG    1        2.136   0.044  -1.237  0.00  0.00    +0.240 C 
ATOM      9  O   LIG    1        2.893  -0.198  -0.321  0.00  0.00    -0.274 OA
ENDROOT
BRANCH   1  10
ATOM     10  C   LIG    1        0.790  -2.001  -1.193  0.00  0.00    -0.024 A 
ATOM     11  C   LIG    1        0.247  -2.674  -0.114  0.00  0.00    +0.005 A 
ATOM     12  C   LIG    1        0.313  -4.053  -0.055  0.00  0.00    +0.000 A 
ATOM     13  C   LIG    1        0.921  -4.761  -1.075  0.00  0.00    +0.000 A 
ATOM     14  C   LIG    1        1.463  -4.088  -2.155  0.00  0.00    +0.000 A 
ATOM     15  C   LIG    1        1.393  -2.709  -2.216  0.00  0.00    +0.005 A 
ENDBRANCH   1  10
BRANCH   1  17
ATOM     16  C   LIG    1       -0.019   1.526   0.010  0.00  0.00    +0.006 C 
ATOM     17  C   LIG    1        0.002  -0.004   0.002  0.00  0.00    +0.027 C 
ENDBRANCH   1  17
BRANCH   2  18
ATOM     18  O   LIG    1       -1.394  -0.546  -2.576  0.00  0.00    -0.496 OA
ATOM     19  H   LIG    1       -1.771  -1.085  -1.908  0.00  0.00    +0.293 HD
ENDBRANCH   2  18
TORSDOF 3
