REMARK  Name = ZINC02555360
REMARK                            x       y       z     vdW  Elec       q    Type
REMARK                         _______ _______ _______ _____ _____    ______ ____
ROOT
ATOM      1  C   LIG    1       -4.269  -4.479   0.019  0.00  0.00    +0.164 C 
ATOM      2  C   LIG    1       -4.424  -5.863   0.018  0.00  0.00    +0.040 C 
ATOM      3  C   LIG    1       -5.711  -6.391   0.028  0.00  0.00    +0.044 C 
ATOM      4  C   LIG    1       -6.270  -7.752   0.031  0.00  0.00    -0.022 A 
ATOM      5  C   LIG    1       -5.702  -9.024   0.026  0.00  0.00    +0.006 A 
ATOM      6  C   LIG    1       -6.515 -10.137   0.032  0.00  0.00    +0.000 A 
ATOM      7  C   LIG    1       -7.894  -9.995   0.043  0.00  0.00    +0.002 A 
ATOM      8  C   LIG    1       -8.469  -8.743   0.048  0.00  0.00    +0.023 A 
ATOM      9  C   LIG    1       -7.666  -7.606   0.042  0.00  0.00    +0.031 A 
ATOM     10  N   LIG    1       -7.964  -6.255   0.046  0.00  0.00    -0.339 N 
ATOM     11  H   LIG    1       -8.861  -5.887   0.053  0.00  0.00    +0.146 HD
ATOM     12  C   LIG    1       -6.808  -5.508   0.037  0.00  0.00    +0.092 C 
ATOM     13  C   LIG    1       -6.560  -4.135   0.036  0.00  0.00    +0.104 C 
ATOM     14  N   LIG    1       -5.330  -3.676   0.033  0.00  0.00    -0.302 NA
ATOM     15  H   LIG    1       -5.190  -2.716   0.037  0.00  0.00    +0.123 HD
ENDROOT
BRANCH   1  16
ATOM     16  C   LIG    1       -2.912  -3.896   0.009  0.00  0.00    +0.324 C 
ATOM     17  O   LIG    1       -1.938  -4.623  -0.004  0.00  0.00    -0.249 OA
BRANCH  16  18
ATOM     18  O   LIG    1       -2.753  -2.558   0.015  0.00  0.00    -0.464 OA
BRANCH  18  19
ATOM     19  C   LIG    1       -1.413  -2.063   0.004  0.00  0.00    +0.232 C 
BRANCH  19  20
ATOM     20  C   LIG    1       -1.433  -0.534   0.013  0.00  0.00    +0.041 C 
BRANCH  20  22
ATOM     21  C   LIG    1       -0.019   1.526   0.010  0.00  0.00    +0.004 C 
ATOM     22  C   LIG    1        0.002  -0.004   0.002  0.00  0.00    -0.000 C 
ENDBRANCH  20  22
ENDBRANCH  19  20
ENDBRANCH  18  19
ENDBRANCH  16  18
ENDBRANCH   1  16
TORSDOF 5
