REMARK  Name = ZINC02989649
REMARK                            x       y       z     vdW  Elec       q    Type
REMARK                         _______ _______ _______ _____ _____    ______ ____
ROOT
ATOM      1  N   LIG    1        5.947  -1.955   2.757  0.00  0.00    -0.311 N 
ATOM      2  H   LIG    1        5.405  -1.651   3.501  0.00  0.00    +0.149 HD
ATOM      3  C   LIG    1        7.106  -2.603   2.988  0.00  0.00    +0.248 C 
ATOM      4  O   LIG    1        7.786  -2.985   2.054  0.00  0.00    -0.270 OA
ENDROOT
BRANCH   3   5
ATOM      5  C   LIG    1        7.550  -2.850   4.373  0.00  0.00    +0.078 A 
ATOM      6  C   LIG    1        6.769  -2.420   5.448  0.00  0.00    +0.017 A 
ATOM      7  C   LIG    1        7.189  -2.654   6.739  0.00  0.00    +0.001 A 
ATOM      8  C   LIG    1        8.383  -3.315   6.977  0.00  0.00    +0.004 A 
ATOM      9  C   LIG    1        9.164  -3.747   5.924  0.00  0.00    +0.046 A 
ATOM     10  C   LIG    1        8.754  -3.524   4.617  0.00  0.00    +0.129 A 
BRANCH  10  11
ATOM     11  O   LIG    1        9.518  -3.952   3.582  0.00  0.00    -0.506 OA
ATOM     12  H   LIG    1       10.171  -3.305   3.281  0.00  0.00    +0.292 HD
ENDBRANCH  10  11
ENDBRANCH   3   5
BRANCH   1  13
ATOM     13  C   LIG    1        5.507  -1.710   1.381  0.00  0.00    +0.105 C 
BRANCH  13  14
ATOM     14  C   LIG    1        4.171  -0.963   1.399  0.00  0.00    +0.023 C 
BRANCH  14  15
ATOM     15  C   LIG    1        3.711  -0.707  -0.038  0.00  0.00    +0.036 C 
BRANCH  15  19
ATOM     16  C   LIG    1       -0.017   1.378   0.010  0.00  0.00    +0.000 A 
ATOM     17  C   LIG    1        1.171   2.086   0.002  0.00  0.00    +0.000 A 
ATOM     18  C   LIG    1        2.377   1.411  -0.013  0.00  0.00    +0.003 A 
ATOM     19  C   LIG    1        2.396   0.029  -0.020  0.00  0.00    -0.047 A 
ATOM     20  C   LIG    1        1.208  -0.679  -0.012  0.00  0.00    +0.003 A 
ATOM     21  C   LIG    1        0.002  -0.004   0.002  0.00  0.00    +0.000 A 
ENDBRANCH  15  19
ENDBRANCH  14  15
ENDBRANCH  13  14
ENDBRANCH   1  13
TORSDOF 6
