REMARK  Name = ZINC02572463
REMARK                            x       y       z     vdW  Elec       q    Type
REMARK                         _______ _______ _______ _____ _____    ______ ____
ROOT
ATOM      1  C   LIG    1        0.000   1.080   2.488  0.00  0.00    -0.035 A 
ATOM      2  C   LIG    1        1.130   0.297   2.345  0.00  0.00    +0.050 A 
ATOM      3  C   LIG    1        1.803  -0.156   3.470  0.00  0.00    +0.124 A 
ATOM      4  C   LIG    1        1.340   0.167   4.739  0.00  0.00    +0.039 A 
ATOM      5  C   LIG    1        0.203   0.945   4.881  0.00  0.00    +0.128 A 
ATOM      6  O   LIG    1       -0.294   1.278   6.100  0.00  0.00    -0.486 OA
ATOM      7  C   LIG    1        0.544   1.106   7.245  0.00  0.00    +0.109 C 
ATOM      8  C   LIG    1       -0.292   1.228   8.520  0.00  0.00    +0.055 C 
ATOM      9  C   LIG    1        1.643   2.171   7.244  0.00  0.00    +0.055 C 
ATOM     10  C   LIG    1        1.175  -0.286   7.173  0.00  0.00    +0.044 C 
ATOM     11  C   LIG    1        2.014  -0.561   8.422  0.00  0.00    +0.035 C 
ATOM     12  C   LIG    1        2.853  -1.793   8.193  0.00  0.00    -0.025 C 
ATOM     13  C   LIG    1        3.071  -2.328   7.034  0.00  0.00    -0.048 C 
ATOM     14  C   LIG    1        2.534  -1.784   5.739  0.00  0.00    +0.041 C 
ATOM     15  C   LIG    1        2.091  -0.334   5.941  0.00  0.00    +0.037 C 
ATOM     16  C   LIG    1       -0.464   1.400   3.747  0.00  0.00    +0.050 A 
ENDROOT
BRANCH   1  17
ATOM     17  C   LIG    1       -0.729   1.579   1.267  0.00  0.00    -0.010 C 
ATOM     18  C   LIG    1       -2.164   1.050   1.278  0.00  0.00    +0.016 C 
ATOM     19  C   LIG    1       -0.750   3.109   1.275  0.00  0.00    +0.016 C 
BRANCH  17  20
ATOM     20  C   LIG    1       -0.013   1.086   0.008  0.00  0.00    +0.011 C 
BRANCH  20  21
ATOM     21  C   LIG    1       -0.753   1.593  -1.232  0.00  0.00    +0.001 C 
BRANCH  21  22
ATOM     22  C   LIG    1       -0.037   1.099  -2.490  0.00  0.00    +0.000 C 
BRANCH  22  23
ATOM     23  C   LIG    1       -0.777   1.606  -3.730  0.00  0.00    -0.000 C 
BRANCH  23  25
ATOM     24  C   LIG    1       -0.800   1.619  -6.228  0.00  0.00    +0.004 C 
ATOM     25  C   LIG    1       -0.060   1.113  -4.989  0.00  0.00    -0.003 C 
ENDBRANCH  23  25
ENDBRANCH  22  23
ENDBRANCH  21  22
ENDBRANCH  20  21
ENDBRANCH  17  20
ENDBRANCH   1  17
BRANCH   3  26
ATOM     26  O   LIG    1        2.916  -0.923   3.330  0.00  0.00    -0.506 OA
ATOM     27  H   LIG    1        2.737  -1.872   3.292  0.00  0.00    +0.292 HD
ENDBRANCH   3  26
BRANCH  13  28
ATOM     28  C   LIG    1        3.917  -3.574   6.979  0.00  0.00    +0.186 C 
BRANCH  28  29
ATOM     29  O   LIG    1        4.329  -3.928   8.300  0.00  0.00    -0.391 OA
ATOM     30  H   LIG    1        4.878  -4.723   8.341  0.00  0.00    +0.210 HD
ENDBRANCH  28  29
ENDBRANCH  13  28
TORSDOF 9
