REMARK  Name = ZINC02568458
REMARK                            x       y       z     vdW  Elec       q    Type
REMARK                         _______ _______ _______ _____ _____    ______ ____
ROOT
ATOM      1  C   LIG    1       -0.018   1.503   0.010  0.00  0.00    +0.044 C 
ATOM      2  C   LIG    1        0.002  -0.004   0.002  0.00  0.00    -0.050 A 
ATOM      3  C   LIG    1        0.006  -0.689  -1.199  0.00  0.00    +0.005 A 
ATOM      4  C   LIG    1        0.025  -2.071  -1.206  0.00  0.00    +0.027 A 
ATOM      5  C   LIG    1        0.040  -2.768  -0.013  0.00  0.00    +0.093 A 
ATOM      6  C   LIG    1        0.037  -2.084   1.188  0.00  0.00    +0.027 A 
ATOM      7  C   LIG    1        0.023  -0.702   1.195  0.00  0.00    +0.005 A 
ENDROOT
BRANCH   5   8
ATOM      8  S   LIG    1        0.063  -4.530  -0.023  0.00  0.00    +0.019 S 
ATOM      9  O   LIG    1       -0.490  -4.937  -1.267  0.00  0.00    -0.165 OA
ATOM     10  O   LIG    1       -0.476  -4.950   1.223  0.00  0.00    -0.165 OA
BRANCH   8  11
ATOM     11  C   LIG    1        1.752  -5.029  -0.035  0.00  0.00    +0.150 C 
ATOM     12  C   LIG    1        2.258  -5.691   1.003  0.00  0.00    +0.108 C 
BRANCH  12  13
ATOM     13  C   LIG    1        3.632  -6.096   0.993  0.00  0.00    +0.093 C 
ATOM     14  N   LIG    1        4.721  -6.418   0.985  0.00  0.00    -0.191 NA
ENDBRANCH  12  13
ENDBRANCH   8  11
ENDBRANCH   5   8
TORSDOF 3
