REMARK  Name = ZINC02558182
REMARK                            x       y       z     vdW  Elec       q    Type
REMARK                         _______ _______ _______ _____ _____    ______ ____
ROOT
ATOM      1  C   LIG    1        2.497  -0.293   0.083  0.00  0.00    +0.136 C 
ATOM      2  C   LIG    1        2.471   1.082  -0.015  0.00  0.00    +0.034 C 
ENDROOT
BRANCH   2   3
ATOM      3  C   LIG    1        1.195   1.797   0.040  0.00  0.00    -0.020 A 
ATOM      4  C   LIG    1        1.040   3.015  -0.638  0.00  0.00    +0.012 A 
ATOM      5  C   LIG    1       -0.160   3.686  -0.581  0.00  0.00    +0.050 A 
ATOM      6  C   LIG    1       -1.224   3.155   0.139  0.00  0.00    +0.158 A 
ATOM      7  C   LIG    1       -1.079   1.944   0.817  0.00  0.00    +0.159 A 
ATOM      8  C   LIG    1        0.122   1.266   0.770  0.00  0.00    +0.057 A 
BRANCH   6   9
ATOM      9  O   LIG    1       -2.406   3.820   0.188  0.00  0.00    -0.503 OA
ATOM     10  H   LIG    1       -2.475   4.448   0.920  0.00  0.00    +0.292 HD
ENDBRANCH   6   9
BRANCH   7  11
ATOM     11  O   LIG    1       -2.122   1.432   1.524  0.00  0.00    -0.503 OA
ATOM     12  H   LIG    1       -2.150   1.718   2.447  0.00  0.00    +0.292 HD
ENDBRANCH   7  11
ENDBRANCH   2   3
BRANCH   1  13
ATOM     13  C   LIG    1        3.782  -0.999   0.178  0.00  0.00    +0.350 C 
ATOM     14  O   LIG    1        4.823  -0.371   0.172  0.00  0.00    -0.244 OA
BRANCH  13  15
ATOM     15  O   LIG    1        3.807  -2.344   0.274  0.00  0.00    -0.457 OA
BRANCH  15  16
ATOM     16  C   LIG    1        5.111  -2.974   0.365  0.00  0.00    +0.260 C 
BRANCH  16  18
ATOM     17  C   LIG    1        5.702  -5.272  -0.267  0.00  0.00    +0.007 C 
ATOM     18  C   LIG    1        4.941  -4.469   0.463  0.00  0.00    +0.014 C 
BRANCH  17  22
ATOM     19  C   LIG    1        5.223  -9.483   0.011  0.00  0.00    +0.000 A 
ATOM     20  C   LIG    1        6.173  -8.953  -0.843  0.00  0.00    +0.001 A 
ATOM     21  C   LIG    1        6.334  -7.586  -0.938  0.00  0.00    +0.008 A 
ATOM     22  C   LIG    1        5.535  -6.737  -0.171  0.00  0.00    -0.025 A 
ATOM     23  C   LIG    1        4.582  -7.279   0.693  0.00  0.00    +0.008 A 
ATOM     24  C   LIG    1        4.428  -8.647   0.775  0.00  0.00    +0.001 A 
ENDBRANCH  17  22
ENDBRANCH  16  18
ENDBRANCH  15  16
ENDBRANCH  13  15
ENDBRANCH   1  13
BRANCH   1  25
ATOM     25  C   LIG    1        1.271  -1.033   0.091  0.00  0.00    +0.106 C 
ATOM     26  N   LIG    1        0.298  -1.619   0.097  0.00  0.00    -0.191 NA
ENDBRANCH   1  25
TORSDOF 9
