REMARK  Name = ZINC03098930
REMARK                            x       y       z     vdW  Elec       q    Type
REMARK                         _______ _______ _______ _____ _____    ______ ____
ROOT
ATOM      1  C   LIG    1        3.697  -0.687  -0.037  0.00  0.00    +0.094 A 
ATOM      2  C   LIG    1        3.845  -1.911   0.646  0.00  0.00    +0.117 A 
ATOM      3  C   LIG    1        5.101  -2.552   0.594  0.00  0.00    +0.138 A 
ATOM      4  N   LIG    1        6.085  -1.981  -0.090  0.00  0.00    -0.212 NA
ATOM      5  C   LIG    1        5.901  -0.828  -0.719  0.00  0.00    +0.162 A 
ATOM      6  N   LIG    1        4.737  -0.192  -0.702  0.00  0.00    -0.226 NA
ENDROOT
BRANCH   1  10
ATOM      7  C   LIG    1       -0.017   1.379   0.010  0.00  0.00    +0.000 A 
ATOM      8  C   LIG    1        1.169   2.093   0.002  0.00  0.00    +0.001 A 
ATOM      9  C   LIG    1        2.377   1.428  -0.013  0.00  0.00    +0.010 A 
ATOM     10  C   LIG    1        2.403   0.033  -0.021  0.00  0.00    +0.002 A 
ATOM     11  C   LIG    1        1.205  -0.680  -0.013  0.00  0.00    +0.010 A 
ATOM     12  C   LIG    1        0.002  -0.004   0.002  0.00  0.00    +0.001 A 
ENDBRANCH   1  10
BRANCH   5  13
ATOM     13  C   LIG    1        7.032  -0.232  -1.469  0.00  0.00    +0.019 A 
ATOM     14  C   LIG    1        6.868   0.983  -2.134  0.00  0.00    +0.011 A 
ATOM     15  C   LIG    1        7.925   1.533  -2.830  0.00  0.00    +0.001 A 
ATOM     16  C   LIG    1        9.144   0.881  -2.870  0.00  0.00    +0.000 A 
ATOM     17  C   LIG    1        9.313  -0.324  -2.212  0.00  0.00    +0.001 A 
ATOM     18  C   LIG    1        8.265  -0.880  -1.507  0.00  0.00    +0.011 A 
ENDBRANCH   5  13
BRANCH   3  19
ATOM     19  N   LIG    1        5.304  -3.752   1.245  0.00  0.00    -0.342 N 
ATOM     20  H   LIG    1        6.170  -4.186   1.204  0.00  0.00    +0.144 HD
ATOM     21  H   LIG    1        4.579  -4.162   1.743  0.00  0.00    +0.144 HD
ENDBRANCH   3  19
BRANCH   2  22
ATOM     22  C   LIG    1        2.753  -2.487   1.371  0.00  0.00    +0.105 C 
ATOM     23  N   LIG    1        1.887  -2.944   1.947  0.00  0.00    -0.191 NA
ENDBRANCH   2  22
TORSDOF 4
