REMARK  Name = ZINC02516099
REMARK                            x       y       z     vdW  Elec       q    Type
REMARK                         _______ _______ _______ _____ _____    ______ ____
ROOT
ATOM      1  C   LIG    1        3.675   2.221  -0.023  0.00  0.00    -0.039 C 
ATOM      2  C   LIG    1        4.564   1.803  -1.196  0.00  0.00    -0.007 C 
ATOM      3  C   LIG    1        5.860   2.617  -1.169  0.00  0.00    -0.001 C 
ATOM      4  C   LIG    1        6.597   2.358   0.146  0.00  0.00    -0.000 C 
ATOM      5  C   LIG    1        5.708   2.775   1.320  0.00  0.00    -0.001 C 
ATOM      6  C   LIG    1        4.412   1.962   1.293  0.00  0.00    -0.007 C 
ENDROOT
BRANCH   1   7
ATOM      7  N   LIG    1        3.358   3.651  -0.133  0.00  0.00    +0.386 N 
ATOM      8  H   LIG    1        4.214   4.178  -0.224  0.00  0.00    -0.081 HD
ATOM      9  C   LIG    1        2.644   4.087   1.073  0.00  0.00    -0.078 C 
ATOM     10  C   LIG    1        2.383   5.592   1.000  0.00  0.00    -0.019 C 
ATOM     11  C   LIG    1        1.532   5.898  -0.236  0.00  0.00    -0.004 C 
ATOM     12  C   LIG    1        2.253   5.372  -1.482  0.00  0.00    -0.019 C 
ATOM     13  C   LIG    1        2.519   3.874  -1.316  0.00  0.00    -0.078 C 
ENDBRANCH   1   7
BRANCH   1  16
ATOM     14  C   LIG    1       -0.015   1.351  -0.032  0.00  0.00    +0.002 A 
ATOM     15  C   LIG    1        1.173   2.071  -0.007  0.00  0.00    +0.002 A 
ATOM     16  C   LIG    1        2.399   1.419  -0.049  0.00  0.00    -0.056 A 
ATOM     17  C   LIG    1        2.454   0.058  -0.115  0.00  0.00    +0.030 A 
ATOM     18  C   LIG    1        1.251  -0.692  -0.140  0.00  0.00    +0.074 A 
ATOM     19  C   LIG    1        0.007  -0.011  -0.097  0.00  0.00    +0.028 A 
BRANCH  18  20
ATOM     20  N   LIG    1        1.288  -2.014  -0.205  0.00  0.00    -0.197 NA
ATOM     21  C   LIG    1        0.223  -2.669  -0.227  0.00  0.00    +0.041 C 
ATOM     22  S   LIG    1       -1.100  -3.483  -0.254  0.00  0.00    +0.021 S 
ENDBRANCH  18  20
ENDBRANCH   1  16
TORSDOF 3
