REMARK  Name = ZINC02516824
REMARK                            x       y       z     vdW  Elec       q    Type
REMARK                         _______ _______ _______ _____ _____    ______ ____
ROOT
ATOM      1  N   ALA A  1        1.226   3.422   0.009  0.00  0.00    -0.272 N 
ATOM      2  H   ALA A  1        0.405   3.939   0.019  0.00  0.00    +0.153 HD
ATOM      3  C   UNK A  0        1.174   2.075   0.002  0.00  0.00    +0.401 C 
ATOM      4  O   UNK A  0        2.201   1.427  -0.011  0.00  0.00    -0.226 OA
ENDROOT
BRANCH   1   6
ATOM      5  CB  ALA A  1        3.018   4.239  -1.441  0.00  0.00    +0.036 C 
ATOM      6  CA  ALA A  1        2.522   4.105   0.000  0.00  0.00    +0.136 C 
BRANCH   6   7
ATOM      7  C   ALA A  1        2.372   5.475   0.609  0.00  0.00    +0.245 C 
ATOM      8  O   ALA A  1        3.072   5.803   1.537  0.00  0.00    -0.299 OA
ENDBRANCH   6   7
ENDBRANCH   1   6
BRANCH   3   9
ATOM      9  O   UNK A  0       -0.018   1.448   0.010  0.00  0.00    -0.445 OA
BRANCH   9  10
ATOM     10  C   UNK A  0        0.002  -0.004   0.002  0.00  0.00    +0.107 C 
ATOM     11  C   UNK A  0        0.718  -0.497  -1.257  0.00  0.00    +0.055 C 
ATOM     12  C   UNK A  0       -1.433  -0.534   0.013  0.00  0.00    +0.055 C 
ATOM     13  C   UNK A  0        0.742  -0.511   1.242  0.00  0.00    +0.055 C 
ENDBRANCH   9  10
ENDBRANCH   3   9
TORSDOF 4
