REMARK  Name = ZINC02572351
REMARK                            x       y       z     vdW  Elec       q    Type
REMARK                         _______ _______ _______ _____ _____    ______ ____
ROOT
ATOM      1  C   LIG    1        2.071   5.323  -1.437  0.00  0.00    +0.402 C 
ATOM      2  N   LIG    1        2.193   4.100  -0.885  0.00  0.00    -0.268 N 
ATOM      3  H   LIG    1        3.076   3.482  -1.107  0.00  0.00    +0.153 HD
ATOM      4  O   LIG    1        1.096   6.005  -1.193  0.00  0.00    -0.226 OA
ENDROOT
BRANCH   1   5
ATOM      5  O   LIG    1        3.030   5.789  -2.260  0.00  0.00    -0.445 OA
BRANCH   5   7
ATOM      6  C   LIG    1        2.731   8.136  -1.684  0.00  0.00    +0.055 C 
ATOM      7  C   LIG    1        2.832   7.114  -2.819  0.00  0.00    +0.107 C 
ATOM      8  C   LIG    1        1.540   7.135  -3.639  0.00  0.00    +0.055 C 
ATOM      9  C   LIG    1        4.015   7.470  -3.721  0.00  0.00    +0.055 C 
ENDBRANCH   5   7
ENDBRANCH   1   5
BRANCH   2  10
ATOM     10  CA  LIG    1        1.151   3.592   0.010  0.00  0.00    +0.169 C 
BRANCH  10  11
ATOM     11  C   LIG    1        1.171   2.086   0.002  0.00  0.00    -0.020 A 
ATOM     12  C   LIG    1       -0.017   1.378   0.010  0.00  0.00    +0.006 A 
ATOM     13  C   LIG    1        0.002  -0.004   0.002  0.00  0.00    +0.000 A 
ATOM     14  C   LIG    1        1.208  -0.679  -0.014  0.00  0.00    +0.000 A 
ATOM     15  C   LIG    1        2.396   0.029  -0.021  0.00  0.00    +0.000 A 
ATOM     16  C   LIG    1        2.377   1.411  -0.014  0.00  0.00    +0.006 A 
ENDBRANCH  10  11
BRANCH  10  17
ATOM     17  C   LIG    1        1.403   4.091   1.409  0.00  0.00    +0.250 C 
ATOM     18  O   LIG    1        2.357   4.797   1.636  0.00  0.00    -0.299 OA
ENDBRANCH  10  17
ENDBRANCH   2  10
TORSDOF 5
