REMARK  Name = ZINC03206636
REMARK                            x       y       z     vdW  Elec       q    Type
REMARK                         _______ _______ _______ _____ _____    ______ ____
ROOT
ATOM      1  C   LIG    1       -0.392   1.758   4.016  0.00  0.00    +0.034 A 
ATOM      2  C   LIG    1       -1.571   2.393   3.647  0.00  0.00    +0.023 A 
ATOM      3  C   LIG    1       -2.494   2.746   4.611  0.00  0.00    +0.009 A 
ATOM      4  C   LIG    1       -2.241   2.478   5.944  0.00  0.00    +0.002 A 
ATOM      5  C   LIG    1       -1.066   1.851   6.315  0.00  0.00    +0.009 A 
ATOM      6  C   LIG    1       -0.141   1.490   5.355  0.00  0.00    +0.023 A 
ENDROOT
BRANCH   1   8
ATOM      7  C   LIG    1        1.261   0.262   3.186  0.00  0.00    +0.255 C 
ATOM      8  N   LIG    1        0.543   1.393   3.040  0.00  0.00    -0.283 N 
ATOM      9  H   LIG    1        0.673   1.954   2.260  0.00  0.00    +0.155 HD
ATOM     10  O   LIG    1        1.162  -0.393   4.201  0.00  0.00    -0.272 OA
BRANCH   7  11
ATOM     11  C   LIG    1        2.188  -0.188   2.086  0.00  0.00    +0.324 C 
BRANCH  11  12
ATOM     12  O   LIG    1        2.832  -1.403   2.473  0.00  0.00    -0.483 OA
BRANCH  12  16
ATOM     13  C   LIG    1        5.489  -3.055  -0.216  0.00  0.00    +0.000 A 
ATOM     14  C   LIG    1        5.257  -3.678   0.996  0.00  0.00    +0.004 A 
ATOM     15  C   LIG    1        4.368  -3.127   1.899  0.00  0.00    +0.045 A 
ATOM     16  C   LIG    1        3.707  -1.948   1.587  0.00  0.00    +0.121 A 
ATOM     17  C   LIG    1        3.937  -1.328   0.367  0.00  0.00    +0.045 A 
ATOM     18  C   LIG    1        4.832  -1.879  -0.529  0.00  0.00    +0.004 A 
ENDBRANCH  12  16
ENDBRANCH  11  12
ENDBRANCH   7  11
ENDBRANCH   1   8
BRANCH   4  19
ATOM     19  C   LIG    1       -3.248   2.871   6.994  0.00  0.00    +0.282 C 
BRANCH  19  20
ATOM     20  C   LIG    1       -4.565   2.136   6.737  0.00  0.00    +0.431 C 
ATOM     21  F   LIG    1       -5.053   2.481   5.472  0.00  0.00    -0.167 F 
ATOM     22  F   LIG    1       -5.500   2.500   7.712  0.00  0.00    -0.167 F 
ATOM     23  F   LIG    1       -4.347   0.755   6.793  0.00  0.00    -0.167 F 
ENDBRANCH  19  20
BRANCH  19  24
ATOM     24  C   LIG    1       -3.486   4.381   6.933  0.00  0.00    +0.431 C 
ATOM     25  F   LIG    1       -2.263   5.051   7.042  0.00  0.00    -0.167 F 
ATOM     26  F   LIG    1       -4.323   4.764   7.987  0.00  0.00    -0.167 F 
ATOM     27  F   LIG    1       -4.091   4.709   5.715  0.00  0.00    -0.167 F 
ENDBRANCH  19  24
BRANCH  19  28
ATOM     28  O   LIG    1       -2.750   2.519   8.286  0.00  0.00    -0.369 OA
ATOM     29  H   LIG    1       -1.915   2.949   8.517  0.00  0.00    +0.211 HD
ENDBRANCH  19  28
ENDBRANCH   4  19
TORSDOF 8
