REMARK  Name = ZINC03073566
REMARK                            x       y       z     vdW  Elec       q    Type
REMARK                         _______ _______ _______ _____ _____    ______ ____
ROOT
ATOM      1  C   LIG    1        2.397   0.011  -0.021  0.00  0.00    +0.045 A 
ATOM      2  C   LIG    1        2.385   1.407  -0.014  0.00  0.00    +0.041 A 
ATOM      3  C   LIG    1        1.167   2.088   0.002  0.00  0.00    +0.045 A 
ATOM      4  C   LIG    1       -0.017   1.379   0.010  0.00  0.00    +0.124 A 
ATOM      5  C   LIG    1        0.002  -0.004   0.002  0.00  0.00    +0.065 A 
ATOM      6  C   LIG    1        1.206  -0.686  -0.013  0.00  0.00    +0.124 A 
ENDROOT
BRANCH   2   7
ATOM      7  C   LIG    1        3.657   2.160  -0.023  0.00  0.00    +0.245 C 
ATOM      8  N   LIG    1        3.642   3.508  -0.015  0.00  0.00    -0.303 N 
ATOM      9  H   LIG    1        2.797   3.984  -0.004  0.00  0.00    +0.150 HD
ATOM     10  O   LIG    1        4.716   1.564  -0.037  0.00  0.00    -0.270 OA
BRANCH   8  11
ATOM     11  C   LIG    1        4.903   4.254  -0.024  0.00  0.00    +0.201 C 
BRANCH  11  12
ATOM     12  C   LIG    1        4.611   5.733  -0.013  0.00  0.00    +0.243 C 
ATOM     13  N   LIG    1        5.626   6.620  -0.019  0.00  0.00    -0.252 N 
ATOM     14  H   LIG    1        6.543   6.307  -0.030  0.00  0.00    +0.169 HD
ATOM     15  O   LIG    1        3.463   6.125   0.001  0.00  0.00    -0.273 OA
BRANCH  13  16
ATOM     16  N   LIG    1        5.361   7.960  -0.009  0.00  0.00    -0.254 NA
ATOM     17  H   LIG    1        4.767   8.217  -0.783  0.00  0.00    +0.140 HD
ATOM     18  H   LIG    1        6.215   8.497  -0.015  0.00  0.00    +0.140 HD
ENDBRANCH  13  16
ENDBRANCH  11  12
ENDBRANCH   8  11
ENDBRANCH   2   7
BRANCH   4  19
ATOM     19  N   LIG    1       -1.309   2.100   0.020  0.00  0.00    +0.006 N 
ATOM     20  O   LIG    1       -2.355   1.476   0.021  0.00  0.00    -0.130 OA
BRANCH  19  21
ATOM     21  O   LIG    1       -1.327   3.318   0.026  0.00  0.00    -0.396 OA
ATOM     22  H   LIG    1       -0.523   3.799   0.025  0.00  0.00    +0.329 HD
ENDBRANCH  19  21
ENDBRANCH   4  19
BRANCH   6  23
ATOM     23  N   LIG    1        1.217  -2.166  -0.021  0.00  0.00    +0.006 N 
ATOM     24  O   LIG    1        0.166  -2.782  -0.015  0.00  0.00    -0.130 OA
BRANCH  23  25
ATOM     25  O   LIG    1        2.276  -2.767  -0.035  0.00  0.00    -0.396 OA
ATOM     26  H   LIG    1        3.084  -2.293  -0.040  0.00  0.00    +0.329 HD
ENDBRANCH  23  25
ENDBRANCH   6  23
TORSDOF 8
