REMARK  Name = ZINC03119736
REMARK                            x       y       z     vdW  Elec       q    Type
REMARK                         _______ _______ _______ _____ _____    ______ ____
ROOT
ATOM      1  C   LIG    1       -0.054   4.250   0.004  0.00  0.00    +0.133 A 
ATOM      2  C   LIG    1        0.270   3.540   1.152  0.00  0.00    +0.047 A 
ATOM      3  C   LIG    1        0.292   2.161   1.128  0.00  0.00    +0.014 A 
ATOM      4  C   LIG    1       -0.012   1.481  -0.050  0.00  0.00    +0.003 A 
ATOM      5  C   LIG    1       -0.332   2.197  -1.202  0.00  0.00    +0.014 A 
ATOM      6  C   LIG    1       -0.357   3.576  -1.170  0.00  0.00    +0.047 A 
ENDROOT
BRANCH   4   7
ATOM      7  C   LIG    1        0.011  -0.003  -0.080  0.00  0.00    +0.102 A 
ATOM      8  C   LIG    1       -0.283  -0.736  -1.202  0.00  0.00    +0.097 A 
ATOM      9  S   LIG    1       -0.084  -2.350  -0.606  0.00  0.00    +0.029 S 
ATOM     10  N   LIG    1        0.312  -2.025   0.887  0.00  0.00    -0.110 NA
ATOM     11  N   LIG    1        0.311  -0.744   0.976  0.00  0.00    -0.141 NA
ENDBRANCH   4   7
BRANCH   1  12
ATOM     12  O   LIG    1       -0.074   5.609   0.031  0.00  0.00    -0.412 OA
BRANCH  12  15
ATOM     13  N   LIG    1       -1.361   7.546  -0.160  0.00  0.00    -0.281 N 
ATOM     14  H   LIG    1       -0.553   8.083  -0.167  0.00  0.00    +0.152 HD
ATOM     15  C   LIG    1       -1.279   6.205  -0.059  0.00  0.00    +0.406 C 
ATOM     16  O   LIG    1       -2.291   5.532  -0.050  0.00  0.00    -0.226 OA
BRANCH  13  17
ATOM     17  C   LIG    1       -2.671   8.194  -0.258  0.00  0.00    +0.107 C 
BRANCH  17  18
ATOM     18  C   LIG    1       -2.485   9.709  -0.361  0.00  0.00    +0.019 C 
BRANCH  18  20
ATOM     19  C   LIG    1       -3.667  11.901  -0.566  0.00  0.00    +0.004 C 
ATOM     20  C   LIG    1       -3.853  10.386  -0.463  0.00  0.00    -0.002 C 
ENDBRANCH  18  20
ENDBRANCH  17  18
ENDBRANCH  13  17
ENDBRANCH  12  15
ENDBRANCH   1  12
TORSDOF 6
