REMARK  Name = ZINC02662217
REMARK                            x       y       z     vdW  Elec       q    Type
REMARK                         _______ _______ _______ _____ _____    ______ ____
ROOT
ATOM      1  C   LIG    1        1.715  -2.638  -0.028  0.00  0.00    +0.222 C 
ATOM      2  N   LIG    1        2.397  -1.476  -0.028  0.00  0.00    -0.279 N 
ATOM      3  H   LIG    1        3.497  -1.484  -0.038  0.00  0.00    +0.155 HD
ATOM      4  O   LIG    1        0.502  -2.629  -0.016  0.00  0.00    -0.275 OA
ENDROOT
BRANCH   2   5
ATOM      5  C   LIG    1        1.713  -0.270  -0.016  0.00  0.00    +0.084 A 
ATOM      6  C   LIG    1        2.234   1.018  -0.014  0.00  0.00    +0.065 A 
ATOM      7  C   LIG    1        1.283   2.104   0.001  0.00  0.00    +0.022 A 
ATOM      8  C   LIG    1       -0.022   1.776   0.012  0.00  0.00    +0.048 A 
ATOM      9  S   LIG    1        0.002  -0.004   0.002  0.00  0.00    -0.081 S 
BRANCH   6  10
ATOM     10  C   LIG    1        3.680   1.263  -0.027  0.00  0.00    +0.244 C 
ATOM     11  N   LIG    1        4.149   2.527  -0.024  0.00  0.00    -0.325 N 
ATOM     12  H   LIG    1        3.448   3.374  -0.013  0.00  0.00    +0.145 HD
ATOM     13  H   LIG    1        5.234   2.710  -0.034  0.00  0.00    +0.145 HD
ATOM     14  O   LIG    1        4.456   0.326  -0.040  0.00  0.00    -0.270 OA
ENDBRANCH   6  10
ENDBRANCH   2   5
BRANCH   1  15
ATOM     15  C   LIG    1        2.458  -3.949  -0.041  0.00  0.00    +0.133 C 
BRANCH  15  21
ATOM     16  C   LIG    1        0.100  -6.158  -3.436  0.00  0.00    +0.001 A 
ATOM     17  C   LIG    1       -0.718  -7.172  -2.955  0.00  0.00    +0.002 A 
ATOM     18  C   LIG    1       -0.779  -7.445  -1.606  0.00  0.00    +0.026 A 
ATOM     19  C   LIG    1       -0.016  -6.698  -0.715  0.00  0.00    +0.047 A 
ATOM     20  C   LIG    1        0.811  -5.672  -1.207  0.00  0.00    +0.003 A 
ATOM     21  C   LIG    1        1.470  -5.087  -0.037  0.00  0.00    -0.014 A 
ATOM     22  C   LIG    1        1.032  -5.761   1.038  0.00  0.00    +0.087 A 
ATOM     23  N   LIG    1        0.140  -6.723   0.653  0.00  0.00    -0.360 N 
ATOM     24  H   LIG    1       -0.420  -7.453   1.256  0.00  0.00    +0.165 HD
ATOM     25  C   LIG    1        0.858  -5.412  -2.579  0.00  0.00    +0.010 A 
ENDBRANCH  15  21
ENDBRANCH   1  15
TORSDOF 4
