REMARK  Name = ZINC03067704
REMARK                            x       y       z     vdW  Elec       q    Type
REMARK                         _______ _______ _______ _____ _____    ______ ____
ROOT
ATOM      1  C   LIG    1       -0.019   1.526   0.010  0.00  0.00    +0.166 C 
ENDROOT
BRANCH   1   3
ATOM      2  C   LIG    1       -2.048   2.109   1.227  0.00  0.00    +0.401 C 
ATOM      3  N   LIG    1       -0.704   1.998   1.216  0.00  0.00    -0.269 N 
ATOM      4  H   LIG    1       -0.192   2.232   2.006  0.00  0.00    +0.153 HD
ATOM      5  O   LIG    1       -2.690   1.816   0.238  0.00  0.00    -0.226 OA
BRANCH   2   6
ATOM      6  O   LIG    1       -2.678   2.543   2.335  0.00  0.00    -0.445 OA
BRANCH   6   8
ATOM      7  C   LIG    1       -4.715   1.256   1.982  0.00  0.00    +0.055 C 
ATOM      8  C   LIG    1       -4.125   2.637   2.276  0.00  0.00    +0.107 C 
ATOM      9  C   LIG    1       -4.528   3.610   1.166  0.00  0.00    +0.055 C 
ATOM     10  C   LIG    1       -4.659   3.144   3.617  0.00  0.00    +0.055 C 
ENDBRANCH   6   8
ENDBRANCH   2   6
ENDBRANCH   1   3
BRANCH   1  11
ATOM     11  C   LIG    1        1.395   2.047  -0.000  0.00  0.00    +0.234 C 
ATOM     12  N   LIG    1        2.220   1.739  -1.021  0.00  0.00    -0.302 N 
ATOM     13  H   LIG    1        1.903   1.181  -1.748  0.00  0.00    +0.150 HD
ATOM     14  O   LIG    1        1.791   2.745   0.909  0.00  0.00    -0.274 OA
BRANCH  12  15
ATOM     15  C   LIG    1        3.594   2.246  -1.031  0.00  0.00    +0.163 C 
BRANCH  15  16
ATOM     16  C   LIG    1        3.614   3.631  -1.624  0.00  0.00    +0.231 C 
ATOM     17  N   LIG    1        4.779   4.299  -1.736  0.00  0.00    -0.328 N 
ATOM     18  H   LIG    1        4.792   5.191  -2.118  0.00  0.00    +0.145 HD
ATOM     19  H   LIG    1        5.604   3.889  -1.434  0.00  0.00    +0.145 HD
ATOM     20  O   LIG    1        2.582   4.144  -2.001  0.00  0.00    -0.274 OA
ENDBRANCH  15  16
BRANCH  15  21
ATOM     21  C   LIG    1        4.474   1.318  -1.872  0.00  0.00    +0.067 C 
BRANCH  21  22
ATOM     22  C   LIG    1        4.553  -0.034  -1.212  0.00  0.00    -0.045 A 
ATOM     23  C   LIG    1        5.556  -0.300  -0.298  0.00  0.00    +0.004 A 
ATOM     24  C   LIG    1        5.625  -1.539   0.311  0.00  0.00    +0.000 A 
ATOM     25  C   LIG    1        4.698  -2.515  -0.001  0.00  0.00    +0.000 A 
ATOM     26  C   LIG    1        3.698  -2.252  -0.918  0.00  0.00    +0.000 A 
ATOM     27  C   LIG    1        3.625  -1.011  -1.523  0.00  0.00    +0.004 A 
ENDBRANCH  21  22
ENDBRANCH  15  21
ENDBRANCH  12  15
ENDBRANCH   1  11
BRANCH   1  28
ATOM     28  C   LIG    1        0.002  -0.004   0.002  0.00  0.00    +0.067 C 
BRANCH  28  29
ATOM     29  C   LIG    1       -1.407  -0.525  -0.111  0.00  0.00    -0.045 A 
ATOM     30  C   LIG    1       -2.145  -0.777   1.031  0.00  0.00    +0.004 A 
ATOM     31  C   LIG    1       -3.440  -1.250   0.927  0.00  0.00    +0.000 A 
ATOM     32  C   LIG    1       -3.993  -1.481  -0.319  0.00  0.00    +0.000 A 
ATOM     33  C   LIG    1       -3.254  -1.234  -1.460  0.00  0.00    +0.000 A 
ATOM     34  C   LIG    1       -1.961  -0.756  -1.357  0.00  0.00    +0.004 A 
ENDBRANCH  28  29
ENDBRANCH   1  28
TORSDOF 10
