REMARK  Name = ZINC02893312
REMARK                            x       y       z     vdW  Elec       q    Type
REMARK                         _______ _______ _______ _____ _____    ______ ____
ROOT
ATOM      1  S   LIG    1       -2.653   0.992  -0.008  0.00  0.00    +0.025 S 
ATOM      2  O   LIG    1       -2.349  -0.252  -0.625  0.00  0.00    -0.164 OA
ATOM      3  O   LIG    1       -3.660   1.863  -0.504  0.00  0.00    -0.164 OA
ENDROOT
BRANCH   1   8
ATOM      4  C   LIG    1        1.242   1.988  -0.011  0.00  0.00    +0.003 A 
ATOM      5  C   LIG    1        1.207   3.366   0.057  0.00  0.00    +0.015 A 
ATOM      6  C   LIG    1       -0.015   4.027   0.110  0.00  0.00    +0.015 A 
ATOM      7  C   LIG    1       -1.197   3.296   0.094  0.00  0.00    +0.042 A 
ATOM      8  C   LIG    1       -1.154   1.919   0.020  0.00  0.00    +0.095 A 
ATOM      9  C   LIG    1        0.064   1.264  -0.028  0.00  0.00    +0.027 A 
BRANCH   6  10
ATOM     10  S   LIG    1       -0.065   5.786   0.196  0.00  0.00    -0.089 S 
BRANCH  10  11
ATOM     11  C   LIG    1        0.038   6.299  -1.487  0.00  0.00    +0.013 A 
ATOM     12  C   LIG    1        0.019   5.352  -2.503  0.00  0.00    +0.017 A 
ATOM     13  C   LIG    1        0.093   5.754  -3.822  0.00  0.00    +0.024 A 
ATOM     14  C   LIG    1        0.198   7.104  -4.132  0.00  0.00    +0.025 A 
ATOM     15  C   LIG    1        0.222   8.050  -3.115  0.00  0.00    +0.024 A 
ATOM     16  C   LIG    1        0.142   7.649  -1.797  0.00  0.00    +0.017 A 
BRANCH  14  17
ATOM     17  N   LIG    1        0.279   7.511  -5.468  0.00  0.00    -0.358 N 
ATOM     18  H   LIG    1        0.262   6.851  -6.179  0.00  0.00    +0.142 HD
ATOM     19  H   LIG    1        0.352   8.454  -5.685  0.00  0.00    +0.142 HD
ENDBRANCH  14  17
ENDBRANCH  10  11
ENDBRANCH   6  10
ENDBRANCH   1   8
BRANCH   1  20
ATOM     20  C   LIG    1       -3.075   0.634   1.665  0.00  0.00    +0.095 A 
ATOM     21  C   LIG    1       -2.615  -0.526   2.260  0.00  0.00    +0.027 A 
ATOM     22  C   LIG    1       -2.941  -0.809   3.574  0.00  0.00    +0.003 A 
ATOM     23  C   LIG    1       -3.735   0.062   4.293  0.00  0.00    +0.015 A 
ATOM     24  C   LIG    1       -4.203   1.226   3.697  0.00  0.00    +0.015 A 
ATOM     25  C   LIG    1       -3.870   1.510   2.377  0.00  0.00    +0.042 A 
BRANCH  24  26
ATOM     26  S   LIG    1       -5.218   2.341   4.610  0.00  0.00    -0.089 S 
BRANCH  26  27
ATOM     27  C   LIG    1       -5.231   1.667   6.238  0.00  0.00    +0.013 A 
ATOM     28  C   LIG    1       -6.266   0.830   6.635  0.00  0.00    +0.017 A 
ATOM     29  C   LIG    1       -6.274   0.297   7.909  0.00  0.00    +0.024 A 
ATOM     30  C   LIG    1       -5.253   0.609   8.797  0.00  0.00    +0.025 A 
ATOM     31  C   LIG    1       -4.222   1.451   8.403  0.00  0.00    +0.024 A 
ATOM     32  C   LIG    1       -4.211   1.979   7.128  0.00  0.00    +0.017 A 
BRANCH  30  33
ATOM     33  N   LIG    1       -5.264   0.074  10.091  0.00  0.00    -0.358 N 
ATOM     34  H   LIG    1       -5.984  -0.515  10.366  0.00  0.00    +0.142 HD
ATOM     35  H   LIG    1       -4.551   0.291  10.712  0.00  0.00    +0.142 HD
ENDBRANCH  30  33
ENDBRANCH  26  27
ENDBRANCH  24  26
ENDBRANCH   1  20
TORSDOF 8
