REMARK  Name = ZINC02712331
REMARK                            x       y       z     vdW  Elec       q    Type
REMARK                         _______ _______ _______ _____ _____    ______ ____
ROOT
ATOM      1  C   LIG    1        1.938  -4.487   2.342  0.00  0.00    +0.130 A 
ATOM      2  C   LIG    1        2.804  -3.587   2.935  0.00  0.00    +0.046 A 
ATOM      3  C   LIG    1        4.025  -4.009   3.442  0.00  0.00    +0.004 A 
ATOM      4  C   LIG    1        4.402  -5.332   3.366  0.00  0.00    +0.014 A 
ATOM      5  C   LIG    1        3.546  -6.260   2.772  0.00  0.00    +0.050 A 
ATOM      6  C   LIG    1        3.897  -7.680   2.664  0.00  0.00    +0.260 A 
ATOM      7  O   LIG    1        4.960  -8.087   3.098  0.00  0.00    -0.267 OA
ATOM      8  N   LIG    1        3.022  -8.533   2.096  0.00  0.00    -0.306 N 
ATOM      9  C   LIG    1        1.820  -8.119   1.596  0.00  0.00    +0.090 A 
ATOM     10  C   LIG    1        1.423  -6.837   1.649  0.00  0.00    +0.030 A 
ATOM     11  C   LIG    1        2.299  -5.837   2.260  0.00  0.00    +0.030 A 
ENDROOT
BRANCH   1  12
ATOM     12  O   LIG    1        0.744  -4.065   1.848  0.00  0.00    -0.477 OA
BRANCH  12  13
ATOM     13  C   LIG    1        0.497  -2.658   1.862  0.00  0.00    +0.278 C 
ATOM     14  C   LIG    1       -0.061  -2.251   3.228  0.00  0.00    +0.064 C 
BRANCH  13  15
ATOM     15  C   LIG    1       -0.502  -2.313   0.788  0.00  0.00    +0.348 C 
ATOM     16  O   LIG    1       -1.024  -3.192   0.144  0.00  0.00    -0.247 OA
BRANCH  15  17
ATOM     17  O   LIG    1       -0.813  -1.030   0.547  0.00  0.00    -0.462 OA
BRANCH  17  19
ATOM     18  C   LIG    1       -1.992   0.733  -0.613  0.00  0.00    +0.048 C 
ATOM     19  C   LIG    1       -1.768  -0.776  -0.485  0.00  0.00    +0.229 C 
ENDBRANCH  17  19
ENDBRANCH  15  17
ENDBRANCH  13  15
ENDBRANCH  12  13
ENDBRANCH   1  12
BRANCH   8  20
ATOM     20  C   LIG    1        3.378  -9.951   1.998  0.00  0.00    +0.220 C 
BRANCH  20  21
ATOM     21  C   LIG    1        4.107 -10.197   0.702  0.00  0.00    +0.237 C 
ATOM     22  N   LIG    1        4.534 -11.438   0.395  0.00  0.00    -0.284 N 
ATOM     23  H   LIG    1        4.309 -12.185   0.971  0.00  0.00    +0.155 HD
ATOM     24  O   LIG    1        4.309  -9.279  -0.064  0.00  0.00    -0.274 OA
BRANCH  22  25
ATOM     25  C   LIG    1        5.303 -11.649  -0.757  0.00  0.00    +0.037 A 
ATOM     26  C   LIG    1        5.179 -12.835  -1.468  0.00  0.00    +0.027 A 
ATOM     27  C   LIG    1        5.938 -13.044  -2.603  0.00  0.00    +0.051 A 
ATOM     28  C   LIG    1        6.824 -12.070  -3.038  0.00  0.00    +0.162 A 
ATOM     29  C   LIG    1        6.949 -10.880  -2.330  0.00  0.00    +0.164 A 
ATOM     30  O   LIG    1        7.808  -9.909  -2.745  0.00  0.00    -0.485 OA
ATOM     31  C   LIG    1        8.823 -10.302  -3.675  0.00  0.00    +0.270 C 
ATOM     32  C   LIG    1        8.165 -11.150  -4.773  0.00  0.00    +0.270 C 
ATOM     33  O   LIG    1        7.567 -12.295  -4.157  0.00  0.00    -0.485 OA
ATOM     34  C   LIG    1        6.185 -10.670  -1.192  0.00  0.00    +0.072 A 
ENDBRANCH  22  25
ENDBRANCH  20  21
ENDBRANCH   8  20
TORSDOF 8
