REMARK  Name = ZINC03632418
REMARK                            x       y       z     vdW  Elec       q    Type
REMARK                         _______ _______ _______ _____ _____    ______ ____
ROOT
ATOM      1  C   LIG    1       -2.680   3.583   0.047  0.00  0.00    +0.256 C 
ATOM      2  C   LIG    1       -1.236   3.152   0.031  0.00  0.00    +0.045 A 
ATOM      3  C   LIG    1       -0.049   3.852   0.023  0.00  0.00    +0.011 A 
ATOM      4  C   LIG    1        1.155   3.168   0.008  0.00  0.00    +0.001 A 
ATOM      5  C   LIG    1        1.171   1.785   0.001  0.00  0.00    +0.001 A 
ATOM      6  C   LIG    1       -0.013   1.076   0.008  0.00  0.00    +0.016 A 
ATOM      7  C   LIG    1       -1.228   1.760   0.017  0.00  0.00    +0.071 A 
ATOM      8  C   LIG    1       -2.635   1.271   0.035  0.00  0.00    +0.276 C 
ATOM      9  N   LIG    1       -3.265   0.121   0.035  0.00  0.00    -0.271 N 
ATOM     10  H   LIG    1       -2.809  -0.799   0.026  0.00  0.00    +0.304 HD
ATOM     11  C   LIG    1       -4.718   0.341   0.050  0.00  0.00    +0.277 C 
ATOM     12  C   LIG    1       -4.872   1.873   0.060  0.00  0.00    +0.274 C 
ATOM     13  N   LIG    1       -3.479   2.352   0.049  0.00  0.00    -0.183 N 
ENDROOT
BRANCH   1  17
ATOM     14  C   LIG    1       -3.557   5.900  -3.432  0.00  0.00    +0.000 A 
ATOM     15  C   LIG    1       -3.041   6.513  -2.305  0.00  0.00    +0.000 A 
ATOM     16  C   LIG    1       -2.757   5.763  -1.179  0.00  0.00    +0.011 A 
ATOM     17  C   LIG    1       -2.989   4.400  -1.180  0.00  0.00    +0.031 A 
ATOM     18  C   LIG    1       -3.499   3.787  -2.309  0.00  0.00    +0.011 A 
ATOM     19  C   LIG    1       -3.788   4.537  -3.433  0.00  0.00    +0.000 A 
ENDBRANCH   1  17
BRANCH   1  20
ATOM     20  O   LIG    1       -2.951   4.345   1.225  0.00  0.00    -0.346 OA
ATOM     21  H   LIG    1       -2.434   5.159   1.294  0.00  0.00    +0.215 HD
ENDBRANCH   1  20
TORSDOF 2
