REMARK  Name = ZINC03614431
REMARK                            x       y       z     vdW  Elec       q    Type
REMARK                         _______ _______ _______ _____ _____    ______ ____
ROOT
ATOM      1  C   LIG    1       -0.828   7.513  -3.770  0.00  0.00    +0.001 A 
ATOM      2  C   LIG    1        0.341   6.782  -3.666  0.00  0.00    +0.001 A 
ATOM      3  C   LIG    1        0.679   6.174  -2.469  0.00  0.00    +0.011 A 
ATOM      4  C   LIG    1       -0.151   6.298  -1.377  0.00  0.00    +0.045 A 
ATOM      5  C   LIG    1       -1.330   7.033  -1.473  0.00  0.00    +0.071 A 
ATOM      6  C   LIG    1       -2.027   7.001  -0.157  0.00  0.00    +0.276 C 
ATOM      7  N   LIG    1       -3.127   7.476   0.372  0.00  0.00    -0.271 N 
ATOM      8  H   LIG    1       -3.816   8.055  -0.123  0.00  0.00    +0.304 HD
ATOM      9  C   LIG    1       -3.233   7.061   1.779  0.00  0.00    +0.277 C 
ATOM     10  C   LIG    1       -1.964   6.222   2.024  0.00  0.00    +0.274 C 
ATOM     11  N   LIG    1       -1.280   6.258   0.721  0.00  0.00    -0.183 N 
ATOM     12  C   LIG    1       -0.076   5.774   0.034  0.00  0.00    +0.256 C 
ATOM     13  C   LIG    1       -1.667   7.643  -2.682  0.00  0.00    +0.016 A 
ENDROOT
BRANCH  12  14
ATOM     14  C   LIG    1       -0.056   4.267   0.025  0.00  0.00    +0.031 A 
ATOM     15  C   LIG    1        1.151   3.592   0.010  0.00  0.00    +0.011 A 
ATOM     16  C   LIG    1        1.169   2.210   0.003  0.00  0.00    +0.013 A 
ATOM     17  C   LIG    1       -0.018   1.503   0.010  0.00  0.00    +0.055 A 
ATOM     18  C   LIG    1       -1.225   2.178   0.020  0.00  0.00    +0.013 A 
ATOM     19  C   LIG    1       -1.244   3.560   0.033  0.00  0.00    +0.011 A 
BRANCH  17  20
ATOM     20  C   LIG    1        0.002  -0.004   0.002  0.00  0.00    +0.417 C 
ATOM     21  F   LIG    1        1.144  -0.451  -0.671  0.00  0.00    -0.166 F 
ATOM     22  F   LIG    1       -1.140  -0.482  -0.649  0.00  0.00    -0.166 F 
ATOM     23  F   LIG    1        0.021  -0.477   1.318  0.00  0.00    -0.166 F 
ENDBRANCH  17  20
ENDBRANCH  12  14
BRANCH  12  24
ATOM     24  O   LIG    1        1.094   6.276   0.683  0.00  0.00    -0.346 OA
ATOM     25  H   LIG    1        1.923   6.001   0.268  0.00  0.00    +0.215 HD
ENDBRANCH  12  24
TORSDOF 3
