REMARK  Name = ZINC02539764
REMARK                            x       y       z     vdW  Elec       q    Type
REMARK                         _______ _______ _______ _____ _____    ______ ____
ROOT
ATOM      1  C   LIG    1        1.222  -0.653  -0.013  0.00  0.00    +0.022 A 
ATOM      2  C   LIG    1        0.002  -0.004   0.002  0.00  0.00    +0.039 A 
ATOM      3  C   LIG    1       -0.017   1.370   0.010  0.00  0.00    +0.045 A 
ATOM      4  C   LIG    1        1.202   2.048   0.002  0.00  0.00    +0.095 A 
ATOM      5  S   LIG    1        2.379   0.706  -0.017  0.00  0.00    -0.082 S 
ENDROOT
BRANCH   1   9
ATOM      6  C   LIG    1        2.018  -4.825  -0.041  0.00  0.00    +0.000 A 
ATOM      7  C   LIG    1        3.068  -3.924  -0.047  0.00  0.00    +0.001 A 
ATOM      8  C   LIG    1        2.816  -2.567  -0.038  0.00  0.00    +0.009 A 
ATOM      9  C   LIG    1        1.499  -2.105  -0.023  0.00  0.00    -0.011 A 
ATOM     10  C   LIG    1        0.445  -3.020  -0.011  0.00  0.00    +0.009 A 
ATOM     11  C   LIG    1        0.711  -4.373  -0.026  0.00  0.00    +0.001 A 
ENDBRANCH   1   9
BRANCH   4  12
ATOM     12  C   LIG    1        1.444   3.442   0.006  0.00  0.00    +0.250 C 
ATOM     13  N   LIG    1        2.709   3.907  -0.003  0.00  0.00    -0.325 N 
ATOM     14  H   LIG    1        2.875   4.863   0.000  0.00  0.00    +0.145 HD
ATOM     15  H   LIG    1        3.454   3.286  -0.013  0.00  0.00    +0.145 HD
ATOM     16  O   LIG    1        0.509   4.222   0.019  0.00  0.00    -0.270 OA
ENDBRANCH   4  12
BRANCH   3  17
ATOM     17  N   LIG    1       -1.222   2.068   0.019  0.00  0.00    -0.357 N 
ATOM     18  H   LIG    1       -1.221   3.038   0.024  0.00  0.00    +0.142 HD
ATOM     19  H   LIG    1       -2.062   1.584   0.021  0.00  0.00    +0.142 HD
ENDBRANCH   3  17
TORSDOF 3
