REMARK  Name = ZINC02581100
REMARK                            x       y       z     vdW  Elec       q    Type
REMARK                         _______ _______ _______ _____ _____    ______ ____
ROOT
ATOM      1  C   LIG    1        2.462   3.930  -0.000  0.00  0.00    +0.044 C 
ATOM      2  C   LIG    1        1.160   3.171   0.008  0.00  0.00    -0.046 A 
ATOM      3  C   LIG    1       -0.034   3.859   0.024  0.00  0.00    +0.028 A 
ATOM      4  C   LIG    1       -1.237   3.160   0.031  0.00  0.00    +0.051 A 
ATOM      5  C   LIG    1       -1.225   1.756   0.017  0.00  0.00    +0.061 A 
ATOM      6  N   LIG    1       -2.423   1.062   0.019  0.00  0.00    -0.355 N 
ATOM      7  H   LIG    1       -2.434  -0.038   0.013  0.00  0.00    +0.166 HD
ATOM      8  C   LIG    1       -3.606   1.760   0.028  0.00  0.00    +0.041 C 
ATOM      9  C   LIG    1       -3.595   3.164   0.035  0.00  0.00    +0.155 C 
ATOM     10  C   LIG    1       -0.013   1.076   0.008  0.00  0.00    +0.031 A 
ATOM     11  N   LIG    1       -2.442   3.837   0.047  0.00  0.00    -0.337 N 
ATOM     12  H   LIG    1       -2.447   4.937   0.068  0.00  0.00    +0.147 HD
ATOM     13  C   LIG    1        1.172   1.784   0.000  0.00  0.00    -0.045 A 
ATOM     14  C   LIG    1        2.486   1.045  -0.016  0.00  0.00    +0.044 C 
ENDROOT
BRANCH   8  15
ATOM     15  C   LIG    1       -4.834   1.066   0.029  0.00  0.00    -0.000 C 
ATOM     16  C   LIG    1       -4.843  -0.338   0.021  0.00  0.00    +0.064 C 
ATOM     17  C   LIG    1       -6.049  -1.017   0.022  0.00  0.00    +0.226 C 
ATOM     18  C   LIG    1       -7.312  -0.254   0.032  0.00  0.00    +0.225 C 
ATOM     19  C   LIG    1       -7.277   1.159   0.041  0.00  0.00    +0.055 C 
ATOM     20  O   LIG    1       -8.382  -0.841   0.034  0.00  0.00    -0.284 OA
ATOM     21  O   LIG    1       -6.069  -2.350   0.014  0.00  0.00    -0.284 OA
ATOM     22  C   LIG    1       -6.091   1.811   0.044  0.00  0.00    +0.013 C 
ENDBRANCH   8  15
TORSDOF 1
