REMARK  Name = ZINC02530685
REMARK                            x       y       z     vdW  Elec       q    Type
REMARK                         _______ _______ _______ _____ _____    ______ ____
ROOT
ATOM      1  C   LIG    1        2.479   4.898   1.190  0.00  0.00    +0.091 C 
ATOM      2  C   LIG    1        2.091   6.372   1.385  0.00  0.00    -0.057 C 
ATOM      3  C   LIG    1        0.548   6.453   1.429  0.00  0.00    -0.017 C 
ATOM      4  C   LIG    1        0.119   6.624  -0.044  0.00  0.00    -0.017 C 
ATOM      5  C   LIG    1        1.442   6.631  -0.843  0.00  0.00    -0.071 C 
ATOM      6  C   LIG    1        1.784   5.175  -1.200  0.00  0.00    -0.007 C 
ATOM      7  N   LIG    1        2.460   7.094   0.138  0.00  0.00    +0.383 N 
ATOM      8  H   LIG    1        3.483   6.817  -0.157  0.00  0.00    -0.085 HD
ATOM      9  H   LIG    1        2.409   8.179   0.313  0.00  0.00    -0.085 HD
ATOM     10  C   LIG    1        1.637   4.309   0.054  0.00  0.00    +0.030 C 
ENDROOT
BRANCH  10  11
ATOM     11  C   LIG    1        0.189   4.272   0.472  0.00  0.00    -0.043 A 
ATOM     12  C   LIG    1       -0.141   4.122   1.805  0.00  0.00    +0.007 A 
ATOM     13  C   LIG    1       -1.469   4.088   2.189  0.00  0.00    +0.038 A 
ATOM     14  C   LIG    1       -2.467   4.200   1.236  0.00  0.00    +0.123 A 
ATOM     15  F   LIG    1       -3.765   4.161   1.610  0.00  0.00    -0.205 F 
ATOM     16  C   LIG    1       -2.135   4.356  -0.099  0.00  0.00    +0.038 A 
ATOM     17  C   LIG    1       -0.807   4.389  -0.480  0.00  0.00    +0.007 A 
ENDBRANCH  10  11
BRANCH   1  18
ATOM     18  C   LIG    1        2.216   4.134   2.462  0.00  0.00    +0.309 C 
ATOM     19  O   LIG    1        2.115   2.930   2.434  0.00  0.00    -0.251 OA
BRANCH  18  21
ATOM     20  C   LIG    1        1.841   3.991   4.811  0.00  0.00    +0.280 C 
ATOM     21  O   LIG    1        2.094   4.791   3.626  0.00  0.00    -0.468 OA
ENDBRANCH  18  21
ENDBRANCH   1  18
TORSDOF 3
