REMARK  Name = ZINC02841697
REMARK                            x       y       z     vdW  Elec       q    Type
REMARK                         _______ _______ _______ _____ _____    ______ ____
ROOT
ATOM      1  C   LIG    1       -0.514  -6.547  -3.265  0.00  0.00    +0.255 C 
ATOM      2  N   LIG    1        0.084  -7.081  -2.182  0.00  0.00    -0.283 N 
ATOM      3  H   LIG    1        0.563  -6.510  -1.561  0.00  0.00    +0.155 HD
ATOM      4  O   LIG    1       -1.041  -7.269  -4.085  0.00  0.00    -0.272 OA
ENDROOT
BRANCH   2   5
ATOM      5  C   LIG    1        0.013  -8.459  -1.952  0.00  0.00    +0.034 A 
ATOM      6  C   LIG    1       -0.076  -8.944  -0.653  0.00  0.00    +0.023 A 
ATOM      7  C   LIG    1       -0.146 -10.306  -0.430  0.00  0.00    +0.003 A 
ATOM      8  C   LIG    1       -0.129 -11.185  -1.497  0.00  0.00    -0.064 A 
ATOM      9  C   LIG    1       -0.040 -10.705  -2.791  0.00  0.00    +0.003 A 
ATOM     10  C   LIG    1        0.024  -9.345  -3.021  0.00  0.00    +0.023 A 
BRANCH   8  11
ATOM     11  C   LIG    1       -0.205 -12.669  -1.249  0.00  0.00    -0.043 C 
BRANCH  11  12
ATOM     12  N   LIG    1       -1.612 -13.092  -1.240  0.00  0.00    +0.382 N 
ATOM     13  H   LIG    1       -2.053 -12.806  -2.101  0.00  0.00    -0.081 HD
ATOM     14  C   LIG    1       -2.303 -12.465  -0.108  0.00  0.00    -0.078 C 
ATOM     15  C   LIG    1       -3.787 -12.837  -0.141  0.00  0.00    -0.019 C 
ATOM     16  C   LIG    1       -3.928 -14.359  -0.047  0.00  0.00    -0.004 C 
ATOM     17  C   LIG    1       -3.141 -15.006  -1.191  0.00  0.00    -0.019 C 
ATOM     18  C   LIG    1       -1.681 -14.553  -1.119  0.00  0.00    -0.078 C 
ENDBRANCH  11  12
ENDBRANCH   8  11
ENDBRANCH   2   5
BRANCH   1  19
ATOM     19  C   LIG    1       -0.527  -5.052  -3.458  0.00  0.00    +0.324 C 
BRANCH  19  20
ATOM     20  O   LIG    1       -1.214  -4.735  -4.670  0.00  0.00    -0.483 OA
BRANCH  20  25
ATOM     21  C   LIG    1       -1.633   0.718  -6.019  0.00  0.00    +0.044 C 
ATOM     22  C   LIG    1       -1.521  -0.741  -5.658  0.00  0.00    -0.050 A 
ATOM     23  C   LIG    1       -0.870  -1.117  -4.498  0.00  0.00    +0.007 A 
ATOM     24  C   LIG    1       -0.765  -2.453  -4.165  0.00  0.00    +0.046 A 
ATOM     25  C   LIG    1       -1.315  -3.419  -4.995  0.00  0.00    +0.124 A 
ATOM     26  C   LIG    1       -1.969  -3.039  -6.158  0.00  0.00    -0.009 A 
ATOM     27  C   LIG    1       -2.568  -4.085  -7.063  0.00  0.00    +0.047 C 
ATOM     28  C   LIG    1       -2.075  -1.701  -6.484  0.00  0.00    +0.010 A 
ENDBRANCH  20  25
ENDBRANCH  19  20
ENDBRANCH   1  19
TORSDOF 6
