REMARK  Name = ZINC03157622
REMARK                            x       y       z     vdW  Elec       q    Type
REMARK                         _______ _______ _______ _____ _____    ______ ____
ROOT
ATOM      1  C   LIG    1        3.650   2.151  -0.022  0.00  0.00    +0.026 C 
ATOM      2  C   LIG    1        3.637   3.527  -0.119  0.00  0.00    +0.100 C 
ATOM      3  C   LIG    1        2.373   4.291  -0.100  0.00  0.00    +0.256 C 
ATOM      4  N   LIG    1        2.439   5.634  -0.199  0.00  0.00    -0.236 N 
ATOM      5  H   LIG    1        1.618   6.151  -0.189  0.00  0.00    +0.159 HD
ATOM      6  C   LIG    1        3.612   6.272  -0.313  0.00  0.00    +0.313 C 
ATOM      7  N   LIG    1        4.797   5.646  -0.337  0.00  0.00    -0.236 N 
ATOM      8  H   LIG    1        5.608   6.171  -0.421  0.00  0.00    +0.159 HD
ATOM      9  O   LIG    1        3.601   7.484  -0.398  0.00  0.00    -0.252 OA
ATOM     10  O   LIG    1        1.302   3.724   0.003  0.00  0.00    -0.270 OA
ATOM     11  C   LIG    1        4.888   4.304  -0.240  0.00  0.00    +0.256 C 
ATOM     12  O   LIG    1        5.970   3.748  -0.258  0.00  0.00    -0.270 OA
ENDROOT
BRANCH   1  15
ATOM     13  C   LIG    1        0.299   0.984  -1.226  0.00  0.00    +0.003 A 
ATOM     14  C   LIG    1        1.475   1.698  -1.137  0.00  0.00    +0.008 A 
ATOM     15  C   LIG    1        2.397   1.398  -0.125  0.00  0.00    -0.022 A 
ATOM     16  C   LIG    1        2.114   0.372   0.787  0.00  0.00    +0.040 A 
ATOM     17  C   LIG    1        0.933  -0.331   0.682  0.00  0.00    +0.122 A 
ATOM     18  C   LIG    1        0.028  -0.027  -0.321  0.00  0.00    +0.032 A 
BRANCH  17  19
ATOM     19  N   LIG    1        0.632  -1.415   1.644  0.00  0.00    +0.006 N 
ATOM     20  O   LIG    1        1.421  -1.682   2.521  0.00  0.00    -0.130 OA
BRANCH  19  21
ATOM     21  O   LIG    1       -0.403  -2.033   1.554  0.00  0.00    -0.396 OA
ATOM     22  H   LIG    1       -1.014  -1.826   0.874  0.00  0.00    +0.329 HD
ENDBRANCH  19  21
ENDBRANCH  17  19
ENDBRANCH   1  15
TORSDOF 3
