REMARK  Name = ZINC03612862
REMARK                            x       y       z     vdW  Elec       q    Type
REMARK                         _______ _______ _______ _____ _____    ______ ____
ROOT
ATOM      1  C   LIG    1        4.420   2.055   3.094  0.00  0.00    +0.165 A 
ATOM      2  C   LIG    1        3.893   2.075   1.809  0.00  0.00    +0.054 A 
ATOM      3  C   LIG    1        3.072   1.053   1.377  0.00  0.00    -0.033 A 
ATOM      4  C   LIG    1        2.782  -0.006   2.231  0.00  0.00    +0.024 A 
ATOM      5  C   LIG    1        3.316  -0.032   3.527  0.00  0.00    +0.174 A 
ATOM      6  O   LIG    1        3.015  -1.079   4.340  0.00  0.00    -0.480 OA
ATOM      7  C   LIG    1        2.845  -2.355   3.721  0.00  0.00    +0.200 C 
ATOM      8  C   LIG    1        1.938  -2.246   2.524  0.00  0.00    +0.018 C 
ATOM      9  C   LIG    1        1.912  -1.124   1.807  0.00  0.00    +0.011 C 
ATOM     10  C   LIG    1        4.134   1.000   3.955  0.00  0.00    +0.204 A 
ENDROOT
BRANCH   7  11
ATOM     11  C   LIG    1        4.210  -2.883   3.272  0.00  0.00    +0.034 C 
ATOM     12  C   LIG    1        4.595  -4.300   3.704  0.00  0.00    +0.008 C 
ATOM     13  C   LIG    1        5.276  -3.091   4.350  0.00  0.00    +0.008 C 
ENDBRANCH   7  11
BRANCH   1  15
ATOM     14  C   LIG    1        5.477   4.122   2.578  0.00  0.00    +0.277 C 
ATOM     15  O   LIG    1        5.223   3.069   3.511  0.00  0.00    -0.491 OA
ENDBRANCH   1  15
BRANCH  10  16
ATOM     16  O   LIG    1        4.657   0.982   5.211  0.00  0.00    -0.488 OA
ATOM     17  C   LIG    1        5.925   0.345   5.378  0.00  0.00    +0.277 C 
ENDBRANCH  10  16
BRANCH   3  18
ATOM     18  C   LIG    1        2.499   1.080  -0.017  0.00  0.00    +0.043 C 
BRANCH  18  19
ATOM     19  C   LIG    1        1.151   1.753   0.008  0.00  0.00    +0.039 C 
ATOM     20  C   LIG    1       -0.008   1.010   0.122  0.00  0.00    +0.090 C 
ATOM     21  N   LIG    1       -1.241   1.591   0.140  0.00  0.00    -0.289 NA
ATOM     22  H   LIG    1       -2.060   1.024   0.215  0.00  0.00    +0.125 HD
ATOM     23  C   LIG    1       -1.249   2.952   0.051  0.00  0.00    +0.192 C 
ATOM     24  N   LIG    1       -0.162   3.700  -0.059  0.00  0.00    -0.274 NA
ATOM     25  H   LIG    1       -0.169   4.344   0.732  0.00  0.00    +0.126 HD
ATOM     26  C   LIG    1        1.045   3.143  -0.084  0.00  0.00    +0.126 C 
BRANCH  23  27
ATOM     27  N   LIG    1       -2.490   3.564   0.074  0.00  0.00    -0.303 NA
ATOM     28  H   LIG    1       -3.294   3.027   0.155  0.00  0.00    +0.121 HD
ATOM     29  H   LIG    1       -2.556   4.529   0.010  0.00  0.00    +0.121 HD
ENDBRANCH  23  27
BRANCH  26  30
ATOM     30  N   LIG    1        2.180   3.928  -0.200  0.00  0.00    -0.315 NA
ATOM     31  H   LIG    1        2.098   4.892  -0.263  0.00  0.00    +0.120 HD
ATOM     32  H   LIG    1        3.057   3.513  -0.218  0.00  0.00    +0.120 HD
ENDBRANCH  26  30
ENDBRANCH  18  19
ENDBRANCH   3  18
TORSDOF 7
