REMARK  Name = ZINC03245914
REMARK                            x       y       z     vdW  Elec       q    Type
REMARK                         _______ _______ _______ _____ _____    ______ ____
ROOT
ATOM      1  C   LIG    1        1.276  -7.196  -1.710  0.00  0.00    +0.189 A 
ATOM      2  N   LIG    1        1.278  -6.553  -0.553  0.00  0.00    -0.125 NA
ATOM      3  N   LIG    1        1.262  -5.293  -0.489  0.00  0.00    -0.133 NA
ATOM      4  C   LIG    1        1.243  -4.536  -1.576  0.00  0.00    +0.160 A 
ATOM      5  S   LIG    1        1.240  -5.806  -2.838  0.00  0.00    -0.024 S 
ENDROOT
BRANCH   1   7
ATOM      6  C   LIG    1        1.310  -9.445  -0.955  0.00  0.00    +0.251 C 
ATOM      7  N   LIG    1        1.290  -8.562  -1.974  0.00  0.00    -0.259 N 
ATOM      8  H   LIG    1        1.286  -8.879  -2.890  0.00  0.00    +0.157 HD
ATOM      9  O   LIG    1        1.315  -9.048   0.194  0.00  0.00    -0.270 OA
BRANCH   6  15
ATOM     10  C   LIG    1        1.334 -12.711  -2.808  0.00  0.00    +0.001 A 
ATOM     11  C   LIG    1        1.354 -13.615  -1.760  0.00  0.00    +0.001 A 
ATOM     12  C   LIG    1        1.360 -13.168  -0.452  0.00  0.00    +0.021 A 
ATOM     13  C   LIG    1        1.346 -11.813  -0.182  0.00  0.00    +0.053 A 
ATOM     14 CL   LIG    1        1.353 -11.253   1.461  0.00  0.00    -0.083 Cl
ATOM     15  C   LIG    1        1.325 -10.895  -1.235  0.00  0.00    +0.055 A 
ATOM     16  C   LIG    1        1.314 -11.356  -2.554  0.00  0.00    +0.014 A 
ENDBRANCH   6  15
ENDBRANCH   1   7
BRANCH   4  17
ATOM     17  S   LIG    1        1.219  -2.782  -1.734  0.00  0.00    -0.092 S 
BRANCH  17  18
ATOM     18  C   LIG    1        1.227  -2.186  -0.021  0.00  0.00    +0.111 C 
BRANCH  18  19
ATOM     19  C   LIG    1        1.208  -0.679  -0.013  0.00  0.00    -0.037 A 
ATOM     20  C   LIG    1        0.002  -0.004   0.002  0.00  0.00    +0.007 A 
ATOM     21  C   LIG    1       -0.017   1.378   0.010  0.00  0.00    +0.038 A 
ATOM     22  C   LIG    1        1.173   2.086   0.002  0.00  0.00    +0.123 A 
ATOM     23  F   LIG    1        1.156   3.437   0.009  0.00  0.00    -0.205 F 
ATOM     24  C   LIG    1        2.381   1.408  -0.013  0.00  0.00    +0.038 A 
ATOM     25  C   LIG    1        2.397   0.026  -0.020  0.00  0.00    +0.007 A 
ENDBRANCH  18  19
ENDBRANCH  17  18
ENDBRANCH   4  17
TORSDOF 5
