REMARK  Name = ZINC02516045
REMARK                            x       y       z     vdW  Elec       q    Type
REMARK                         _______ _______ _______ _____ _____    ______ ____
ROOT
ATOM      1  C   LIG    1       -0.016   1.357   0.009  0.00  0.00    +0.001 A 
ATOM      2  C   LIG    1        1.169   2.090   0.002  0.00  0.00    +0.001 A 
ATOM      3  C   LIG    1        2.378   1.466  -0.013  0.00  0.00    +0.010 A 
ATOM      4  C   LIG    1        2.437   0.064  -0.021  0.00  0.00    +0.003 A 
ATOM      5  C   LIG    1        1.233  -0.683  -0.013  0.00  0.00    -0.016 A 
ATOM      6  C   LIG    1        1.290  -2.087  -0.020  0.00  0.00    +0.008 A 
ATOM      7  C   LIG    1        2.496  -2.719  -0.034  0.00  0.00    +0.002 A 
ATOM      8  C   LIG    1        3.685  -1.997  -0.041  0.00  0.00    +0.024 A 
ATOM      9  C   LIG    1        3.673  -0.618  -0.036  0.00  0.00    +0.037 A 
ATOM     10  C   LIG    1        0.002  -0.004   0.002  0.00  0.00    +0.008 A 
ENDROOT
BRANCH   9  11
ATOM     11  N   LIG    1        4.869   0.096  -0.044  0.00  0.00    -0.333 N 
ATOM     12  C   LIG    1        5.534   0.472   1.214  0.00  0.00    +0.086 C 
ATOM     13  C   LIG    1        7.003   0.046   1.133  0.00  0.00    -0.063 C 
ATOM     14  N   LIG    1        7.614   0.622  -0.072  0.00  0.00    +0.381 N 
ATOM     15  H   LIG    1        8.599   0.404  -0.085  0.00  0.00    -0.086 HD
ATOM     16  H   LIG    1        7.494   1.624  -0.062  0.00  0.00    -0.086 HD
ATOM     17  C   LIG    1        6.975   0.067  -1.271  0.00  0.00    -0.063 C 
ATOM     18  C   LIG    1        5.507   0.490  -1.310  0.00  0.00    +0.086 C 
ENDBRANCH   9  11
TORSDOF 1
