REMARK  Name = ZINC02522589
REMARK                            x       y       z     vdW  Elec       q    Type
REMARK                         _______ _______ _______ _____ _____    ______ ____
ROOT
ATOM      1  N   GLU A  2       -0.525   3.210   1.688  0.00  0.00    -0.304 N 
ATOM      2  H   GLU A  2        0.071   3.803   1.205  0.00  0.00    +0.149 HD
ATOM      3  C   ASP A  1       -0.723   1.951   1.250  0.00  0.00    +0.200 C 
ATOM      4  O   ASP A  1       -1.469   1.209   1.854  0.00  0.00    -0.278 OA
ENDROOT
BRANCH   1   5
ATOM      5  CA  GLU A  2       -1.211   3.682   2.893  0.00  0.00    +0.182 C 
BRANCH   5   6
ATOM      6  C   GLU A  2       -2.586   4.180   2.527  0.00  0.00    +0.325 C 
ATOM      7  O   GLU A  2       -2.954   4.144   1.377  0.00  0.00    -0.249 OA
BRANCH   6   8
ATOM      8  OXT GLU A  2       -3.400   4.663   3.478  0.00  0.00    -0.479 OA
ATOM      9  HXT GLU A  2       -3.114   4.692   4.370  0.00  0.00    +0.295 HD
ENDBRANCH   6   8
ENDBRANCH   5   6
BRANCH   5  10
ATOM     10  CB  GLU A  2       -0.407   4.822   3.524  0.00  0.00    +0.045 C 
BRANCH  10  11
ATOM     11  CG  GLU A  2        0.941   4.287   4.009  0.00  0.00    +0.123 C 
BRANCH  11  12
ATOM     12  CD  GLU A  2        1.733   5.409   4.630  0.00  0.00    +0.305 C 
ATOM     13  OE1 GLU A  2        1.266   6.522   4.679  0.00  0.00    -0.251 OA
BRANCH  12  14
ATOM     14  OE2 GLU A  2        2.956   5.171   5.128  0.00  0.00    -0.481 OA
ATOM     15  HE2 GLU A  2        3.318   4.308   5.090  0.00  0.00    +0.295 HD
ENDBRANCH  12  14
ENDBRANCH  11  12
ENDBRANCH  10  11
ENDBRANCH   5  10
ENDBRANCH   1   5
BRANCH   3  16
ATOM     16  CA  ASP A  1       -0.018   1.465   0.010  0.00  0.00    +0.023 C 
BRANCH  16  17
ATOM     17  N   ASP A  1        0.014  -0.008   0.024  0.00  0.00    +0.386 N 
ATOM     18  H1  ASP A  1        0.485  -0.328   0.879  0.00  0.00    -0.089 HD
ATOM     19  H2  ASP A  1        0.526  -0.354  -0.786  0.00  0.00    -0.089 HD
ATOM     20  H3  ASP A  1       -0.935  -0.378   0.009  0.00  0.00    -0.089 HD
ENDBRANCH  16  17
BRANCH  16  21
ATOM     21  CB  ASP A  1       -0.758   1.972  -1.229  0.00  0.00    +0.113 C 
BRANCH  21  22
ATOM     22  CG  ASP A  1        0.014   1.590  -2.466  0.00  0.00    +0.304 C 
ATOM     23  OD1 ASP A  1        1.050   0.976  -2.367  0.00  0.00    -0.251 OA
BRANCH  22  24
ATOM     24  OD2 ASP A  1       -0.449   1.933  -3.679  0.00  0.00    -0.481 OA
ATOM     25  HD2 ASP A  1       -1.252   2.409  -3.756  0.00  0.00    +0.295 HD
ENDBRANCH  22  24
ENDBRANCH  21  22
ENDBRANCH  16  21
ENDBRANCH   3  16
TORSDOF 12
