REMARK  Name = ZINC02769764
REMARK                            x       y       z     vdW  Elec       q    Type
REMARK                         _______ _______ _______ _____ _____    ______ ____
ROOT
ATOM      1  N   LIG    1        3.620  -0.649  -0.037  0.00  0.00    -0.251 N 
ATOM      2  C   LIG    1        3.778  -2.110  -0.053  0.00  0.00    +0.137 C 
ATOM      3  C   LIG    1        5.302  -2.331  -0.067  0.00  0.00    +0.118 C 
ATOM      4  C   LIG    1        5.882  -0.935  -0.058  0.00  0.00    +0.231 C 
ATOM      5  O   LIG    1        7.064  -0.663  -0.065  0.00  0.00    -0.274 OA
ATOM      6  N   LIG    1        4.877  -0.049  -0.048  0.00  0.00    -0.234 N 
ATOM      7  H   LIG    1        5.011   0.912  -0.044  0.00  0.00    +0.173 HD
ENDROOT
BRANCH   1  11
ATOM      8  C   LIG    1       -0.017   1.379   0.010  0.00  0.00    +0.000 A 
ATOM      9  C   LIG    1        1.169   2.089   0.002  0.00  0.00    +0.002 A 
ATOM     10  C   LIG    1        2.377   1.420  -0.013  0.00  0.00    +0.025 A 
ATOM     11  C   LIG    1        2.400   0.031  -0.021  0.00  0.00    +0.048 A 
ATOM     12  C   LIG    1        1.206  -0.680  -0.013  0.00  0.00    +0.025 A 
ATOM     13  C   LIG    1        0.002  -0.004   0.002  0.00  0.00    +0.002 A 
ENDBRANCH   1  11
TORSDOF 1
