REMARK  Name = ZINC02890656
REMARK                            x       y       z     vdW  Elec       q    Type
REMARK                         _______ _______ _______ _____ _____    ______ ____
ROOT
ATOM      1  C   LIG    1       -1.743  -1.032  -1.428  0.00  0.00    +0.110 C 
ENDROOT
BRANCH   1   2
ATOM      2  N   LIG    1       -3.001  -1.783  -1.420  0.00  0.00    -0.299 N 
ATOM      3  H   LIG    1       -3.406  -2.042  -0.578  0.00  0.00    +0.150 HD
ATOM      4  C   LIG    1       -3.595  -2.115  -2.583  0.00  0.00    +0.304 C 
ATOM      5  N   LIG    1       -4.752  -2.807  -2.576  0.00  0.00    -0.269 N 
ATOM      6  H   LIG    1       -5.122  -3.123  -1.737  0.00  0.00    +0.156 HD
ATOM      7  O   LIG    1       -3.088  -1.791  -3.640  0.00  0.00    -0.253 OA
BRANCH   5   8
ATOM      8  C   LIG    1       -5.419  -3.067  -3.779  0.00  0.00    +0.036 A 
ATOM      9  C   LIG    1       -6.808  -3.078  -3.816  0.00  0.00    +0.025 A 
ATOM     10  C   LIG    1       -7.464  -3.335  -5.003  0.00  0.00    +0.023 A 
ATOM     11  C   LIG    1       -6.740  -3.584  -6.156  0.00  0.00    +0.059 A 
ATOM     12 CL   LIG    1       -7.569  -3.908  -7.646  0.00  0.00    -0.082 Cl
ATOM     13  C   LIG    1       -5.356  -3.574  -6.122  0.00  0.00    +0.061 A 
ATOM     14 CL   LIG    1       -4.451  -3.887  -7.570  0.00  0.00    -0.082 Cl
ATOM     15  C   LIG    1       -4.695  -3.311  -4.937  0.00  0.00    +0.044 A 
ENDBRANCH   5   8
ENDBRANCH   1   2
BRANCH   1  16
ATOM     16  C   LIG    1       -1.286  -0.787   0.011  0.00  0.00    +0.054 C 
BRANCH  16  22
ATOM     17  C   LIG    1       -0.013   1.368   0.019  0.00  0.00    +0.005 A 
ATOM     18  C   LIG    1        1.174   2.077   0.012  0.00  0.00    +0.029 A 
ATOM     19  C   LIG    1        2.381   1.404  -0.012  0.00  0.00    +0.105 A 
ATOM     20  C   LIG    1        2.402   0.022  -0.028  0.00  0.00    +0.029 A 
ATOM     21  C   LIG    1        1.215  -0.687  -0.020  0.00  0.00    +0.005 A 
ATOM     22  C   LIG    1        0.008  -0.014   0.003  0.00  0.00    -0.046 A 
BRANCH  19  23
ATOM     23  S   LIG    1        3.894   2.308  -0.023  0.00  0.00    +0.056 S 
ATOM     24  O   LIG    1        3.596   3.591  -0.555  0.00  0.00    -0.153 OA
ATOM     25  O   LIG    1        4.873   1.453  -0.597  0.00  0.00    -0.153 OA
BRANCH  23  26
ATOM     26  N   LIG    1        4.335   2.541   1.556  0.00  0.00    -0.204 NA
ATOM     27  H   LIG    1        3.656   2.611   2.245  0.00  0.00    +0.144 HD
ATOM     28  H   LIG    1        5.274   2.608   1.792  0.00  0.00    +0.144 HD
ENDBRANCH  23  26
ENDBRANCH  19  23
ENDBRANCH  16  22
ENDBRANCH   1  16
TORSDOF 6
