REMARK  Name = ZINC03582665
REMARK                            x       y       z     vdW  Elec       q    Type
REMARK                         _______ _______ _______ _____ _____    ______ ____
ROOT
ATOM      1  C   UNK A  0        1.617  -2.011  -0.025  0.00  0.00    +0.150 A 
ATOM      2  N   UNK A  1        0.656  -2.908  -0.026  0.00  0.00    -0.218 NA
ATOM      3  C   UNK A  1        0.910  -4.225  -0.037  0.00  0.00    +0.196 A 
ATOM      4  C   UNK A  1        2.226  -4.671  -0.047  0.00  0.00    +0.215 A 
ATOM      5  C   UNK A  1        3.294  -3.664  -0.045  0.00  0.00    +0.294 A 
ATOM      6  O   UNK A  1        4.467  -3.994  -0.053  0.00  0.00    -0.264 OA
ATOM      7  N   UNK A  1        2.939  -2.360  -0.039  0.00  0.00    -0.303 N 
ATOM      8  H   UNK A  1        3.622  -1.672  -0.042  0.00  0.00    +0.170 HD
ENDROOT
BRANCH   1  12
ATOM      9  C   UNK A  0       -0.017   1.372   0.010  0.00  0.00    +0.029 A 
ATOM     10  C   UNK A  0        1.158   2.046   0.002  0.00  0.00    +0.048 A 
ATOM     11  S   UNK A  0        2.326   0.839  -0.016  0.00  0.00    -0.092 S 
ATOM     12  C   UNK A  0        1.258  -0.589  -0.013  0.00  0.00    +0.074 A 
ATOM     13  C   UNK A  0        0.002  -0.004   0.002  0.00  0.00    +0.027 A 
BRANCH  13  14
ATOM     14  N   UNK A  0       -1.171  -0.764   0.010  0.00  0.00    -0.416 NA
ATOM     15  H   UNK A  0       -1.897  -0.257   0.495  0.00  0.00    +0.121 HD
ATOM     16  H   UNK A  0       -1.002  -1.641   0.479  0.00  0.00    +0.121 HD
ATOM     17  H   UNK A  0       -1.463  -0.942  -0.940  0.00  0.00    +0.121 HD
ENDBRANCH  13  14
ENDBRANCH   1  12
BRANCH   3  18
ATOM     18  C   UNK A  1       -0.204  -5.197  -0.037  0.00  0.00    +0.359 C 
ATOM     19  O   UNK A  1        0.032  -6.397  -0.047  0.00  0.00    -0.243 OA
BRANCH  18  20
ATOM     20  O   UNK A  1       -1.361  -4.802  -0.028  0.00  0.00    -0.476 OA
ATOM     21  H   UNK A  1       -1.541  -3.882  -0.021  0.00  0.00    +0.295 HD
ENDBRANCH  18  20
ENDBRANCH   3  18
BRANCH   4  22
ATOM     22  O   UNK A  1        2.514  -5.995  -0.057  0.00  0.00    -0.501 OA
ATOM     23  H   UNK A  1        3.461  -6.192  -0.063  0.00  0.00    +0.292 HD
ENDBRANCH   4  22
TORSDOF 5
