REMARK  Name = ZINC02529340
REMARK                            x       y       z     vdW  Elec       q    Type
REMARK                         _______ _______ _______ _____ _____    ______ ____
ROOT
ATOM      1  C   LIG    1       -2.041   0.999  -1.341  0.00  0.00    -0.095 C 
ATOM      2  N   LIG    1       -0.717   1.690  -1.109  0.00  0.00    +0.384 N 
ATOM      3  H   LIG    1       -0.150   1.628  -1.963  0.00  0.00    -0.081 HD
ATOM      4  C   LIG    1       -0.013   1.086   0.008  0.00  0.00    -0.045 C 
ATOM      5  C   LIG    1        1.375   1.695  -0.002  0.00  0.00    -0.037 C 
ATOM      6  C   LIG    1        1.556   2.932  -0.423  0.00  0.00    -0.029 C 
ATOM      7  C   LIG    1        0.435   3.796  -0.927  0.00  0.00    +0.021 C 
ATOM      8  C   LIG    1       -0.728   1.677   1.252  0.00  0.00    -0.013 C 
ATOM      9  C   LIG    1       -1.261   3.042   0.769  0.00  0.00    -0.016 C 
ATOM     10  C   LIG    1       -0.914   3.102  -0.731  0.00  0.00    -0.064 C 
ENDROOT
BRANCH   6  11
ATOM     11  C   LIG    1        2.922   3.493  -0.397  0.00  0.00    +0.068 A 
ATOM     12  C   LIG    1        3.981   2.716   0.072  0.00  0.00    +0.028 A 
ATOM     13  C   LIG    1        5.256   3.253   0.085  0.00  0.00    +0.005 A 
ATOM     14  C   LIG    1        5.431   4.555  -0.361  0.00  0.00    +0.040 A 
ATOM     15  C   LIG    1        4.336   5.274  -0.808  0.00  0.00    +0.130 A 
ATOM     16 CL   LIG    1        4.550   6.903  -1.367  0.00  0.00    -0.062 Cl
ATOM     17  N   LIG    1        3.132   4.736  -0.816  0.00  0.00    -0.236 NA
ENDBRANCH   6  11
TORSDOF 1
