REMARK  Name = ZINC02517042
REMARK                            x       y       z     vdW  Elec       q    Type
REMARK                         _______ _______ _______ _____ _____    ______ ____
ROOT
ATOM      1  C   LIG    1        0.011  -0.913   1.355  0.00  0.00    +0.062 C 
ATOM      2  C   LIG    1        1.322  -0.627   2.090  0.00  0.00    +0.023 C 
ATOM      3  C   LIG    1        1.269  -1.248   3.488  0.00  0.00    +0.037 C 
ATOM      4  C   LIG    1        0.098  -0.650   4.266  0.00  0.00    +0.068 C 
ATOM      5  C   LIG    1       -1.214  -0.923   3.533  0.00  0.00    +0.021 C 
ATOM      6  C   LIG    1        0.299   0.873   4.405  0.00  0.00    +0.037 C 
ATOM      7  C   LIG    1       -0.196   1.139   5.853  0.00  0.00    +0.031 C 
ATOM      8  C   LIG    1        0.243  -0.169   6.559  0.00  0.00    +0.160 C 
ATOM      9  O   LIG    1        0.049  -1.205   5.583  0.00  0.00    -0.373 OA
ATOM     10  C   LIG    1       -1.156  -0.303   2.135  0.00  0.00    -0.045 C 
ENDROOT
BRANCH  10  11
ATOM     11  N   LIG    1       -2.414  -0.574   1.426  0.00  0.00    +0.383 N 
ATOM     12  H   LIG    1       -2.361  -0.229   0.479  0.00  0.00    -0.081 HD
ATOM     13  C   LIG    1       -2.698  -2.031   1.427  0.00  0.00    -0.078 C 
ATOM     14  C   LIG    1       -4.227  -2.094   1.185  0.00  0.00    -0.020 C 
ATOM     15  C   LIG    1       -4.755  -0.885   1.991  0.00  0.00    -0.020 C 
ATOM     16  C   LIG    1       -3.546   0.058   2.137  0.00  0.00    -0.078 C 
ENDBRANCH  10  11
BRANCH   1  18
ATOM     17  C   LIG    1        0.245   1.122  -0.142  0.00  0.00    +0.132 C 
ATOM     18  N   LIG    1        0.063  -0.323   0.015  0.00  0.00    -0.303 N 
ATOM     19  C   LIG    1       -0.055  -1.110  -1.072  0.00  0.00    +0.220 C 
ATOM     20  O   LIG    1       -0.206  -2.306  -0.942  0.00  0.00    -0.275 OA
BRANCH  19  21
ATOM     21  C   LIG    1       -0.001  -0.503  -2.451  0.00  0.00    +0.131 C 
BRANCH  21  22
ATOM     22  C   LIG    1       -0.157  -1.589  -3.484  0.00  0.00    -0.039 A 
ATOM     23  C   LIG    1        0.958  -2.242  -3.974  0.00  0.00    +0.004 A 
ATOM     24  C   LIG    1        0.816  -3.238  -4.922  0.00  0.00    +0.000 A 
ATOM     25  C   LIG    1       -0.443  -3.581  -5.379  0.00  0.00    +0.000 A 
ATOM     26  C   LIG    1       -1.558  -2.929  -4.889  0.00  0.00    +0.000 A 
ATOM     27  C   LIG    1       -1.416  -1.936  -3.938  0.00  0.00    +0.004 A 
ENDBRANCH  21  22
ENDBRANCH  19  21
ENDBRANCH   1  18
TORSDOF 4
