REMARK  Name = ZINC02525884
REMARK                            x       y       z     vdW  Elec       q    Type
REMARK                         _______ _______ _______ _____ _____    ______ ____
ROOT
ATOM      1  C   LIG    1        2.917  -0.488   2.470  0.00  0.00    +0.034 C 
ENDROOT
BRANCH   1   2
ATOM      2  C   LIG    1        2.162   0.080   1.268  0.00  0.00    +0.071 C 
ATOM      3  C   LIG    1        0.735  -0.473   1.254  0.00  0.00    +0.035 C 
ATOM      4  C   LIG    1       -0.021   0.096   0.052  0.00  0.00    +0.003 C 
ATOM      5  C   LIG    1       -0.066   1.622   0.152  0.00  0.00    +0.000 C 
ATOM      6  C   LIG    1        1.360   2.175   0.166  0.00  0.00    +0.003 C 
ATOM      7  C   LIG    1        2.116   1.606   1.368  0.00  0.00    +0.035 C 
BRANCH   2   8
ATOM      8  O   LIG    1        2.830  -0.298   0.063  0.00  0.00    -0.388 OA
ATOM      9  H   LIG    1        2.431   0.021  -0.911  0.00  0.00    +0.210 HD
ENDBRANCH   2   8
ENDBRANCH   1   2
BRANCH   1  10
ATOM     10  C   LIG    1        2.829  -1.992   2.454  0.00  0.00    -0.043 A 
ATOM     11  C   LIG    1        3.325  -2.702   1.376  0.00  0.00    +0.007 A 
ATOM     12  C   LIG    1        3.249  -4.081   1.361  0.00  0.00    +0.046 A 
ATOM     13  C   LIG    1        2.665  -4.754   2.425  0.00  0.00    +0.120 A 
ATOM     14  C   LIG    1        2.164  -4.040   3.503  0.00  0.00    +0.046 A 
ATOM     15  C   LIG    1        2.247  -2.661   3.515  0.00  0.00    +0.007 A 
BRANCH  13  16
ATOM     16  O   LIG    1        2.585  -6.110   2.410  0.00  0.00    -0.495 OA
ATOM     17  C   LIG    1        3.122  -6.780   1.267  0.00  0.00    +0.277 C 
ENDBRANCH  13  16
ENDBRANCH   1  10
BRANCH   1  18
ATOM     18  C   LIG    1        4.385  -0.063   2.397  0.00  0.00    -0.072 C 
BRANCH  18  20
ATOM     19  C   LIG    1        5.882   1.836   2.519  0.00  0.00    -0.100 C 
ATOM     20  N   LIG    1        4.484   1.391   2.583  0.00  0.00    +0.378 N 
ATOM     21  H   LIG    1        3.904   1.888   1.791  0.00  0.00    -0.086 HD
ATOM     22  H   LIG    1        4.061   1.650   3.565  0.00  0.00    -0.086 HD
ENDBRANCH  18  20
ENDBRANCH   1  18
TORSDOF 6
