REMARK  Name = ZINC03331413
REMARK                            x       y       z     vdW  Elec       q    Type
REMARK                         _______ _______ _______ _____ _____    ______ ____
ROOT
ATOM      1  N   LIG    1        0.030   1.944   7.296  0.00  0.00    -0.084 NA
ATOM      2  C   LIG    1       -0.447   2.412   8.413  0.00  0.00    +0.118 C 
ATOM      3  C   LIG    1       -1.648   3.267   8.569  0.00  0.00    +0.012 A 
ATOM      4  C   LIG    1       -2.553   3.787   7.651  0.00  0.00    +0.011 A 
ATOM      5  C   LIG    1       -3.604   4.572   8.088  0.00  0.00    +0.001 A 
ATOM      6  C   LIG    1       -3.759   4.843   9.436  0.00  0.00    +0.001 A 
ATOM      7  C   LIG    1       -2.873   4.326  10.361  0.00  0.00    +0.009 A 
ATOM      8  C   LIG    1       -1.806   3.538   9.938  0.00  0.00    -0.008 A 
ATOM      9  C   LIG    1       -0.711   2.875  10.684  0.00  0.00    -0.008 A 
ATOM     10  C   LIG    1       -0.404   2.832  12.041  0.00  0.00    +0.009 A 
ATOM     11  C   LIG    1        0.699   2.125  12.478  0.00  0.00    +0.001 A 
ATOM     12  C   LIG    1        1.507   1.456  11.575  0.00  0.00    +0.001 A 
ATOM     13  C   LIG    1        1.218   1.488  10.224  0.00  0.00    +0.011 A 
ATOM     14  C   LIG    1        0.110   2.195   9.769  0.00  0.00    +0.012 A 
ENDROOT
BRANCH   1  15
ATOM     15  O   LIG    1       -0.617   2.239   6.071  0.00  0.00    -0.391 OA
BRANCH  15  16
ATOM     16  C   LIG    1        0.014   1.661   4.926  0.00  0.00    +0.292 C 
BRANCH  16  17
ATOM     17  C   LIG    1       -0.766   2.043   3.667  0.00  0.00    +0.138 C 
BRANCH  17  18
ATOM     18  O   LIG    1       -2.068   1.456   3.717  0.00  0.00    -0.390 OA
ATOM     19  H   LIG    1       -2.062   0.491   3.767  0.00  0.00    +0.210 HD
ENDBRANCH  17  18
BRANCH  17  20
ATOM     20  C   LIG    1       -0.022   1.531   2.432  0.00  0.00    -0.047 C 
BRANCH  20  21
ATOM     21  N   LIG    1       -0.715   2.006   1.219  0.00  0.00    +0.384 N 
ATOM     22  H   LIG    1       -0.729   3.032   1.217  0.00  0.00    -0.085 HD
ATOM     23  H   LIG    1       -1.678   1.650   1.218  0.00  0.00    -0.085 HD
BRANCH  21  25
ATOM     24  C   LIG    1        0.002  -0.004   0.002  0.00  0.00    -0.011 C 
ATOM     25  C   LIG    1       -0.019   1.526   0.010  0.00  0.00    -0.077 C 
ATOM     26  C   LIG    1       -0.759   2.033  -1.229  0.00  0.00    -0.011 C 
ATOM     27  C   LIG    1        1.417   2.055  -0.000  0.00  0.00    -0.011 C 
ENDBRANCH  21  25
ENDBRANCH  20  21
ENDBRANCH  17  20
ENDBRANCH  16  17
ENDBRANCH  15  16
ENDBRANCH   1  15
TORSDOF 7
