REMARK  Name = ZINC02848864
REMARK                            x       y       z     vdW  Elec       q    Type
REMARK                         _______ _______ _______ _____ _____    ______ ____
ROOT
ATOM      1  C   LIG    1        2.218  -6.221  -3.807  0.00  0.00    +0.269 A 
ATOM      2  N   LIG    1        1.646  -6.818  -2.794  0.00  0.00    -0.203 NA
ATOM      3  C   LIG    1        1.756  -8.164  -2.961  0.00  0.00    +0.110 A 
ATOM      4  C   LIG    1        1.339  -9.265  -2.211  0.00  0.00    +0.031 A 
ATOM      5  C   LIG    1        1.609 -10.539  -2.661  0.00  0.00    +0.002 A 
ATOM      6  C   LIG    1        2.292 -10.733  -3.852  0.00  0.00    +0.004 A 
ATOM      7  C   LIG    1        2.710  -9.652  -4.603  0.00  0.00    +0.048 A 
ATOM      8  C   LIG    1        2.446  -8.364  -4.165  0.00  0.00    +0.156 A 
ATOM      9  O   LIG    1        2.711  -7.135  -4.662  0.00  0.00    -0.430 OA
ENDROOT
BRANCH   1  10
ATOM     10  S   LIG    1        2.322  -4.476  -4.023  0.00  0.00    +0.051 S 
BRANCH  10  11
ATOM     11  C   LIG    1        1.513  -3.821  -2.602  0.00  0.00    +0.377 C 
ATOM     12  O   LIG    1        1.049  -4.572  -1.767  0.00  0.00    -0.237 OA
BRANCH  11  13
ATOM     13  O   LIG    1        1.408  -2.488  -2.441  0.00  0.00    -0.456 OA
BRANCH  13  14
ATOM     14  C   LIG    1        0.739  -2.027  -1.265  0.00  0.00    +0.233 C 
BRANCH  14  15
ATOM     15  C   LIG    1        0.718  -0.497  -1.257  0.00  0.00    +0.041 C 
BRANCH  15  17
ATOM     16  C   LIG    1       -0.019   1.526   0.010  0.00  0.00    +0.004 C 
ATOM     17  C   LIG    1        0.002  -0.004   0.002  0.00  0.00    -0.000 C 
ENDBRANCH  15  17
ENDBRANCH  14  15
ENDBRANCH  13  14
ENDBRANCH  11  13
ENDBRANCH  10  11
ENDBRANCH   1  10
TORSDOF 6
