REMARK  Name = ZINC02562608
REMARK                            x       y       z     vdW  Elec       q    Type
REMARK                         _______ _______ _______ _____ _____    ______ ____
ROOT
ATOM      1  C   LIG    1        3.698  -0.688  -0.038  0.00  0.00    +0.153 A 
ATOM      2  C   LIG    1        3.981  -1.965   0.630  0.00  0.00    +0.225 A 
ATOM      3  N   LIG    1        5.230  -2.285   0.388  0.00  0.00    -0.001 N 
ATOM      4  O   LIG    1        5.791  -1.266  -0.419  0.00  0.00    -0.229 OA
ATOM      5  N   LIG    1        4.783  -0.299  -0.656  0.00  0.00    -0.046 NA
ENDROOT
BRANCH   1   9
ATOM      6  C   LIG    1       -0.017   1.379   0.010  0.00  0.00    +0.000 A 
ATOM      7  C   LIG    1        1.169   2.092   0.002  0.00  0.00    +0.001 A 
ATOM      8  C   LIG    1        2.377   1.426  -0.013  0.00  0.00    +0.010 A 
ATOM      9  C   LIG    1        2.402   0.033  -0.021  0.00  0.00    +0.007 A 
ATOM     10  C   LIG    1        1.205  -0.680  -0.013  0.00  0.00    +0.010 A 
ATOM     11  C   LIG    1        0.002  -0.004   0.002  0.00  0.00    +0.001 A 
ENDBRANCH   1   9
BRANCH   2  12
ATOM     12  C   LIG    1        3.054  -2.728   1.410  0.00  0.00    +0.126 C 
ATOM     13  N   LIG    1        2.319  -3.334   2.029  0.00  0.00    -0.189 NA
ENDBRANCH   2  12
BRANCH   3  14
ATOM     14  O   LIG    1        5.898  -3.445   0.851  0.00  0.00    -0.397 OA
ATOM     15  H   LIG    1        5.443  -4.067   1.383  0.00  0.00    +0.329 HD
ENDBRANCH   3  14
TORSDOF 3
