REMARK  Name = ZINC02581100
REMARK                            x       y       z     vdW  Elec       q    Type
REMARK                         _______ _______ _______ _____ _____    ______ ____
ROOT
ATOM      1  C   LIG    1       -0.018   1.503   0.010  0.00  0.00    +0.044 C 
ATOM      2  C   LIG    1        0.002  -0.004   0.002  0.00  0.00    -0.045 A 
ATOM      3  C   LIG    1        0.005  -0.668  -1.187  0.00  0.00    +0.033 A 
ATOM      4  C   LIG    1        0.025  -2.073  -1.200  0.00  0.00    +0.089 A 
ATOM      5  C   LIG    1        0.040  -2.779   0.030  0.00  0.00    +0.090 A 
ATOM      6  N   LIG    1        0.059  -4.115   0.026  0.00  0.00    -0.244 NA
ATOM      7  C   LIG    1        0.062  -4.766  -1.124  0.00  0.00    +0.090 A 
ATOM      8  C   LIG    1        0.047  -4.061  -2.343  0.00  0.00    +0.139 A 
ATOM      9  C   LIG    1        0.036  -2.058   1.237  0.00  0.00    +0.033 A 
ATOM     10  N   LIG    1        0.029  -2.751  -2.355  0.00  0.00    -0.251 NA
ATOM     11  C   LIG    1        0.023  -0.697   1.211  0.00  0.00    -0.045 A 
ATOM     12  C   LIG    1        0.025   0.071   2.507  0.00  0.00    +0.044 C 
ENDROOT
BRANCH   7  13
ATOM     13  C   LIG    1        0.083  -6.248  -1.131  0.00  0.00    +0.006 A 
ATOM     14  C   LIG    1       -0.013  -6.953   0.068  0.00  0.00    +0.014 A 
ATOM     15  C   LIG    1        0.007  -8.332   0.060  0.00  0.00    +0.050 A 
ATOM     16  C   LIG    1        0.122  -9.021  -1.138  0.00  0.00    +0.158 A 
ATOM     17  C   LIG    1        0.218  -8.321  -2.339  0.00  0.00    +0.159 A 
ATOM     18  C   LIG    1        0.192  -6.939  -2.338  0.00  0.00    +0.059 A 
BRANCH  16  19
ATOM     19  O   LIG    1        0.142 -10.380  -1.141  0.00  0.00    -0.503 OA
ATOM     20  H   LIG    1       -0.733 -10.786  -1.219  0.00  0.00    +0.292 HD
ENDBRANCH  16  19
BRANCH  17  21
ATOM     21  O   LIG    1        0.332  -8.998  -3.514  0.00  0.00    -0.503 OA
ATOM     22  H   LIG    1       -0.516  -9.207  -3.931  0.00  0.00    +0.292 HD
ENDBRANCH  17  21
ENDBRANCH   7  13
TORSDOF 3
