REMARK  Name = ZINC03102859
REMARK                            x       y       z     vdW  Elec       q    Type
REMARK                         _______ _______ _______ _____ _____    ______ ____
ROOT
ATOM      1  C   LIG    1       -0.190   1.802  -3.593  0.00  0.00    +0.218 C 
ATOM      2  N   LIG    1       -0.067   1.120  -2.437  0.00  0.00    -0.312 N 
ATOM      3  H   LIG    1        0.476   0.317  -2.403  0.00  0.00    +0.149 HD
ATOM      4  O   LIG    1       -0.868   2.806  -3.636  0.00  0.00    -0.275 OA
ENDROOT
BRANCH   2   5
ATOM      5  C   LIG    1       -0.753   1.593  -1.232  0.00  0.00    +0.073 C 
ATOM      6  C   LIG    1       -0.013   1.086   0.008  0.00  0.00    +0.022 C 
ATOM      7  C   LIG    1       -0.729   1.579   1.267  0.00  0.00    +0.002 C 
ATOM      8  C   LIG    1       -2.164   1.050   1.278  0.00  0.00    +0.000 C 
ATOM      9  C   LIG    1       -2.904   1.556   0.038  0.00  0.00    +0.002 C 
ATOM     10  C   LIG    1       -2.188   1.063  -1.221  0.00  0.00    +0.022 C 
ENDBRANCH   2   5
BRANCH   1  11
ATOM     11  C   LIG    1        0.515   1.316  -4.833  0.00  0.00    +0.131 C 
BRANCH  11  14
ATOM     12  C   LIG    1        0.765   4.189  -7.269  0.00  0.00    +0.002 A 
ATOM     13  C   LIG    1        1.038   3.334  -6.218  0.00  0.00    +0.004 A 
ATOM     14  C   LIG    1        0.217   2.248  -5.979  0.00  0.00    -0.037 A 
ATOM     15  C   LIG    1       -0.875   2.013  -6.794  0.00  0.00    +0.024 A 
ATOM     16  C   LIG    1       -1.151   2.872  -7.843  0.00  0.00    +0.041 A 
ATOM     17 CL   LIG    1       -2.525   2.581  -8.864  0.00  0.00    -0.084 Cl
ATOM     18  C   LIG    1       -0.329   3.959  -8.082  0.00  0.00    +0.020 A 
ENDBRANCH  11  14
ENDBRANCH   1  11
TORSDOF 3
