REMARK  Name = ZINC02390001
REMARK                            x       y       z     vdW  Elec       q    Type
REMARK                         _______ _______ _______ _____ _____    ______ ____
ROOT
ATOM      1  C   LIG    1        2.402   0.035   0.002  0.00  0.00    +0.001 A 
ATOM      2  C   LIG    1        1.206  -0.664   0.035  0.00  0.00    +0.002 A 
ATOM      3  C   LIG    1        0.002   0.011   0.039  0.00  0.00    +0.024 A 
ATOM      4  C   LIG    1       -0.017   1.399   0.010  0.00  0.00    +0.047 A 
ATOM      5  C   LIG    1        1.193   2.110  -0.024  0.00  0.00    +0.073 A 
ATOM      6  C   LIG    1        2.403   1.412  -0.027  0.00  0.00    +0.021 A 
ENDROOT
BRANCH   4   7
ATOM      7  N   LIG    1       -1.228   2.082   0.019  0.00  0.00    -0.332 N 
ATOM      8  C   LIG    1       -2.354   1.160  -0.190  0.00  0.00    +0.086 C 
ATOM      9  C   LIG    1       -3.658   1.958  -0.253  0.00  0.00    -0.063 C 
ATOM     10  N   LIG    1       -3.834   2.714   1.002  0.00  0.00    +0.381 N 
ATOM     11  H   LIG    1       -4.706   3.254   0.953  0.00  0.00    -0.086 HD
ATOM     12  H   LIG    1       -3.882   2.057   1.790  0.00  0.00    -0.086 HD
ATOM     13  C   LIG    1       -2.701   3.636   1.205  0.00  0.00    -0.063 C 
ATOM     14  C   LIG    1       -1.397   2.839   1.268  0.00  0.00    +0.086 C 
ENDBRANCH   4   7
BRANCH   5  15
ATOM     15  C   LIG    1        1.187   3.542  -0.053  0.00  0.00    +0.101 C 
ATOM     16  N   LIG    1        1.182   4.678  -0.077  0.00  0.00    -0.191 NA
ENDBRANCH   5  15
TORSDOF 2
