REMARK  Name = ZINC03626882
REMARK                            x       y       z     vdW  Elec       q    Type
REMARK                         _______ _______ _______ _____ _____    ______ ____
ROOT
ATOM      1  C   LIG    1        1.807   3.264  -0.168  0.00  0.00    +0.203 C 
ATOM      2  C   LIG    1        1.153   3.984  -1.314  0.00  0.00    +0.041 C 
ATOM      3  C   LIG    1        0.429   5.005  -0.770  0.00  0.00    +0.027 C 
ATOM      4  N   LIG    1        0.550   5.029   0.584  0.00  0.00    -0.242 N 
ATOM      5  C   LIG    1       -0.382   5.948  -1.635  0.00  0.00    +0.058 C 
ATOM      6  C   LIG    1       -0.779   5.199  -2.913  0.00  0.00    -0.023 C 
ATOM      7  C   LIG    1       -1.512   6.157  -3.854  0.00  0.00    +0.011 C 
ATOM      8  C   LIG    1       -1.706   4.037  -2.551  0.00  0.00    +0.011 C 
ATOM      9  C   LIG    1        0.464   4.655  -3.618  0.00  0.00    +0.086 C 
ATOM     10  C   LIG    1        1.213   3.725  -2.688  0.00  0.00    +0.163 C 
ATOM     11  O   LIG    1        1.848   2.784  -3.120  0.00  0.00    -0.292 OA
ATOM     12  C   LIG    1        1.342   4.043   1.050  0.00  0.00    +0.248 C 
ATOM     13  O   LIG    1        1.626   3.823   2.207  0.00  0.00    -0.273 OA
ENDROOT
BRANCH   1  16
ATOM     14  C   LIG    1       -0.100   2.076   1.990  0.00  0.00    +0.065 C 
ATOM     15  C   LIG    1        0.508   1.320   0.837  0.00  0.00    +0.040 A 
ATOM     16  C   LIG    1        1.333   1.835  -0.097  0.00  0.00    +0.067 A 
ATOM     17  C   LIG    1        1.676   0.800  -0.998  0.00  0.00    +0.277 A 
ATOM     18  N   LIG    1        1.050  -0.322  -0.590  0.00  0.00    -0.219 N 
ATOM     19  O   LIG    1        2.409   0.903  -1.966  0.00  0.00    -0.265 OA
ATOM     20  N   LIG    1        0.315  -0.004   0.560  0.00  0.00    -0.294 N 
ATOM     21  H   LIG    1       -0.235  -0.618   1.071  0.00  0.00    +0.187 HD
BRANCH  18  22
ATOM     22  C   LIG    1        1.121  -1.577  -1.203  0.00  0.00    +0.067 A 
ATOM     23  C   LIG    1        1.888  -1.749  -2.348  0.00  0.00    +0.028 A 
ATOM     24  C   LIG    1        1.960  -2.991  -2.948  0.00  0.00    +0.002 A 
ATOM     25  C   LIG    1        1.261  -4.059  -2.417  0.00  0.00    +0.000 A 
ATOM     26  C   LIG    1        0.492  -3.889  -1.280  0.00  0.00    +0.002 A 
ATOM     27  C   LIG    1        0.420  -2.652  -0.672  0.00  0.00    +0.028 A 
ENDBRANCH  18  22
ENDBRANCH   1  16
BRANCH   4  28
ATOM     28  C   LIG    1       -0.080   5.976   1.405  0.00  0.00    +0.041 A 
ATOM     29  C   LIG    1        0.673   6.744   2.283  0.00  0.00    +0.027 A 
ATOM     30  C   LIG    1        0.053   7.680   3.087  0.00  0.00    +0.047 A 
ATOM     31  C   LIG    1       -1.323   7.845   3.026  0.00  0.00    +0.120 A 
ATOM     32  C   LIG    1       -2.076   7.074   2.152  0.00  0.00    +0.047 A 
ATOM     33  C   LIG    1       -1.457   6.142   1.344  0.00  0.00    +0.027 A 
BRANCH  31  34
ATOM     34  O   LIG    1       -1.933   8.763   3.822  0.00  0.00    -0.495 OA
ATOM     35  C   LIG    1       -1.096   9.521   4.697  0.00  0.00    +0.277 C 
ENDBRANCH  31  34
ENDBRANCH   4  28
BRANCH   1  36
ATOM     36  C   LIG    1        3.331   3.319  -0.294  0.00  0.00    +0.412 C 
ATOM     37  F   LIG    1        3.912   2.587   0.747  0.00  0.00    -0.169 F 
ATOM     38  F   LIG    1        3.756   4.650  -0.223  0.00  0.00    -0.169 F 
ATOM     39  F   LIG    1        3.717   2.772  -1.522  0.00  0.00    -0.169 F 
ENDBRANCH   1  36
TORSDOF 5
