REMARK  Name = ZINC02526465
REMARK                            x       y       z     vdW  Elec       q    Type
REMARK                         _______ _______ _______ _____ _____    ______ ____
ROOT
ATOM      1  C   LIG    1        1.133  -2.236   0.018  0.00  0.00    +0.073 C 
ATOM      2  C   LIG    1        1.002  -3.011  -1.105  0.00  0.00    +0.107 C 
ATOM      3  C   LIG    1        1.353  -4.394  -0.699  0.00  0.00    +0.265 C 
ATOM      4  N   LIG    1        1.669  -4.385   0.608  0.00  0.00    -0.247 N 
ATOM      5  H   LIG    1        1.935  -5.165   1.120  0.00  0.00    +0.158 HD
ATOM      6  O   LIG    1        1.355  -5.368  -1.424  0.00  0.00    -0.268 OA
ATOM      7  C   LIG    1        1.567  -3.139   1.101  0.00  0.00    +0.253 C 
ATOM      8  O   LIG    1        1.792  -2.811   2.249  0.00  0.00    -0.270 OA
ENDROOT
BRANCH   1  13
ATOM      9  C   LIG    1       -0.630   1.073   0.240  0.00  0.00    +0.001 A 
ATOM     10  C   LIG    1        0.443   1.945   0.315  0.00  0.00    +0.002 A 
ATOM     11  C   LIG    1        1.739   1.461   0.294  0.00  0.00    +0.033 A 
ATOM     12  C   LIG    1        1.970   0.104   0.197  0.00  0.00    +0.129 A 
ATOM     13  C   LIG    1        0.893  -0.781   0.122  0.00  0.00    +0.019 A 
ATOM     14  C   LIG    1       -0.413  -0.285   0.144  0.00  0.00    +0.011 A 
BRANCH  12  15
ATOM     15  N   LIG    1        3.357  -0.412   0.174  0.00  0.00    +0.007 N 
ATOM     16  O   LIG    1        4.289   0.355   0.239  0.00  0.00    -0.130 OA
BRANCH  15  17
ATOM     17  O   LIG    1        3.558  -1.602   0.090  0.00  0.00    -0.396 OA
ATOM     18  H   LIG    1        2.836  -2.196   0.039  0.00  0.00    +0.329 HD
ENDBRANCH  15  17
ENDBRANCH  12  15
ENDBRANCH   1  13
BRANCH   2  19
ATOM     19  N   LIG    1        0.620  -2.590  -2.360  0.00  0.00    -0.310 N 
ATOM     20  H   LIG    1        1.127  -1.900  -2.815  0.00  0.00    +0.152 HD
BRANCH  19  21
ATOM     21  C   LIG    1       -0.498  -3.157  -2.976  0.00  0.00    +0.033 A 
ATOM     22  C   LIG    1       -1.314  -4.032  -2.269  0.00  0.00    +0.027 A 
ATOM     23  C   LIG    1       -2.418  -4.591  -2.879  0.00  0.00    +0.049 A 
ATOM     24  C   LIG    1       -2.715  -4.281  -4.198  0.00  0.00    +0.135 A 
ATOM     25  C   LIG    1       -1.901  -3.408  -4.907  0.00  0.00    +0.084 A 
ATOM     26 CL   LIG    1       -2.273  -3.021  -6.558  0.00  0.00    -0.080 Cl
ATOM     27  C   LIG    1       -0.798  -2.843  -4.296  0.00  0.00    +0.047 A 
BRANCH  24  28
ATOM     28  O   LIG    1       -3.803  -4.834  -4.798  0.00  0.00    -0.505 OA
ATOM     29  H   LIG    1       -4.612  -4.313  -4.700  0.00  0.00    +0.292 HD
ENDBRANCH  24  28
ENDBRANCH  19  21
ENDBRANCH   2  19
TORSDOF 6
