REMARK  Name = ZINC02534047
REMARK                            x       y       z     vdW  Elec       q    Type
REMARK                         _______ _______ _______ _____ _____    ______ ____
ROOT
ATOM      1  C   LIG    1        3.285   2.377   4.773  0.00  0.00    +0.040 A 
ATOM      2  C   LIG    1        2.559   1.237   5.040  0.00  0.00    +0.029 A 
ATOM      3  C   LIG    1        1.487   0.890   4.225  0.00  0.00    +0.047 A 
ATOM      4  C   LIG    1        1.158   1.708   3.129  0.00  0.00    +0.006 A 
ATOM      5  C   LIG    1        0.000   1.080   2.488  0.00  0.00    -0.022 A 
ATOM      6  C   LIG    1       -0.285  -0.028   3.190  0.00  0.00    +0.087 A 
ATOM      7  C   LIG    1        1.900   2.863   2.873  0.00  0.00    +0.048 A 
ATOM      8  N   LIG    1        0.592  -0.158   4.232  0.00  0.00    -0.360 N 
ATOM      9  H   LIG    1        0.586  -0.881   4.879  0.00  0.00    +0.165 HD
ATOM     10  C   LIG    1        2.958   3.189   3.693  0.00  0.00    +0.124 A 
ATOM     11  F   LIG    1        3.682   4.302   3.446  0.00  0.00    -0.205 F 
ENDROOT
BRANCH   5  12
ATOM     12  C   LIG    1       -0.729   1.579   1.267  0.00  0.00    +0.035 C 
BRANCH  12  13
ATOM     13  C   LIG    1       -0.013   1.086   0.008  0.00  0.00    -0.015 C 
BRANCH  13  14
ATOM     14  C   LIG    1       -0.753   1.593  -1.232  0.00  0.00    -0.086 C 
BRANCH  14  15
ATOM     15  N   LIG    1       -0.068   1.094  -2.437  0.00  0.00    +0.378 N 
ATOM     16  H   LIG    1       -0.094   0.068  -2.440  0.00  0.00    -0.090 HD
ATOM     17  H   LIG    1        0.903   1.401  -2.439  0.00  0.00    -0.090 HD
ATOM     18  H   LIG    1       -0.535   1.441  -3.273  0.00  0.00    -0.090 HD
ENDBRANCH  14  15
ENDBRANCH  13  14
ENDBRANCH  12  13
ENDBRANCH   5  12
TORSDOF 4
