REMARK  Name = ZINC02540738
REMARK                            x       y       z     vdW  Elec       q    Type
REMARK                         _______ _______ _______ _____ _____    ______ ____
ROOT
ATOM      1  C   LIG    1       -0.755   3.526   1.278  0.00  0.00    +0.005 A 
ATOM      2  C   LIG    1       -1.763   4.351   0.720  0.00  0.00    +0.111 A 
ATOM      3  C   LIG    1       -1.374   5.687   0.957  0.00  0.00    +0.157 A 
ATOM      4  N   LIG    1       -2.147   6.678   0.535  0.00  0.00    -0.234 NA
ATOM      5  C   LIG    1       -3.272   6.410  -0.103  0.00  0.00    +0.133 A 
ATOM      6  C   LIG    1       -3.656   5.098  -0.337  0.00  0.00    +0.131 A 
ATOM      7  N   LIG    1       -0.176   5.650   1.632  0.00  0.00    -0.338 N 
ATOM      8  H   LIG    1        0.329   6.423   1.927  0.00  0.00    +0.167 HD
ATOM      9  N   LIG    1       -2.901   4.098   0.075  0.00  0.00    -0.250 NA
ATOM     10  C   LIG    1        0.185   4.336   1.825  0.00  0.00    +0.053 A 
ENDROOT
BRANCH  10  11
ATOM     11  C   LIG    1        1.408   3.878   2.518  0.00  0.00    -0.001 A 
ATOM     12  C   LIG    1        1.338   2.844   3.453  0.00  0.00    +0.013 A 
ATOM     13  C   LIG    1        2.481   2.418   4.094  0.00  0.00    +0.046 A 
ATOM     14  C   LIG    1        3.701   3.023   3.818  0.00  0.00    +0.120 A 
ATOM     15  C   LIG    1        3.774   4.055   2.892  0.00  0.00    +0.046 A 
ATOM     16  C   LIG    1        2.636   4.484   2.244  0.00  0.00    +0.013 A 
BRANCH  14  17
ATOM     17  O   LIG    1        4.825   2.603   4.455  0.00  0.00    -0.495 OA
ATOM     18  C   LIG    1        4.678   1.537   5.395  0.00  0.00    +0.277 C 
ENDBRANCH  14  17
ENDBRANCH  10  11
BRANCH   1  19
ATOM     19  C   LIG    1       -0.735   2.019   1.269  0.00  0.00    +0.039 C 
BRANCH  19  20
ATOM     20  C   LIG    1       -0.019   1.526   0.010  0.00  0.00    +0.004 C 
BRANCH  20  22
ATOM     21  C   LIG    1        0.718  -0.497  -1.257  0.00  0.00    +0.004 C 
ATOM     22  C   LIG    1        0.002  -0.004   0.002  0.00  0.00    -0.003 C 
ENDBRANCH  20  22
ENDBRANCH  19  20
ENDBRANCH   1  19
TORSDOF 5
