REMARK  Name = ZINC02555353
REMARK                            x       y       z     vdW  Elec       q    Type
REMARK                         _______ _______ _______ _____ _____    ______ ____
ROOT
ATOM      1  C   LIG    1       -4.477   4.978  -2.064  0.00  0.00    +0.007 C 
ATOM      2  C   LIG    1       -3.104   5.649  -2.136  0.00  0.00    -0.017 C 
ATOM      3  C   LIG    1       -2.221   5.141  -0.996  0.00  0.00    -0.060 C 
ATOM      4  N   LIG    1       -2.016   3.679  -1.091  0.00  0.00    +0.384 N 
ATOM      5  H   LIG    1       -2.929   3.214  -1.032  0.00  0.00    -0.081 HD
ATOM      6  C   LIG    1       -1.383   3.317  -2.383  0.00  0.00    -0.077 C 
ATOM      7  C   LIG    1       -2.296   3.762  -3.531  0.00  0.00    -0.007 C 
ATOM      8  C   LIG    1       -0.932   5.941  -0.945  0.00  0.00    +0.020 C 
ATOM      9  C   LIG    1       -0.340   6.146  -2.314  0.00  0.00    -0.045 A 
ATOM     10  C   LIG    1        0.956   6.647  -2.387  0.00  0.00    +0.007 A 
ATOM     11  C   LIG    1        1.554   6.869  -3.608  0.00  0.00    +0.045 A 
ATOM     12  C   LIG    1        0.860   6.593  -4.777  0.00  0.00    +0.117 A 
ATOM     13  C   LIG    1       -0.428   6.092  -4.705  0.00  0.00    +0.049 A 
ATOM     14  C   LIG    1       -1.024   5.864  -3.474  0.00  0.00    -0.035 A 
ATOM     15  C   LIG    1       -2.423   5.294  -3.462  0.00  0.00    -0.007 C 
ATOM     16  C   LIG    1       -3.228   5.822  -4.651  0.00  0.00    +0.016 C 
ENDROOT
BRANCH  12  17
ATOM     17  O   LIG    1        1.441   6.815  -5.986  0.00  0.00    -0.507 OA
ATOM     18  H   LIG    1        1.289   7.703  -6.339  0.00  0.00    +0.292 HD
ENDBRANCH  12  17
BRANCH   4  19
ATOM     19  C   LIG    1       -1.176   3.222   0.025  0.00  0.00    -0.051 C 
BRANCH  19  20
ATOM     20  C   LIG    1       -1.156   1.715   0.017  0.00  0.00    -0.053 C 
ATOM     21  C   LIG    1       -0.013   1.076   0.008  0.00  0.00    +0.002 C 
ENDBRANCH  19  20
ENDBRANCH   4  19
TORSDOF 3
