REMARK  Name = ZINC03356652
REMARK                            x       y       z     vdW  Elec       q    Type
REMARK                         _______ _______ _______ _____ _____    ______ ____
ROOT
ATOM      1  N   LIG    1        4.512  -0.577   2.882  0.00  0.00    -0.190 NA
ATOM      2  H   LIG    1        5.201  -1.254   2.791  0.00  0.00    +0.148 HD
ENDROOT
BRANCH   1   3
ATOM      3  S   LIG    1        2.915  -1.015   2.867  0.00  0.00    +0.031 S 
ATOM      4  O   LIG    1        2.928  -2.429   2.732  0.00  0.00    -0.158 OA
ATOM      5  O   LIG    1        2.360  -0.403   4.024  0.00  0.00    -0.158 OA
BRANCH   3   6
ATOM      6  C   LIG    1        2.236  -0.250   1.369  0.00  0.00    +0.200 C 
BRANCH   6  16
ATOM      7  C   LIG    1       -0.019   1.526   0.010  0.00  0.00    +0.012 C 
ATOM      8  C   LIG    1        0.002  -0.004   0.002  0.00  0.00    -0.018 C 
ATOM      9  C   LIG    1        0.557  -0.556  -1.312  0.00  0.00    +0.012 C 
ATOM     10  C   LIG    1       -1.400  -0.616   0.356  0.00  0.00    +0.003 C 
ATOM     11  C   LIG    1       -1.598  -0.063   1.801  0.00  0.00    +0.005 C 
ATOM     12  C   LIG    1       -0.174  -0.040   2.404  0.00  0.00    +0.017 C 
ATOM     13  C   LIG    1       -1.009  -2.114   0.545  0.00  0.00    +0.079 C 
ATOM     14  C   LIG    1        0.397  -2.080   1.125  0.00  0.00    +0.142 C 
ATOM     15  O   LIG    1        1.089  -3.024   1.423  0.00  0.00    -0.297 OA
ATOM     16  C   LIG    1        0.749  -0.591   1.251  0.00  0.00    +0.055 C 
ENDBRANCH   6  16
ENDBRANCH   3   6
ENDBRANCH   1   3
BRANCH   1  17
ATOM     17  C   LIG    1        4.884   0.832   3.034  0.00  0.00    +0.140 C 
BRANCH  17  18
ATOM     18  C   LIG    1        6.346   0.930   3.383  0.00  0.00    -0.032 A 
ATOM     19  C   LIG    1        6.743   0.917   4.708  0.00  0.00    +0.007 A 
ATOM     20  C   LIG    1        8.084   1.008   5.029  0.00  0.00    +0.029 A 
ATOM     21  C   LIG    1        9.030   1.111   4.025  0.00  0.00    +0.105 A 
ATOM     22  C   LIG    1        8.633   1.122   2.701  0.00  0.00    +0.029 A 
ATOM     23  C   LIG    1        7.292   1.028   2.380  0.00  0.00    +0.007 A 
BRANCH  21  24
ATOM     24  S   LIG    1       10.739   1.227   4.434  0.00  0.00    +0.056 S 
ATOM     25  O   LIG    1       10.806   1.743   5.756  0.00  0.00    -0.153 OA
ATOM     26  O   LIG    1       11.378   1.862   3.335  0.00  0.00    -0.153 OA
BRANCH  24  27
ATOM     27  N   LIG    1       11.334  -0.318   4.499  0.00  0.00    -0.204 NA
ATOM     28  H   LIG    1       12.268  -0.469   4.712  0.00  0.00    +0.144 HD
ATOM     29  H   LIG    1       10.748  -1.070   4.324  0.00  0.00    +0.144 HD
ENDBRANCH  24  27
ENDBRANCH  21  24
ENDBRANCH  17  18
ENDBRANCH   1  17
TORSDOF 7
