REMARK  Name = ZINC03331176
REMARK                            x       y       z     vdW  Elec       q    Type
REMARK                         _______ _______ _______ _____ _____    ______ ____
ROOT
ATOM      1  C   LIG    1        0.642  -0.613   1.037  0.00  0.00    +0.162 A 
ATOM      2  C   LIG    1        1.367   0.134   1.953  0.00  0.00    +0.051 A 
ATOM      3  C   LIG    1        1.996  -0.491   3.012  0.00  0.00    +0.027 A 
ATOM      4  C   LIG    1        1.904  -1.869   3.162  0.00  0.00    +0.037 A 
ATOM      5  C   LIG    1        1.179  -2.620   2.246  0.00  0.00    +0.072 A 
ATOM      6  C   LIG    1        0.544  -1.992   1.187  0.00  0.00    +0.163 A 
ENDROOT
BRANCH   4   7
ATOM      7  N   LIG    1        2.543  -2.501   4.235  0.00  0.00    -0.280 N 
ATOM      8  H   LIG    1        2.906  -3.394   4.126  0.00  0.00    +0.155 HD
ATOM      9  C   LIG    1        2.654  -1.869   5.420  0.00  0.00    +0.267 C 
ATOM     10  O   LIG    1        2.117  -0.791   5.587  0.00  0.00    -0.268 OA
BRANCH   9  11
ATOM     11  C   LIG    1        3.430  -2.487   6.519  0.00  0.00    +0.126 A 
ATOM     12  C   LIG    1        3.537  -1.831   7.744  0.00  0.00    +0.033 A 
ATOM     13  C   LIG    1        4.266  -2.422   8.763  0.00  0.00    +0.004 A 
ATOM     14  C   LIG    1        4.864  -3.650   8.523  0.00  0.00    +0.020 A 
ATOM     15  C   LIG    1        4.717  -4.245   7.280  0.00  0.00    +0.111 A 
ATOM     16  N   LIG    1        4.015  -3.664   6.332  0.00  0.00    -0.250 NA
ENDBRANCH   9  11
ENDBRANCH   4   7
BRANCH   1  18
ATOM     17  C   LIG    1        0.167   1.423  -0.098  0.00  0.00    +0.277 C 
ATOM     18  O   LIG    1        0.023   0.005  -0.006  0.00  0.00    -0.491 OA
ENDBRANCH   1  18
BRANCH   6  19
ATOM     19  O   LIG    1       -0.171  -2.725   0.291  0.00  0.00    -0.491 OA
ATOM     20  C   LIG    1       -0.229  -4.136   0.507  0.00  0.00    +0.277 C 
ENDBRANCH   6  19
TORSDOF 4
