REMARK  Name = ZINC02516057
REMARK                            x       y       z     vdW  Elec       q    Type
REMARK                         _______ _______ _______ _____ _____    ______ ____
ROOT
ATOM      1  N   LIG    1        0.738  -1.962  -1.265  0.00  0.00    -0.276 N 
ATOM      2  C   LIG    1        1.790  -2.643  -0.673  0.00  0.00    +0.168 A 
ATOM      3  C   LIG    1        1.786  -4.032  -0.694  0.00  0.00    +0.151 A 
ATOM      4  N   LIG    1        2.936  -4.432  -0.043  0.00  0.00    -0.328 N 
ATOM      5  C   LIG    1        3.372  -5.811   0.189  0.00  0.00    +0.150 C 
ATOM      6  C   LIG    1        3.580  -3.312   0.340  0.00  0.00    +0.202 A 
ATOM      7  C   LIG    1        0.713  -4.707  -1.315  0.00  0.00    +0.282 A 
ATOM      8  N   LIG    1       -0.282  -3.989  -1.874  0.00  0.00    -0.259 N 
ATOM      9  O   LIG    1        0.687  -5.925  -1.346  0.00  0.00    -0.265 OA
ATOM     10  N   LIG    1        2.899  -2.260  -0.035  0.00  0.00    -0.218 NA
ATOM     11  C   LIG    1       -0.269  -2.645  -1.842  0.00  0.00    +0.334 A 
ATOM     12  O   LIG    1       -1.186  -2.030  -2.352  0.00  0.00    -0.246 OA
ENDROOT
BRANCH   1  13
ATOM     13  C   LIG    1        0.718  -0.497  -1.257  0.00  0.00    +0.128 C 
BRANCH  13  15
ATOM     14  C   LIG    1       -0.019   1.526   0.010  0.00  0.00    +0.005 C 
ATOM     15  C   LIG    1        0.002  -0.004   0.002  0.00  0.00    +0.018 C 
ENDBRANCH  13  15
ENDBRANCH   1  13
BRANCH   8  16
ATOM     16  C   LIG    1       -1.399  -4.683  -2.521  0.00  0.00    +0.130 C 
BRANCH  16  17
ATOM     17  C   LIG    1       -2.502  -4.942  -1.493  0.00  0.00    +0.018 C 
ATOM     18  C   LIG    1       -3.668  -5.667  -2.168  0.00  0.00    +0.005 C 
ENDBRANCH  16  17
ENDBRANCH   8  16
TORSDOF 4
