REMARK  Name = ZINC02510569
REMARK                            x       y       z     vdW  Elec       q    Type
REMARK                         _______ _______ _______ _____ _____    ______ ____
ROOT
ATOM      1  C   LIG    1        2.078  -6.130  -3.560  0.00  0.00    -0.013 A 
ATOM      2  C   LIG    1        3.110  -6.987  -2.982  0.00  0.00    +0.007 A 
ATOM      3  C   LIG    1        4.303  -6.737  -2.296  0.00  0.00    +0.056 A 
ATOM      4  C   LIG    1        5.077  -7.797  -1.868  0.00  0.00    +0.121 A 
ATOM      5  C   LIG    1        4.675  -9.107  -2.116  0.00  0.00    +0.047 A 
ATOM      6  C   LIG    1        3.502  -9.364  -2.791  0.00  0.00    +0.030 A 
ATOM      7  C   LIG    1        2.707  -8.311  -3.229  0.00  0.00    +0.050 A 
ATOM      8  N   LIG    1        1.507  -8.259  -3.915  0.00  0.00    -0.335 N 
ATOM      9  C   LIG    1        0.479  -9.122  -4.514  0.00  0.00    +0.158 C 
ATOM     10  C   LIG    1       -0.572  -8.205  -5.084  0.00  0.00    -0.019 A 
ATOM     11  C   LIG    1       -1.754  -8.437  -5.753  0.00  0.00    +0.006 A 
ATOM     12  C   LIG    1       -2.529  -7.372  -6.178  0.00  0.00    +0.000 A 
ATOM     13  C   LIG    1       -2.121  -6.072  -5.931  0.00  0.00    +0.001 A 
ATOM     14  C   LIG    1       -0.940  -5.829  -5.261  0.00  0.00    +0.010 A 
ATOM     15  C   LIG    1       -0.154  -6.900  -4.831  0.00  0.00    +0.004 A 
ATOM     16  C   LIG    1        1.135  -6.949  -4.103  0.00  0.00    +0.054 A 
ENDROOT
BRANCH   4  17
ATOM     17  O   LIG    1        6.239  -7.560  -1.201  0.00  0.00    -0.495 OA
ATOM     18  C   LIG    1        6.992  -8.701  -0.786  0.00  0.00    +0.277 C 
ENDBRANCH   4  17
BRANCH   1  19
ATOM     19  C   LIG    1        2.058  -4.623  -3.552  0.00  0.00    +0.056 C 
BRANCH  19  20
ATOM     20  C   LIG    1        1.341  -4.130  -2.293  0.00  0.00    +0.109 C 
BRANCH  20  22
ATOM     21  C   LIG    1        0.739  -2.004  -1.265  0.00  0.00    +0.213 C 
ATOM     22  N   LIG    1        1.322  -2.665  -2.285  0.00  0.00    -0.315 N 
ATOM     23  H   LIG    1        1.728  -2.170  -3.014  0.00  0.00    +0.149 HD
ATOM     24  O   LIG    1        0.231  -2.623  -0.354  0.00  0.00    -0.276 OA
BRANCH  21  25
ATOM     25  C   LIG    1        0.718  -0.497  -1.257  0.00  0.00    +0.095 C 
BRANCH  25  27
ATOM     26  C   LIG    1       -0.019   1.526   0.010  0.00  0.00    +0.004 C 
ATOM     27  C   LIG    1        0.002  -0.004   0.002  0.00  0.00    +0.006 C 
ENDBRANCH  25  27
ENDBRANCH  21  25
ENDBRANCH  20  22
ENDBRANCH  19  20
ENDBRANCH   1  19
TORSDOF 6
