REMARK  Name = ZINC03080605
REMARK                            x       y       z     vdW  Elec       q    Type
REMARK                         _______ _______ _______ _____ _____    ______ ____
ROOT
ATOM      1  C   LIG    1        3.711  -0.707  -0.038  0.00  0.00    +0.224 C 
ATOM      2  O   LIG    1        3.567  -1.970   0.633  0.00  0.00    -0.339 OA
ATOM      3  C   LIG    1        4.829  -2.175   1.312  0.00  0.00    +0.194 C 
ATOM      4  C   LIG    1        5.193  -0.732   1.742  0.00  0.00    +0.134 C 
ATOM      5  O   LIG    1        4.706   0.068   0.645  0.00  0.00    -0.337 OA
ENDROOT
BRANCH   4   6
ATOM      6  C   LIG    1        6.708  -0.579   1.895  0.00  0.00    -0.040 C 
ATOM      7  C   LIG    1        7.035   0.854   2.321  0.00  0.00    -0.013 C 
ATOM      8  C   LIG    1        8.552   1.002   2.474  0.00  0.00    -0.003 C 
ATOM      9  C   LIG    1        9.227   0.620   1.153  0.00  0.00    -0.019 C 
ATOM     10  C   LIG    1        8.819  -0.805   0.771  0.00  0.00    -0.082 C 
ATOM     11  N   LIG    1        7.361  -0.874   0.614  0.00  0.00    +0.383 N 
ATOM     12  H   LIG    1        7.065  -0.199  -0.076  0.00  0.00    -0.085 HD
ATOM     13  H   LIG    1        7.100  -1.800   0.310  0.00  0.00    -0.085 HD
ENDBRANCH   4   6
BRANCH   1  17
ATOM     14  C   LIG    1       -0.017   1.378   0.010  0.00  0.00    +0.000 A 
ATOM     15  C   LIG    1        1.171   2.086   0.002  0.00  0.00    +0.000 A 
ATOM     16  C   LIG    1        2.377   1.411  -0.013  0.00  0.00    +0.009 A 
ATOM     17  C   LIG    1        2.396   0.029  -0.020  0.00  0.00    +0.016 A 
ATOM     18  C   LIG    1        1.208  -0.679  -0.012  0.00  0.00    +0.009 A 
ATOM     19  C   LIG    1        0.002  -0.004   0.002  0.00  0.00    +0.000 A 
ENDBRANCH   1  17
BRANCH   1  20
ATOM     20  C   LIG    1        4.142  -0.941  -1.463  0.00  0.00    +0.016 A 
ATOM     21  C   LIG    1        3.750  -2.090  -2.124  0.00  0.00    +0.009 A 
ATOM     22  C   LIG    1        4.145  -2.304  -3.431  0.00  0.00    +0.000 A 
ATOM     23  C   LIG    1        4.931  -1.368  -4.077  0.00  0.00    +0.000 A 
ATOM     24  C   LIG    1        5.322  -0.219  -3.417  0.00  0.00    +0.000 A 
ATOM     25  C   LIG    1        4.924  -0.003  -2.111  0.00  0.00    +0.009 A 
ENDBRANCH   1  20
TORSDOF 3
