REMARK  Name = ZINC02873929
REMARK                            x       y       z     vdW  Elec       q    Type
REMARK                         _______ _______ _______ _____ _____    ______ ____
ROOT
ATOM      1  C   LIG    1        1.264  -4.637  -0.034  0.00  0.00    +0.285 C 
ATOM      2  N   LIG    1        0.435  -5.699  -0.031  0.00  0.00    -0.308 N 
ATOM      3  H   LIG    1       -0.526  -5.564  -0.021  0.00  0.00    +0.149 HD
ATOM      4  O   LIG    1        2.466  -4.805  -0.048  0.00  0.00    -0.267 OA
ENDROOT
BRANCH   1   5
ATOM      5  C   LIG    1        0.705  -3.254  -0.021  0.00  0.00    +0.249 C 
ATOM      6  O   LIG    1       -0.499  -3.085  -0.008  0.00  0.00    -0.282 OA
BRANCH   5  12
ATOM      7  C   LIG    1       -0.017   1.374   0.010  0.00  0.00    +0.001 A 
ATOM      8  C   LIG    1        1.172   2.089   0.002  0.00  0.00    +0.002 A 
ATOM      9  C   LIG    1        2.385   1.435  -0.013  0.00  0.00    +0.026 A 
ATOM     10  C   LIG    1        2.424   0.045  -0.021  0.00  0.00    +0.047 A 
ATOM     11  C   LIG    1        1.221  -0.676  -0.013  0.00  0.00    +0.011 A 
ATOM     12  C   LIG    1        1.605  -2.101  -0.025  0.00  0.00    +0.052 A 
ATOM     13  C   LIG    1        2.987  -2.127  -0.038  0.00  0.00    +0.095 A 
ATOM     14  N   LIG    1        3.461  -0.868  -0.036  0.00  0.00    -0.360 N 
ATOM     15  H   LIG    1        4.402  -0.633  -0.045  0.00  0.00    +0.165 HD
ATOM     16  C   LIG    1        0.002  -0.004   0.002  0.00  0.00    +0.011 A 
ENDBRANCH   5  12
ENDBRANCH   1   5
BRANCH   2  17
ATOM     17  C   LIG    1        0.984  -7.057  -0.044  0.00  0.00    +0.109 C 
BRANCH  17  18
ATOM     18  C   LIG    1       -0.162  -8.071  -0.038  0.00  0.00    +0.054 C 
BRANCH  18  19
ATOM     19  C   LIG    1        0.403  -9.468  -0.051  0.00  0.00    -0.046 A 
ATOM     20  C   LIG    1        0.655 -10.100  -1.254  0.00  0.00    +0.005 A 
ATOM     21  C   LIG    1        1.173 -11.381  -1.267  0.00  0.00    +0.020 A 
ATOM     22  C   LIG    1        1.439 -12.031  -0.075  0.00  0.00    +0.041 A 
ATOM     23 CL   LIG    1        2.089 -13.641  -0.090  0.00  0.00    -0.084 Cl
ATOM     24  C   LIG    1        1.187 -11.398   1.129  0.00  0.00    +0.020 A 
ATOM     25  C   LIG    1        0.674 -10.115   1.141  0.00  0.00    +0.005 A 
ENDBRANCH  18  19
ENDBRANCH  17  18
ENDBRANCH   2  17
TORSDOF 5
