REMARK  Name = ZINC02516826
REMARK                            x       y       z     vdW  Elec       q    Type
REMARK                         _______ _______ _______ _____ _____    ______ ____
ROOT
ATOM      1  N   LEU A  1       -0.698   1.558   1.213  0.00  0.00    -0.272 N 
ATOM      2  C   UNK A  0       -0.575   0.877   2.369  0.00  0.00    +0.401 C 
ATOM      3  O   UNK A  0        0.104  -0.130   2.412  0.00  0.00    -0.226 OA
ATOM      4  H   LEU A  1       -1.241   2.362   1.179  0.00  0.00    +0.153 HD
ENDROOT
BRANCH   1   5
ATOM      5  CA  LEU A  1       -0.013   1.086   0.008  0.00  0.00    +0.139 C 
BRANCH   5   6
ATOM      6  C   LEU A  1        1.401   1.607  -0.003  0.00  0.00    +0.245 C 
ATOM      7  O   LEU A  1        1.795   2.302   0.903  0.00  0.00    -0.299 OA
ENDBRANCH   5   6
BRANCH   5   8
ATOM      8  CB  LEU A  1       -0.753   1.593  -1.232  0.00  0.00    +0.033 C 
BRANCH   8  10
ATOM      9  CD1 LEU A  1       -2.931   1.564  -2.454  0.00  0.00    +0.007 C 
ATOM     10  CG  LEU A  1       -2.147   0.964  -1.286  0.00  0.00    -0.015 C 
ATOM     11  CD2 LEU A  1       -2.017  -0.548  -1.482  0.00  0.00    +0.007 C 
ENDBRANCH   8  10
ENDBRANCH   5   8
ENDBRANCH   1   5
BRANCH   2  12
ATOM     12  O   UNK A  0       -1.206   1.311   3.477  0.00  0.00    -0.445 OA
BRANCH  12  13
ATOM     13  C   UNK A  0       -1.028   0.527   4.687  0.00  0.00    +0.107 C 
ATOM     14  C   UNK A  0       -1.541  -0.895   4.452  0.00  0.00    +0.055 C 
ATOM     15  C   UNK A  0       -1.813   1.171   5.831  0.00  0.00    +0.055 C 
ATOM     16  C   UNK A  0        0.457   0.480   5.051  0.00  0.00    +0.055 C 
ENDBRANCH  12  13
ENDBRANCH   2  12
TORSDOF 6
