REMARK  Name = ZINC02557947
REMARK                            x       y       z     vdW  Elec       q    Type
REMARK                         _______ _______ _______ _____ _____    ______ ____
ROOT
ATOM      1  C   LIG    1        5.751  -1.850   2.950  0.00  0.00    +0.114 C 
ATOM      2  C   LIG    1        6.938  -2.509   3.186  0.00  0.00    +0.032 C 
ENDROOT
BRANCH   2   3
ATOM      3  C   LIG    1        7.433  -2.659   4.556  0.00  0.00    -0.020 A 
ATOM      4  C   LIG    1        8.811  -2.618   4.815  0.00  0.00    +0.012 A 
ATOM      5  C   LIG    1        9.273  -2.758   6.104  0.00  0.00    +0.050 A 
ATOM      6  C   LIG    1        8.377  -2.941   7.151  0.00  0.00    +0.158 A 
ATOM      7  C   LIG    1        7.005  -2.982   6.903  0.00  0.00    +0.159 A 
ATOM      8  C   LIG    1        6.531  -2.837   5.615  0.00  0.00    +0.057 A 
BRANCH   6   9
ATOM      9  O   LIG    1        8.840  -3.079   8.420  0.00  0.00    -0.503 OA
ATOM     10  H   LIG    1        8.927  -2.244   8.900  0.00  0.00    +0.292 HD
ENDBRANCH   6   9
BRANCH   7  11
ATOM     11  O   LIG    1        6.133  -3.161   7.931  0.00  0.00    -0.503 OA
ATOM     12  H   LIG    1        5.835  -2.337   8.341  0.00  0.00    +0.292 HD
ENDBRANCH   7  11
ENDBRANCH   2   3
BRANCH   1  15
ATOM     13  N   LIG    1        4.008  -1.199   1.369  0.00  0.00    -0.307 N 
ATOM     14  H   LIG    1        3.557  -0.739   2.094  0.00  0.00    +0.149 HD
ATOM     15  C   LIG    1        5.169  -1.844   1.599  0.00  0.00    +0.255 C 
ATOM     16  O   LIG    1        5.736  -2.421   0.690  0.00  0.00    -0.269 OA
BRANCH  13  17
ATOM     17  C   LIG    1        3.429  -1.192   0.023  0.00  0.00    +0.139 C 
BRANCH  17  21
ATOM     18  C   LIG    1       -0.220   1.028   0.053  0.00  0.00    +0.000 A 
ATOM     19  C   LIG    1        0.977   1.669  -0.207  0.00  0.00    +0.000 A 
ATOM     20  C   LIG    1        2.158   0.950  -0.217  0.00  0.00    +0.005 A 
ATOM     21  C   LIG    1        2.142  -0.409   0.035  0.00  0.00    -0.030 A 
ATOM     22  C   LIG    1        0.945  -1.049   0.296  0.00  0.00    +0.005 A 
ATOM     23  C   LIG    1       -0.236  -0.331   0.304  0.00  0.00    +0.000 A 
ENDBRANCH  17  21
ENDBRANCH  13  17
ENDBRANCH   1  15
BRANCH   1  24
ATOM     24  C   LIG    1        5.085  -1.171   4.021  0.00  0.00    +0.104 C 
ATOM     25  N   LIG    1        4.556  -0.632   4.869  0.00  0.00    -0.191 NA
ENDBRANCH   1  24
TORSDOF 7
