REMARK  Name = ZINC03123706
REMARK                            x       y       z     vdW  Elec       q    Type
REMARK                         _______ _______ _______ _____ _____    ______ ____
ROOT
ATOM      1  C   LIG    1       -1.407   3.203  -1.615  0.00  0.00    +0.115 C 
ATOM      2  C   LIG    1       -0.156   2.364  -1.348  0.00  0.00    +0.050 C 
ATOM      3  C   LIG    1       -0.413   1.468  -0.129  0.00  0.00    +0.081 C 
ATOM      4  C   LIG    1        0.800   0.568   0.117  0.00  0.00    +0.028 C 
ATOM      5  N   LIG    1       -0.630   2.339   1.033  0.00  0.00    -0.264 N 
ATOM      6  C   LIG    1       -0.036   2.069   2.212  0.00  0.00    +0.251 C 
ATOM      7  O   LIG    1        1.039   1.503   2.236  0.00  0.00    -0.270 OA
ATOM      8  C   LIG    1       -1.465   3.456   0.895  0.00  0.00    +0.042 A 
ATOM      9  C   LIG    1       -1.904   4.118   2.036  0.00  0.00    +0.024 A 
ATOM     10  C   LIG    1       -2.724   5.223   1.921  0.00  0.00    +0.002 A 
ATOM     11  C   LIG    1       -3.107   5.670   0.670  0.00  0.00    +0.000 A 
ATOM     12  C   LIG    1       -2.675   5.012  -0.465  0.00  0.00    +0.007 A 
ATOM     13  C   LIG    1       -1.853   3.902  -0.358  0.00  0.00    -0.005 A 
ENDROOT
BRANCH   6  14
ATOM     14  C   LIG    1       -0.692   2.462   3.478  0.00  0.00    +0.037 A 
ATOM     15  C   LIG    1       -2.054   2.218   3.666  0.00  0.00    +0.013 A 
ATOM     16  C   LIG    1       -2.659   2.583   4.851  0.00  0.00    +0.001 A 
ATOM     17  C   LIG    1       -1.922   3.199   5.847  0.00  0.00    +0.000 A 
ATOM     18  C   LIG    1       -0.573   3.447   5.665  0.00  0.00    +0.001 A 
ATOM     19  C   LIG    1        0.046   3.083   4.487  0.00  0.00    +0.013 A 
ENDBRANCH   6  14
BRANCH   1  21
ATOM     20  C   LIG    1       -0.227   5.188  -2.390  0.00  0.00    +0.220 C 
ATOM     21  N   LIG    1       -1.109   4.202  -2.644  0.00  0.00    -0.264 N 
ATOM     22  O   LIG    1        0.385   5.199  -1.343  0.00  0.00    -0.275 OA
BRANCH  21  23
ATOM     23  C   LIG    1       -1.739   4.131  -3.892  0.00  0.00    +0.037 A 
ATOM     24  C   LIG    1       -2.458   5.218  -4.370  0.00  0.00    +0.023 A 
ATOM     25  C   LIG    1       -3.075   5.148  -5.604  0.00  0.00    +0.002 A 
ATOM     26  C   LIG    1       -2.986   3.992  -6.358  0.00  0.00    +0.000 A 
ATOM     27  C   LIG    1       -2.275   2.905  -5.882  0.00  0.00    +0.002 A 
ATOM     28  C   LIG    1       -1.652   2.972  -4.651  0.00  0.00    +0.023 A 
ENDBRANCH  21  23
BRANCH  20  29
ATOM     29  C   LIG    1       -0.001   6.278  -3.406  0.00  0.00    +0.096 C 
BRANCH  29  30
ATOM     30  C   LIG    1        1.131   7.191  -2.932  0.00  0.00    +0.009 C 
BRANCH  30  32
ATOM     31  C   LIG    1        2.492   9.211  -3.489  0.00  0.00    +0.004 C 
ATOM     32  C   LIG    1        1.360   8.297  -3.964  0.00  0.00    -0.003 C 
ENDBRANCH  30  32
ENDBRANCH  29  30
ENDBRANCH  20  29
ENDBRANCH   1  21
TORSDOF 6
