REMARK  Name = ZINC02701387
REMARK                            x       y       z     vdW  Elec       q    Type
REMARK                         _______ _______ _______ _____ _____    ______ ____
ROOT
ATOM      1  C   LIG    1        2.064   1.114   1.238  0.00  0.00    -0.044 C 
ENDROOT
BRANCH   1   2
ATOM      2  N   LIG    1        1.369   1.454   2.497  0.00  0.00    +0.381 N 
ATOM      3  H   LIG    1        1.389   2.472   2.624  0.00  0.00    -0.082 HD
ATOM      4  C   LIG    1        2.056   0.814   3.640  0.00  0.00    -0.078 C 
ATOM      5  C   LIG    1        1.391   1.276   4.939  0.00  0.00    -0.015 C 
ATOM      6  C   LIG    1       -0.083   0.864   4.927  0.00  0.00    -0.010 C 
ATOM      7  C   LIG    1       -0.764   1.472   3.698  0.00  0.00    -0.015 C 
ATOM      8  C   LIG    1       -0.038   1.005   2.434  0.00  0.00    -0.078 C 
BRANCH   6   9
ATOM      9  C   LIG    1       -0.767   1.374   6.197  0.00  0.00    +0.038 C 
BRANCH   9  10
ATOM     10  C   LIG    1       -2.185   0.865   6.243  0.00  0.00    -0.047 A 
ATOM     11  C   LIG    1       -3.205   1.609   5.679  0.00  0.00    +0.003 A 
ATOM     12  C   LIG    1       -4.505   1.140   5.718  0.00  0.00    +0.000 A 
ATOM     13  C   LIG    1       -4.786  -0.068   6.329  0.00  0.00    +0.000 A 
ATOM     14  C   LIG    1       -3.766  -0.809   6.897  0.00  0.00    +0.000 A 
ATOM     15  C   LIG    1       -2.466  -0.342   6.855  0.00  0.00    +0.003 A 
ENDBRANCH   9  10
ENDBRANCH   6   9
ENDBRANCH   1   2
BRANCH   1  16
ATOM     16  C   LIG    1        3.438   1.787   1.236  0.00  0.00    +0.135 C 
BRANCH  16  17
ATOM     17  O   LIG    1        3.276   3.200   1.370  0.00  0.00    -0.390 OA
ATOM     18  H   LIG    1        2.759   3.606   0.660  0.00  0.00    +0.210 HD
ENDBRANCH  16  17
BRANCH  16  19
ATOM     19  C   LIG    1        4.155   1.478  -0.080  0.00  0.00    +0.258 C 
BRANCH  19  20
ATOM     20  O   LIG    1        5.481   2.007  -0.035  0.00  0.00    -0.489 OA
BRANCH  20  26
ATOM     21  C   LIG    1        7.572   2.312  -1.159  0.00  0.00    +0.059 A 
ATOM     22  C   LIG    1        8.362   2.109  -2.297  0.00  0.00    +0.015 A 
ATOM     23  C   LIG    1        7.846   1.431  -3.378  0.00  0.00    +0.001 A 
ATOM     24  C   LIG    1        6.547   0.946  -3.346  0.00  0.00    +0.004 A 
ATOM     25  C   LIG    1        5.758   1.133  -2.228  0.00  0.00    +0.046 A 
ATOM     26  C   LIG    1        6.257   1.819  -1.131  0.00  0.00    +0.131 A 
BRANCH  21  28
ATOM     27  C   LIG    1        9.526   3.560  -0.036  0.00  0.00    +0.092 C 
ATOM     28  C   LIG    1        8.115   3.034  -0.002  0.00  0.00    +0.164 C 
ATOM     29  O   LIG    1        7.427   3.206   0.983  0.00  0.00    -0.292 OA
ENDBRANCH  21  28
ENDBRANCH  20  26
ENDBRANCH  19  20
ENDBRANCH  16  19
ENDBRANCH   1  16
TORSDOF 9
