REMARK  Name = ZINC03363866
REMARK                            x       y       z     vdW  Elec       q    Type
REMARK                         _______ _______ _______ _____ _____    ______ ____
ROOT
ATOM      1  C   LIG    1        1.795  -0.023   1.780  0.00  0.00    +0.234 C 
ATOM      2  N   LIG    1        2.117   1.280   1.903  0.00  0.00    -0.315 N 
ATOM      3  H   LIG    1        1.418   1.947   1.986  0.00  0.00    +0.149 HD
ATOM      4  O   LIG    1        2.663  -0.847   1.587  0.00  0.00    -0.274 OA
ENDROOT
BRANCH   1   5
ATOM      5  C   LIG    1        0.355  -0.456   1.884  0.00  0.00    +0.162 C 
BRANCH   5   6
ATOM      6  N   LIG    1        0.296  -1.879   2.225  0.00  0.00    -0.297 N 
ATOM      7  H   LIG    1        1.037  -2.463   2.000  0.00  0.00    +0.150 HD
ATOM      8  C   LIG    1       -0.788  -2.378   2.851  0.00  0.00    +0.280 C 
ATOM      9  O   LIG    1       -1.718  -1.646   3.134  0.00  0.00    -0.267 OA
BRANCH   8  10
ATOM     10  C   LIG    1       -0.847  -3.803   3.192  0.00  0.00    +0.189 A 
ATOM     11  C   LIG    1       -1.882  -4.436   3.819  0.00  0.00    +0.054 A 
ATOM     12  C   LIG    1       -1.515  -5.785   3.942  0.00  0.00    +0.042 A 
ATOM     13  C   LIG    1       -0.287  -5.915   3.392  0.00  0.00    +0.196 A 
ATOM     14  O   LIG    1        0.110  -4.720   2.937  0.00  0.00    -0.458 OA
ENDBRANCH   8  10
ENDBRANCH   5   6
BRANCH   5  16
ATOM     15  C   LIG    1        0.301  -1.102  -0.529  0.00  0.00    +0.009 C 
ATOM     16  C   LIG    1       -0.345  -0.223   0.543  0.00  0.00    +0.012 C 
ATOM     17  C   LIG    1       -1.827  -0.583   0.673  0.00  0.00    +0.009 C 
ENDBRANCH   5  16
ENDBRANCH   1   5
BRANCH   2  18
ATOM     18  C   LIG    1        3.524   1.689   1.912  0.00  0.00    +0.096 C 
BRANCH  18  19
ATOM     19  C   LIG    1        3.616   3.195   2.164  0.00  0.00    +0.016 C 
BRANCH  19  20
ATOM     20  N   LIG    1        2.801   3.908   1.171  0.00  0.00    +0.387 N 
ATOM     21  H   LIG    1        1.844   3.595   1.235  0.00  0.00    -0.081 HD
ATOM     22  C   LIG    1        3.316   3.627  -0.175  0.00  0.00    -0.078 C 
ATOM     23  C   LIG    1        2.423   4.301  -1.218  0.00  0.00    -0.019 C 
ATOM     24  C   LIG    1        2.419   5.814  -0.977  0.00  0.00    -0.004 C 
ATOM     25  C   LIG    1        1.951   6.092   0.454  0.00  0.00    -0.019 C 
ATOM     26  C   LIG    1        2.862   5.351   1.436  0.00  0.00    -0.078 C 
ENDBRANCH  19  20
BRANCH  19  27
ATOM     27  C   LIG    1        3.106   3.505   3.548  0.00  0.00    +0.093 A 
ATOM     28  C   LIG    1        3.866   3.730   4.634  0.00  0.00    +0.043 A 
ATOM     29  C   LIG    1        2.982   3.978   5.709  0.00  0.00    +0.041 A 
ATOM     30  C   LIG    1        1.734   3.890   5.215  0.00  0.00    +0.195 A 
ATOM     31  O   LIG    1        1.815   3.609   3.904  0.00  0.00    -0.469 OA
ENDBRANCH  19  27
ENDBRANCH  18  19
ENDBRANCH   2  18
TORSDOF 8
