REMARK  Name = ZINC02712350
REMARK                            x       y       z     vdW  Elec       q    Type
REMARK                         _______ _______ _______ _____ _____    ______ ____
ROOT
ATOM      1  C   LIG    1        1.500  -4.441   3.685  0.00  0.00    +0.130 A 
ATOM      2  C   LIG    1        1.601  -3.713   4.856  0.00  0.00    +0.046 A 
ATOM      3  C   LIG    1        1.707  -4.354   6.082  0.00  0.00    +0.004 A 
ATOM      4  C   LIG    1        1.714  -5.730   6.161  0.00  0.00    +0.014 A 
ATOM      5  C   LIG    1        1.613  -6.488   4.994  0.00  0.00    +0.050 A 
ATOM      6  C   LIG    1        1.615  -7.955   5.020  0.00  0.00    +0.260 A 
ATOM      7  O   LIG    1        1.706  -8.552   6.077  0.00  0.00    -0.267 OA
ATOM      8  N   LIG    1        1.497  -8.634   3.861  0.00  0.00    -0.306 N 
ATOM      9  C   LIG    1        1.394  -8.003   2.654  0.00  0.00    +0.090 A 
ATOM     10  C   LIG    1        1.389  -6.665   2.540  0.00  0.00    +0.030 A 
ATOM     11  C   LIG    1        1.499  -5.840   3.743  0.00  0.00    +0.030 A 
ENDROOT
BRANCH   1  12
ATOM     12  O   LIG    1        1.397  -3.805   2.489  0.00  0.00    -0.477 OA
BRANCH  12  13
ATOM     13  C   LIG    1        1.278  -2.381   2.520  0.00  0.00    +0.278 C 
ATOM     14  C   LIG    1        2.671  -1.754   2.599  0.00  0.00    +0.064 C 
BRANCH  13  15
ATOM     15  C   LIG    1        0.584  -1.908   1.268  0.00  0.00    +0.348 C 
ATOM     16  O   LIG    1        0.310  -2.696   0.395  0.00  0.00    -0.247 OA
BRANCH  15  17
ATOM     17  O   LIG    1        0.272  -0.611   1.124  0.00  0.00    -0.462 OA
BRANCH  17  19
ATOM     18  C   LIG    1       -0.658   1.273  -0.071  0.00  0.00    +0.048 C 
ATOM     19  C   LIG    1       -0.385  -0.233  -0.088  0.00  0.00    +0.229 C 
ENDBRANCH  17  19
ENDBRANCH  15  17
ENDBRANCH  13  15
ENDBRANCH  12  13
ENDBRANCH   1  12
BRANCH   8  20
ATOM     20  C   LIG    1        1.494 -10.098   3.897  0.00  0.00    +0.220 C 
BRANCH  20  21
ATOM     21  C   LIG    1        2.909 -10.606   3.784  0.00  0.00    +0.233 C 
ATOM     22  N   LIG    1        3.151 -11.932   3.794  0.00  0.00    -0.310 N 
ATOM     23  H   LIG    1        2.415 -12.559   3.874  0.00  0.00    +0.149 HD
ATOM     24  O   LIG    1        3.829  -9.822   3.684  0.00  0.00    -0.274 OA
BRANCH  22  25
ATOM     25  C   LIG    1        4.526 -12.426   3.685  0.00  0.00    +0.139 C 
BRANCH  25  26
ATOM     26  C   LIG    1        4.523 -13.933   3.721  0.00  0.00    -0.030 A 
ATOM     27  C   LIG    1        4.621 -14.595   4.931  0.00  0.00    +0.005 A 
ATOM     28  C   LIG    1        4.618 -15.977   4.964  0.00  0.00    +0.000 A 
ATOM     29  C   LIG    1        4.516 -16.697   3.788  0.00  0.00    +0.000 A 
ATOM     30  C   LIG    1        4.417 -16.034   2.579  0.00  0.00    +0.000 A 
ATOM     31  C   LIG    1        4.416 -14.652   2.546  0.00  0.00    +0.005 A 
ENDBRANCH  25  26
ENDBRANCH  22  25
ENDBRANCH  20  21
ENDBRANCH   8  20
TORSDOF 9
