REMARK  Name = ZINC02560260
REMARK                            x       y       z     vdW  Elec       q    Type
REMARK                         _______ _______ _______ _____ _____    ______ ____
ROOT
ATOM      1  N   LIG    1        0.883   5.552   1.059  0.00  0.00    -0.346 N 
ATOM      2  C   LIG    1        0.128   5.972   2.111  0.00  0.00    +0.095 A 
ATOM      3  C   LIG    1        0.620   7.152   2.587  0.00  0.00    +0.013 A 
ATOM      4  C   LIG    1        1.779   7.493   1.743  0.00  0.00    +0.008 A 
ATOM      5  C   LIG    1        2.679   8.556   1.723  0.00  0.00    +0.010 A 
ATOM      6  C   LIG    1        3.682   8.582   0.778  0.00  0.00    +0.001 A 
ATOM      7  C   LIG    1        3.797   7.558  -0.150  0.00  0.00    +0.002 A 
ATOM      8  C   LIG    1        2.913   6.500  -0.141  0.00  0.00    +0.026 A 
ATOM      9  C   LIG    1        1.894   6.455   0.804  0.00  0.00    +0.050 A 
ENDROOT
BRANCH   3  10
ATOM     10  C   LIG    1        0.092   7.934   3.717  0.00  0.00    +0.059 C 
ATOM     11  C   LIG    1        0.233   7.647   5.070  0.00  0.00    +0.059 C 
ATOM     12  C   LIG    1       -0.470   8.726   5.793  0.00  0.00    +0.252 C 
ATOM     13  N   LIG    1       -0.984   9.582   4.893  0.00  0.00    -0.248 N 
ATOM     14  H   LIG    1       -1.492  10.378   5.115  0.00  0.00    +0.158 HD
ATOM     15  O   LIG    1       -0.569   8.824   7.000  0.00  0.00    -0.270 OA
ATOM     16  C   LIG    1       -0.688   9.186   3.643  0.00  0.00    +0.252 C 
ATOM     17  O   LIG    1       -1.013   9.760   2.623  0.00  0.00    -0.270 OA
BRANCH  11  18
ATOM     18  C   LIG    1        0.940   6.499   5.663  0.00  0.00    +0.013 A 
ATOM     19  C   LIG    1        2.290   6.331   5.753  0.00  0.00    +0.092 A 
ATOM     20  N   LIG    1        2.565   5.147   6.367  0.00  0.00    -0.360 N 
ATOM     21  C   LIG    1        1.394   4.494   6.691  0.00  0.00    +0.047 A 
ATOM     22  C   LIG    1        1.124   3.277   7.309  0.00  0.00    +0.026 A 
ATOM     23  C   LIG    1       -0.181   2.879   7.502  0.00  0.00    +0.002 A 
ATOM     24  C   LIG    1       -1.234   3.680   7.084  0.00  0.00    +0.001 A 
ATOM     25  C   LIG    1       -0.987   4.888   6.469  0.00  0.00    +0.010 A 
ATOM     26  H   LIG    1        3.456   4.810   6.547  0.00  0.00    +0.165 HD
ATOM     27  C   LIG    1        0.327   5.304   6.269  0.00  0.00    +0.008 A 
ENDBRANCH  11  18
ENDBRANCH   3  10
BRANCH   1  28
ATOM     28  C   LIG    1        0.650   4.320   0.301  0.00  0.00    +0.120 C 
BRANCH  28  29
ATOM     29  C   LIG    1        1.532   3.202   0.862  0.00  0.00    +0.006 C 
BRANCH  29  33
ATOM     30  C   LIG    1       -0.804   1.948  -1.056  0.00  0.00    -0.096 C 
ATOM     31  N   LIG    1        0.010   1.432   0.075  0.00  0.00    +0.380 N 
ATOM     32  H   LIG    1       -0.414   1.736   0.960  0.00  0.00    -0.082 HD
ATOM     33  C   LIG    1        1.389   1.953  -0.011  0.00  0.00    -0.067 C 
ATOM     34  C   LIG    1        2.270   0.805   0.542  0.00  0.00    -0.017 C 
ATOM     35  C   LIG    1        1.544  -0.445  -0.020  0.00  0.00    -0.020 C 
ATOM     36  C   LIG    1        0.056  -0.039   0.038  0.00  0.00    -0.079 C 
ENDBRANCH  29  33
ENDBRANCH  28  29
ENDBRANCH   1  28
TORSDOF 5
