REMARK  Name = ZINC02561569
REMARK                            x       y       z     vdW  Elec       q    Type
REMARK                         _______ _______ _______ _____ _____    ______ ____
ROOT
ATOM      1  C   LIG    1       -0.026   1.473   0.139  0.00  0.00    +0.080 A 
ATOM      2  C   LIG    1        1.146   2.175   0.111  0.00  0.00    +0.076 A 
ATOM      3  S   LIG    1        0.528   3.852   0.054  0.00  0.00    -0.060 S 
ATOM      4  C   LIG    1       -1.213   3.449   0.073  0.00  0.00    +0.163 A 
ATOM      5  N   LIG    1       -1.178   2.130   0.114  0.00  0.00    -0.225 NA
ENDROOT
BRANCH   1   9
ATOM      6  C   LIG    1        0.018  -2.776   0.287  0.00  0.00    -0.042 A 
ATOM      7  C   LIG    1       -1.188  -2.099   0.268  0.00  0.00    +0.005 A 
ATOM      8  C   LIG    1       -1.209  -0.721   0.220  0.00  0.00    +0.010 A 
ATOM      9  C   LIG    1       -0.011  -0.009   0.191  0.00  0.00    +0.001 A 
ATOM     10  C   LIG    1        1.202  -0.696   0.205  0.00  0.00    +0.010 A 
ATOM     11  C   LIG    1        1.210  -2.075   0.258  0.00  0.00    +0.005 A 
BRANCH   6  13
ATOM     12  C   LIG    1       -0.686  -4.842  -0.889  0.00  0.00    +0.015 C 
ATOM     13  C   LIG    1        0.034  -4.282   0.339  0.00  0.00    -0.013 C 
ATOM     14  C   LIG    1       -0.677  -4.755   1.608  0.00  0.00    +0.015 C 
ATOM     15  C   LIG    1        1.482  -4.776   0.351  0.00  0.00    +0.015 C 
ENDBRANCH   6  13
ENDBRANCH   1   9
BRANCH   4  16
ATOM     16  N   LIG    1       -2.310   4.297   0.047  0.00  0.00    -0.293 N 
ATOM     17  H   LIG    1       -3.203   3.931  -0.049  0.00  0.00    +0.154 HD
BRANCH  16  18
ATOM     18  C   LIG    1       -2.129   5.674   0.157  0.00  0.00    +0.041 A 
ATOM     19  C   LIG    1       -0.992   6.181   0.750  0.00  0.00    +0.024 A 
ATOM     20  C   LIG    1       -0.799   7.555   0.862  0.00  0.00    +0.002 A 
ATOM     21  C   LIG    1       -1.730   8.435   0.399  0.00  0.00    +0.008 A 
ATOM     22  C   LIG    1       -2.905   7.959  -0.208  0.00  0.00    -0.016 A 
ATOM     23  C   LIG    1       -3.883   8.845  -0.694  0.00  0.00    +0.008 A 
ATOM     24  C   LIG    1       -5.010   8.350  -1.275  0.00  0.00    +0.001 A 
ATOM     25  C   LIG    1       -5.210   6.976  -1.396  0.00  0.00    +0.001 A 
ATOM     26  C   LIG    1       -4.285   6.090  -0.936  0.00  0.00    +0.010 A 
ATOM     27  C   LIG    1       -3.110   6.563  -0.331  0.00  0.00    +0.003 A 
ENDBRANCH  16  18
ENDBRANCH   4  16
TORSDOF 4
