REMARK  Name = ZINC02597113
REMARK                            x       y       z     vdW  Elec       q    Type
REMARK                         _______ _______ _______ _____ _____    ______ ____
ROOT
ATOM      1  S   LIG    1        1.177  -2.451  -0.021  0.00  0.00    +0.061 S 
ATOM      2  O   LIG    1       -0.189  -2.830   0.070  0.00  0.00    -0.153 OA
ATOM      3  O   LIG    1        2.153  -2.889   0.914  0.00  0.00    -0.153 OA
ENDROOT
BRANCH   1   8
ATOM      4  C   LIG    1        1.928   1.385  -0.965  0.00  0.00    +0.003 A 
ATOM      5  C   LIG    1        1.294   2.104   0.001  0.00  0.00    +0.009 A 
ATOM      6  C   LIG    1        0.588   1.435   1.015  0.00  0.00    -0.003 A 
ATOM      7  C   LIG    1        0.548   0.018   1.015  0.00  0.00    +0.009 A 
ATOM      8  C   LIG    1        1.214  -0.690   0.000  0.00  0.00    +0.113 A 
ATOM      9  C   LIG    1       -0.158  -0.651   2.030  0.00  0.00    +0.010 A 
ATOM     10  C   LIG    1       -0.791   0.068   2.997  0.00  0.00    +0.002 A 
ATOM     11  C   LIG    1       -0.751   1.461   2.997  0.00  0.00    +0.015 A 
ATOM     12  C   LIG    1       -0.078   2.143   2.030  0.00  0.00    +0.021 A 
ATOM     13  I   LIG    1       -0.035   4.238   2.056  0.00  0.00    -0.043 I 
ATOM     14  C   LIG    1        1.889  -0.007  -0.966  0.00  0.00    +0.029 A 
ENDBRANCH   1   8
BRANCH   1  15
ATOM     15  N   LIG    1        1.704  -2.933  -1.515  0.00  0.00    -0.178 NA
ATOM     16  C   LIG    1        0.784  -3.035  -2.617  0.00  0.00    +0.107 C 
ATOM     17  C   LIG    1        0.115  -4.414  -2.822  0.00  0.00    -0.002 C 
ATOM     18  C   LIG    1        1.151  -5.543  -2.616  0.00  0.00    -0.081 C 
ATOM     19  N   LIG    1        2.423  -5.148  -3.174  0.00  0.00    +0.380 N 
ATOM     20  H   LIG    1        2.301  -4.386  -3.824  0.00  0.00    -0.086 HD
ATOM     21  H   LIG    1        2.868  -5.932  -3.628  0.00  0.00    -0.086 HD
ATOM     22  C   LIG    1        3.207  -4.715  -2.022  0.00  0.00    -0.065 C 
ATOM     23  C   LIG    1        3.150  -3.267  -1.744  0.00  0.00    +0.090 C 
ENDBRANCH   1  15
TORSDOF 2
