REMARK  Name = ZINC02878998
REMARK                            x       y       z     vdW  Elec       q    Type
REMARK                         _______ _______ _______ _____ _____    ______ ____
ROOT
ATOM      1  N   LIG    1       -4.196   4.795  -1.593  0.00  0.00    -0.285 N 
ATOM      2  H   LIG    1       -4.813   4.964  -0.864  0.00  0.00    +0.155 HD
ATOM      3  C   LIG    1       -3.035   4.152  -1.358  0.00  0.00    +0.222 C 
ATOM      4  O   LIG    1       -2.301   3.869  -2.281  0.00  0.00    -0.275 OA
ENDROOT
BRANCH   1  10
ATOM      5  C   LIG    1       -5.206   6.418  -3.082  0.00  0.00    +0.080 A 
ATOM      6  C   LIG    1       -5.515   6.829  -4.382  0.00  0.00    +0.017 A 
ATOM      7  C   LIG    1       -5.135   6.054  -5.456  0.00  0.00    +0.001 A 
ATOM      8  C   LIG    1       -4.446   4.868  -5.255  0.00  0.00    +0.002 A 
ATOM      9  C   LIG    1       -4.130   4.452  -3.978  0.00  0.00    +0.024 A 
ATOM     10  C   LIG    1       -4.510   5.216  -2.883  0.00  0.00    +0.047 A 
BRANCH   5  11
ATOM     11  C   LIG    1       -5.610   7.241  -1.929  0.00  0.00    +0.341 C 
ATOM     12  O   LIG    1       -5.256   6.932  -0.808  0.00  0.00    -0.245 OA
BRANCH  11  14
ATOM     13  C   LIG    1       -6.731   9.100  -0.935  0.00  0.00    +0.280 C 
ATOM     14  O   LIG    1       -6.371   8.337  -2.116  0.00  0.00    -0.464 OA
ENDBRANCH  11  14
ENDBRANCH   5  11
ENDBRANCH   1  10
BRANCH   3  15
ATOM     15  C   LIG    1       -2.648   3.786   0.052  0.00  0.00    +0.131 C 
BRANCH  15  16
ATOM     16  C   LIG    1       -1.316   3.081   0.041  0.00  0.00    -0.031 A 
ATOM     17  C   LIG    1       -1.262   1.721   0.013  0.00  0.00    +0.005 A 
ATOM     18  C   LIG    1       -0.040   1.052   0.007  0.00  0.00    +0.001 A 
ATOM     19  C   LIG    1        1.135   1.738   0.018  0.00  0.00    +0.008 A 
ATOM     20  C   LIG    1        1.119   3.143   0.041  0.00  0.00    -0.018 A 
ATOM     21  C   LIG    1        2.312   3.887   0.052  0.00  0.00    +0.008 A 
ATOM     22  C   LIG    1        2.258   5.246   0.073  0.00  0.00    +0.001 A 
ATOM     23  C   LIG    1        1.035   5.916   0.085  0.00  0.00    +0.001 A 
ATOM     24  C   LIG    1       -0.140   5.229   0.074  0.00  0.00    +0.009 A 
ATOM     25  C   LIG    1       -0.124   3.824   0.052  0.00  0.00    -0.014 A 
ENDBRANCH  15  16
ENDBRANCH   3  15
TORSDOF 5
