REMARK  Name = ZINC03065713
REMARK                            x       y       z     vdW  Elec       q    Type
REMARK                         _______ _______ _______ _____ _____    ______ ____
ROOT
ATOM      1  C   LIG    1       -4.241  -4.644   0.018  0.00  0.00    -0.047 A 
ATOM      2  C   LIG    1       -4.877  -4.884   1.223  0.00  0.00    +0.004 A 
ATOM      3  C   LIG    1       -6.171  -5.362   1.241  0.00  0.00    +0.011 A 
ATOM      4  C   LIG    1       -6.840  -5.604   0.037  0.00  0.00    +0.017 A 
ATOM      5  C   LIG    1       -6.190  -5.359  -1.177  0.00  0.00    +0.011 A 
ATOM      6  C   LIG    1       -4.898  -4.876  -1.178  0.00  0.00    +0.004 A 
ENDROOT
BRANCH   4   7
ATOM      7  C   LIG    1       -8.220  -6.114   0.048  0.00  0.00    +0.161 C 
ATOM      8  O   LIG    1       -8.780  -6.326   1.102  0.00  0.00    -0.292 OA
BRANCH   7   9
ATOM      9  C   LIG    1       -8.937  -6.374  -1.252  0.00  0.00    +0.061 C 
BRANCH   9  10
ATOM     10  C   LIG    1      -10.346  -6.896  -0.962  0.00  0.00    -0.072 C 
BRANCH  10  11
ATOM     11  N   LIG    1      -11.045  -7.149  -2.229  0.00  0.00    +0.376 N 
ATOM     12  H   LIG    1      -11.034  -6.311  -2.792  0.00  0.00    -0.083 HD
ATOM     13  C   LIG    1      -12.435  -7.535  -1.952  0.00  0.00    -0.097 C 
ATOM     14  C   LIG    1      -10.370  -8.234  -2.952  0.00  0.00    -0.097 C 
ENDBRANCH  10  11
ENDBRANCH   9  10
ENDBRANCH   7   9
ENDBRANCH   4   7
BRANCH   1  15
ATOM     15  C   LIG    1       -2.827  -4.123   0.007  0.00  0.00    +0.035 C 
BRANCH  15  16
ATOM     16  C   LIG    1       -2.848  -2.593   0.015  0.00  0.00    +0.005 C 
BRANCH  16  17
ATOM     17  C   LIG    1       -1.413  -2.063   0.004  0.00  0.00    +0.000 C 
BRANCH  17  18
ATOM     18  C   LIG    1       -1.433  -0.534   0.013  0.00  0.00    -0.000 C 
BRANCH  18  20
ATOM     19  C   LIG    1       -0.019   1.526   0.010  0.00  0.00    +0.004 C 
ATOM     20  C   LIG    1        0.002  -0.004   0.002  0.00  0.00    -0.003 C 
ENDBRANCH  18  20
ENDBRANCH  17  18
ENDBRANCH  16  17
ENDBRANCH  15  16
ENDBRANCH   1  15
TORSDOF 9
