REMARK  Name = ZINC02712346
REMARK                            x       y       z     vdW  Elec       q    Type
REMARK                         _______ _______ _______ _____ _____    ______ ____
ROOT
ATOM      1  C   LIG    1        1.219  -4.383  -3.761  0.00  0.00    +0.130 A 
ATOM      2  C   LIG    1        1.314  -3.644  -4.925  0.00  0.00    +0.046 A 
ATOM      3  C   LIG    1        1.181  -4.255  -6.165  0.00  0.00    +0.004 A 
ATOM      4  C   LIG    1        0.953  -5.609  -6.263  0.00  0.00    +0.014 A 
ATOM      5  C   LIG    1        0.853  -6.378  -5.104  0.00  0.00    +0.050 A 
ATOM      6  C   LIG    1        0.610  -7.825  -5.150  0.00  0.00    +0.260 A 
ATOM      7  O   LIG    1        0.488  -8.395  -6.220  0.00  0.00    -0.267 OA
ATOM      8  N   LIG    1        0.540  -8.518  -3.997  0.00  0.00    -0.306 N 
ATOM      9  C   LIG    1        0.670  -7.918  -2.776  0.00  0.00    +0.090 A 
ATOM     10  C   LIG    1        0.888  -6.599  -2.643  0.00  0.00    +0.030 A 
ATOM     11  C   LIG    1        0.993  -5.763  -3.839  0.00  0.00    +0.030 A 
ENDROOT
BRANCH   1  12
ATOM     12  O   LIG    1        1.349  -3.777  -2.552  0.00  0.00    -0.477 OA
BRANCH  12  13
ATOM     13  C   LIG    1        1.465  -2.353  -2.549  0.00  0.00    +0.278 C 
ATOM     14  C   LIG    1        2.926  -1.960  -2.774  0.00  0.00    +0.064 C 
BRANCH  13  15
ATOM     15  C   LIG    1        0.998  -1.814  -1.222  0.00  0.00    +0.348 C 
ATOM     16  O   LIG    1        0.692  -2.575  -0.334  0.00  0.00    -0.247 OA
BRANCH  15  17
ATOM     17  O   LIG    1        0.922  -0.488  -1.025  0.00  0.00    -0.462 OA
BRANCH  17  19
ATOM     18  C   LIG    1        0.451   1.482   0.293  0.00  0.00    +0.048 C 
ATOM     19  C   LIG    1        0.472  -0.048   0.258  0.00  0.00    +0.229 C 
ENDBRANCH  17  19
ENDBRANCH  15  17
ENDBRANCH  13  15
ENDBRANCH  12  13
ENDBRANCH   1  12
BRANCH   8  20
ATOM     20  C   LIG    1        0.304  -9.963  -4.053  0.00  0.00    +0.220 C 
BRANCH  20  21
ATOM     21  C   LIG    1       -1.179 -10.230  -4.035  0.00  0.00    +0.233 C 
ATOM     22  N   LIG    1       -1.636 -11.497  -4.079  0.00  0.00    -0.311 N 
ATOM     23  H   LIG    1       -1.010 -12.237  -4.122  0.00  0.00    +0.149 HD
ATOM     24  O   LIG    1       -1.961  -9.305  -3.981  0.00  0.00    -0.274 OA
BRANCH  22  25
ATOM     25  C   LIG    1       -3.077 -11.757  -4.062  0.00  0.00    +0.073 C 
ATOM     26  C   LIG    1       -3.574 -11.784  -2.615  0.00  0.00    +0.022 C 
ATOM     27  C   LIG    1       -5.079 -12.056  -2.597  0.00  0.00    +0.002 C 
ATOM     28  C   LIG    1       -5.362 -13.406  -3.258  0.00  0.00    +0.000 C 
ATOM     29  C   LIG    1       -4.866 -13.379  -4.705  0.00  0.00    +0.002 C 
ATOM     30  C   LIG    1       -3.360 -13.107  -4.723  0.00  0.00    +0.022 C 
ENDBRANCH  22  25
ENDBRANCH  20  21
ENDBRANCH   8  20
TORSDOF 8
