REMARK  Name = ZINC02977764
REMARK                            x       y       z     vdW  Elec       q    Type
REMARK                         _______ _______ _______ _____ _____    ______ ____
ROOT
ATOM      1  C   LIG    1        0.742   7.427   0.633  0.00  0.00    +0.121 A 
ATOM      2  C   LIG    1        0.779   8.463  -0.296  0.00  0.00    +0.046 A 
ATOM      3  C   LIG    1        0.690   9.761   0.119  0.00  0.00    +0.011 A 
ATOM      4  C   LIG    1        0.571  10.049   1.488  0.00  0.00    -0.024 A 
ATOM      5  C   LIG    1        0.540   9.001   2.420  0.00  0.00    +0.011 A 
ATOM      6  C   LIG    1        0.624   7.707   1.991  0.00  0.00    +0.046 A 
ENDROOT
BRANCH   4   7
ATOM      7  C   LIG    1        0.481  11.437   1.940  0.00  0.00    +0.026 C 
ATOM      8  C   LIG    1        1.343  12.388   1.428  0.00  0.00    +0.100 C 
ATOM      9  C   LIG    1        2.508  12.009   0.604  0.00  0.00    +0.256 C 
ATOM     10  N   LIG    1        3.302  12.993   0.134  0.00  0.00    -0.236 N 
ATOM     11  H   LIG    1        4.069  12.762  -0.413  0.00  0.00    +0.159 HD
ATOM     12  C   LIG    1        3.059  14.282   0.409  0.00  0.00    +0.313 C 
ATOM     13  N   LIG    1        2.026  14.699   1.155  0.00  0.00    -0.236 N 
ATOM     14  H   LIG    1        1.909  15.648   1.315  0.00  0.00    +0.159 HD
ATOM     15  O   LIG    1        3.817  15.119  -0.041  0.00  0.00    -0.252 OA
ATOM     16  O   LIG    1        2.741  10.843   0.352  0.00  0.00    -0.270 OA
ATOM     17  C   LIG    1        1.143  13.828   1.687  0.00  0.00    +0.256 C 
ATOM     18  O   LIG    1        0.209  14.219   2.361  0.00  0.00    -0.270 OA
ENDBRANCH   4   7
BRANCH   1  19
ATOM     19  O   LIG    1        0.826   6.140   0.213  0.00  0.00    -0.489 OA
BRANCH  19  20
ATOM     20  C   LIG    1        0.944   5.923  -1.194  0.00  0.00    +0.270 C 
BRANCH  20  21
ATOM     21  C   LIG    1        1.026   4.421  -1.473  0.00  0.00    +0.270 C 
BRANCH  21  22
ATOM     22  O   LIG    1       -0.204   3.799  -1.097  0.00  0.00    -0.489 OA
BRANCH  22  26
ATOM     23  C   LIG    1       -0.491  -0.281  -1.659  0.00  0.00    +0.120 A 
ATOM     24  C   LIG    1       -1.561   0.423  -1.127  0.00  0.00    +0.049 A 
ATOM     25  C   LIG    1       -1.465   1.788  -0.939  0.00  0.00    +0.049 A 
ATOM     26  C   LIG    1       -0.299   2.455  -1.282  0.00  0.00    +0.121 A 
ATOM     27  C   LIG    1        0.772   1.752  -1.814  0.00  0.00    +0.049 A 
ATOM     28  C   LIG    1        0.676   0.387  -2.002  0.00  0.00    +0.049 A 
BRANCH  23  30
ATOM     29  C   LIG    1        0.555  -2.285  -2.397  0.00  0.00    +0.277 C 
ATOM     30  O   LIG    1       -0.585  -1.624  -1.845  0.00  0.00    -0.495 OA
ENDBRANCH  23  30
ENDBRANCH  22  26
ENDBRANCH  21  22
ENDBRANCH  20  21
ENDBRANCH  19  20
ENDBRANCH   1  19
TORSDOF 7
