REMARK  Name = ZINC02585429
REMARK                            x       y       z     vdW  Elec       q    Type
REMARK                         _______ _______ _______ _____ _____    ______ ____
ROOT
ATOM      1  C   UNK    1        1.368   1.556  -0.003  0.00  0.00    -0.048 C 
ATOM      2  N   UNK    1        0.004   1.026  -0.017  0.00  0.00    +0.386 N 
ATOM      3  H   UNK    1        0.022  -0.000  -0.030  0.00  0.00    -0.085 HD
ATOM      4  H   UNK    1       -0.511   1.350   0.810  0.00  0.00    -0.085 HD
ATOM      5  C   UNK    1       -0.626   1.536  -1.236  0.00  0.00    -0.014 C 
ATOM      6  C   UNK    1       -0.105   2.985  -1.339  0.00  0.00    +0.129 C 
ATOM      7  C   UNK    1        1.206   2.999  -0.528  0.00  0.00    +0.125 C 
ENDROOT
BRANCH   6   8
ATOM      8  O   UNK    1       -1.050   3.894  -0.770  0.00  0.00    -0.391 OA
ATOM      9  H   UNK    1       -0.757   4.815  -0.767  0.00  0.00    +0.210 HD
ENDBRANCH   6   8
BRANCH   7  10
ATOM     10  O   UNK    1        2.308   3.347  -1.370  0.00  0.00    -0.391 OA
ATOM     11  H   UNK    1        3.165   3.328  -0.923  0.00  0.00    +0.210 HD
ENDBRANCH   7  10
BRANCH   5  12
ATOM     12  C   UNK    1       -2.152   1.524  -1.125  0.00  0.00    +0.143 C 
BRANCH  12  13
ATOM     13  O   UNK    1       -2.615   0.173  -1.069  0.00  0.00    -0.397 OA
ATOM     14  H   UNK    1       -3.575   0.089  -0.998  0.00  0.00    +0.209 HD
ENDBRANCH  12  13
ENDBRANCH   5  12
TORSDOF 4
