REMARK  Name = ZINC02400771
REMARK                            x       y       z     vdW  Elec       q    Type
REMARK                         _______ _______ _______ _____ _____    ______ ____
ROOT
ATOM      1  C   LIG    1        5.788  -9.270  -0.104  0.00  0.00    +0.278 A 
ATOM      2  N   LIG    1        4.590  -9.808  -0.101  0.00  0.00    -0.101 NA
ATOM      3  N   LIG    1        4.696 -11.090  -0.106  0.00  0.00    -0.106 NA
ATOM      4  C   LIG    1        5.966 -11.422  -0.114  0.00  0.00    +0.250 A 
ATOM      5  O   LIG    1        6.683 -10.276  -0.118  0.00  0.00    -0.411 OA
ENDROOT
BRANCH   4   6
ATOM      6  C   LIG    1        6.510 -12.792  -0.122  0.00  0.00    +0.046 A 
ATOM      7  C   LIG    1        7.882 -13.010  -0.123  0.00  0.00    +0.014 A 
ATOM      8  C   LIG    1        8.391 -14.301  -0.131  0.00  0.00    +0.001 A 
ATOM      9  C   LIG    1        7.580 -15.393  -0.138  0.00  0.00    +0.008 A 
ATOM     10  C   LIG    1        6.182 -15.248  -0.137  0.00  0.00    -0.017 A 
ATOM     11  C   LIG    1        5.331 -16.366  -0.145  0.00  0.00    +0.008 A 
ATOM     12  C   LIG    1        3.981 -16.184  -0.127  0.00  0.00    +0.001 A 
ATOM     13  C   LIG    1        3.429 -14.905  -0.119  0.00  0.00    +0.001 A 
ATOM     14  C   LIG    1        4.226 -13.799  -0.117  0.00  0.00    +0.009 A 
ATOM     15  C   LIG    1        5.618 -13.949  -0.123  0.00  0.00    -0.006 A 
ENDBRANCH   4   6
BRANCH   1  16
ATOM     16  S   LIG    1        6.156  -7.546  -0.098  0.00  0.00    -0.053 S 
BRANCH  16  17
ATOM     17  C   LIG    1        4.527  -6.749  -0.078  0.00  0.00    +0.167 C 
BRANCH  17  19
ATOM     18  C   LIG    1        4.831  -4.121  -0.067  0.00  0.00    -0.061 C 
ATOM     19  C   LIG    1        4.696  -5.287  -0.072  0.00  0.00    -0.088 C 
BRANCH  18  20
ATOM     20  C   LIG    1        5.000  -2.659  -0.061  0.00  0.00    +0.321 C 
BRANCH  20  21
ATOM     21  O   LIG    1        3.717  -2.031  -0.045  0.00  0.00    -0.448 OA
BRANCH  21  22
ATOM     22  C   LIG    1        3.695  -0.684  -0.037  0.00  0.00    +0.340 C 
ATOM     23  O   LIG    1        4.737  -0.059  -0.044  0.00  0.00    -0.245 OA
BRANCH  22  27
ATOM     24  C   LIG    1       -0.017   1.379   0.010  0.00  0.00    +0.000 A 
ATOM     25  C   LIG    1        1.168   2.094   0.002  0.00  0.00    +0.001 A 
ATOM     26  C   LIG    1        2.377   1.430  -0.013  0.00  0.00    +0.015 A 
ATOM     27  C   LIG    1        2.404   0.034  -0.021  0.00  0.00    +0.059 A 
ATOM     28  C   LIG    1        1.204  -0.681  -0.013  0.00  0.00    +0.015 A 
ATOM     29  C   LIG    1        0.002  -0.004   0.002  0.00  0.00    +0.001 A 
ENDBRANCH  22  27
ENDBRANCH  21  22
ENDBRANCH  20  21
ENDBRANCH  18  20
ENDBRANCH  17  19
ENDBRANCH  16  17
ENDBRANCH   1  16
TORSDOF 8
