REMARK  Name = ZINC03268277
REMARK                            x       y       z     vdW  Elec       q    Type
REMARK                         _______ _______ _______ _____ _____    ______ ____
ROOT
ATOM      1  C   LIG    1        2.045   1.279  -3.612  0.00  0.00    +0.001 A 
ATOM      2  C   LIG    1        3.427   1.279  -3.571  0.00  0.00    +0.004 A 
ATOM      3  C   LIG    1        4.081   1.464  -2.370  0.00  0.00    +0.046 A 
ATOM      4  C   LIG    1        3.354   1.651  -1.199  0.00  0.00    +0.126 A 
ATOM      5  C   LIG    1        1.969   1.655  -1.244  0.00  0.00    +0.027 A 
ATOM      6  C   LIG    1        1.153   1.861   0.001  0.00  0.00    +0.144 C 
ATOM      7  C   LIG    1        0.550   3.247   0.013  0.00  0.00    +0.249 C 
ATOM      8  N   LIG    1       -0.786   3.059   0.025  0.00  0.00    -0.238 N 
ATOM      9  H   LIG    1       -1.438   3.777   0.035  0.00  0.00    +0.159 HD
ATOM     10  C   LIG    1       -1.101   1.758   0.016  0.00  0.00    +0.307 C 
ATOM     11  O   LIG    1       -2.241   1.338   0.018  0.00  0.00    -0.252 OA
ATOM     12  O   LIG    1        1.142   4.305   0.011  0.00  0.00    -0.273 OA
ATOM     13  C   LIG    1        2.003   1.640   1.248  0.00  0.00    +0.081 C 
ATOM     14  C   LIG    1        3.327   2.396   1.071  0.00  0.00    +0.232 C 
ATOM     15  N   LIG    1       -0.011   0.966   0.007  0.00  0.00    -0.281 N 
ATOM     16  H   LIG    1        0.002  -0.004   0.002  0.00  0.00    +0.152 HD
ATOM     17  O   LIG    1        4.029   1.824  -0.034  0.00  0.00    -0.492 OA
ATOM     18  C   LIG    1        1.320   1.468  -2.452  0.00  0.00    +0.010 A 
ENDROOT
TORSDOF 0
