REMARK  Name = ZINC02516029
REMARK                            x       y       z     vdW  Elec       q    Type
REMARK                         _______ _______ _______ _____ _____    ______ ____
ROOT
ATOM      1  N   LIG    1        1.224   3.076   2.456  0.00  0.00    +0.380 N 
ATOM      2  H   LIG    1        2.240   3.485   2.352  0.00  0.00    -0.082 HD
ATOM      3  C   LIG    1        0.442   3.521   1.295  0.00  0.00    -0.076 C 
ATOM      4  C   LIG    1        1.146   3.087   0.008  0.00  0.00    +0.021 C 
ATOM      5  C   LIG    1        1.286   1.562  -0.002  0.00  0.00    +0.088 C 
ATOM      6  C   LIG    1        2.062   1.121   1.242  0.00  0.00    +0.021 C 
ATOM      7  C   LIG    1        1.332   1.612   2.494  0.00  0.00    -0.076 C 
ENDROOT
BRANCH   5   8
ATOM      8  C   LIG    1        2.031   1.132  -1.240  0.00  0.00    -0.016 A 
ATOM      9  C   LIG    1        2.965   1.975  -1.812  0.00  0.00    +0.008 A 
ATOM     10  C   LIG    1        3.652   1.579  -2.944  0.00  0.00    +0.020 A 
ATOM     11  C   LIG    1        3.396   0.344  -3.511  0.00  0.00    +0.041 A 
ATOM     12 CL   LIG    1        4.254  -0.151  -4.937  0.00  0.00    -0.084 Cl
ATOM     13  C   LIG    1        2.457  -0.497  -2.942  0.00  0.00    +0.020 A 
ATOM     14  C   LIG    1        1.774  -0.102  -1.806  0.00  0.00    +0.008 A 
ENDBRANCH   5   8
BRANCH   5  15
ATOM     15  O   LIG    1       -0.011   0.963   0.007  0.00  0.00    -0.384 OA
ATOM     16  H   LIG    1       -0.111  -0.133   0.002  0.00  0.00    +0.211 HD
ENDBRANCH   5  15
BRANCH   1  17
ATOM     17  C   LIG    1        0.652   3.595   3.706  0.00  0.00    -0.078 C 
BRANCH  17  18
ATOM     18  C   LIG    1        1.332   2.917   4.897  0.00  0.00    -0.011 C 
BRANCH  18  19
ATOM     19  C   LIG    1        0.736   3.457   6.199  0.00  0.00    +0.078 C 
BRANCH  19  20
ATOM     20  C   LIG    1        1.406   2.790   7.373  0.00  0.00    +0.163 C 
ATOM     21  O   LIG    1        2.274   1.964   7.186  0.00  0.00    -0.292 OA
BRANCH  20  28
ATOM     22  C   LIG    1        0.009   4.097   8.963  0.00  0.00    +0.013 A 
ATOM     23  C   LIG    1       -0.364   4.416  10.251  0.00  0.00    +0.020 A 
ATOM     24  C   LIG    1        0.254   3.800  11.328  0.00  0.00    +0.041 A 
ATOM     25 CL   LIG    1       -0.217   4.214  12.946  0.00  0.00    -0.084 Cl
ATOM     26  C   LIG    1        1.247   2.856  11.118  0.00  0.00    +0.020 A 
ATOM     27  C   LIG    1        1.626   2.523   9.836  0.00  0.00    +0.013 A 
ATOM     28  C   LIG    1        1.006   3.140   8.744  0.00  0.00    +0.017 A 
ENDBRANCH  20  28
ENDBRANCH  19  20
ENDBRANCH  18  19
ENDBRANCH  17  18
ENDBRANCH   1  17
TORSDOF 7
