REMARK  Name = ZINC02391109
REMARK                            x       y       z     vdW  Elec       q    Type
REMARK                         _______ _______ _______ _____ _____    ______ ____
ROOT
ATOM      1  N   LEU A  1       -5.614   5.759  -1.756  0.00  0.00    -0.302 N 
ATOM      2  H   LEU A  1       -5.758   5.673  -2.711  0.00  0.00    +0.150 HD
ATOM      3  C   UNK A  0       -4.465   5.320  -1.205  0.00  0.00    +0.228 C 
ATOM      4  O   UNK A  0       -4.285   5.427  -0.011  0.00  0.00    -0.275 OA
ENDROOT
BRANCH   1   5
ATOM      5  CA  LEU A  1       -6.646   6.364  -0.911  0.00  0.00    +0.182 C 
BRANCH   5   6
ATOM      6  C   LEU A  1       -7.511   5.281  -0.320  0.00  0.00    +0.325 C 
ATOM      7  O   LEU A  1       -7.288   4.122  -0.578  0.00  0.00    -0.249 OA
BRANCH   6   8
ATOM      8  OXT LEU A  1       -8.529   5.604   0.493  0.00  0.00    -0.479 OA
ATOM      9  HXT LEU A  1       -8.702   6.503   0.693  0.00  0.00    +0.295 HD
ENDBRANCH   6   8
ENDBRANCH   5   6
BRANCH   5  10
ATOM     10  CB  LEU A  1       -7.510   7.303  -1.755  0.00  0.00    +0.036 C 
BRANCH  10  12
ATOM     11  CD1 LEU A  1       -7.473   9.309  -3.245  0.00  0.00    +0.007 C 
ATOM     12  CG  LEU A  1       -6.651   8.458  -2.275  0.00  0.00    -0.015 C 
ATOM     13  CD2 LEU A  1       -6.194   9.323  -1.099  0.00  0.00    +0.007 C 
ENDBRANCH  10  12
ENDBRANCH   5  10
ENDBRANCH   1   5
BRANCH   3  14
ATOM     14  C   UNK A  0       -3.403   4.697  -2.074  0.00  0.00    +0.187 C 
BRANCH  14  15
ATOM     15  C   UNK A  0       -3.966   3.479  -2.760  0.00  0.00    +0.317 C 
ATOM     16  O   UNK A  0       -4.010   2.422  -2.176  0.00  0.00    -0.250 OA
BRANCH  15  17
ATOM     17  O   UNK A  0       -4.419   3.568  -4.021  0.00  0.00    -0.480 OA
ATOM     18  H   UNK A  0       -4.385   4.387  -4.474  0.00  0.00    +0.295 HD
ENDBRANCH  15  17
ENDBRANCH  14  15
BRANCH  14  19
ATOM     19  C   UNK A  0       -2.210   4.288  -1.208  0.00  0.00    +0.059 C 
BRANCH  19  20
ATOM     20  C   UNK A  0       -1.100   3.776  -2.090  0.00  0.00    -0.046 A 
ATOM     21  C   UNK A  0       -0.214   4.664  -2.672  0.00  0.00    +0.003 A 
ATOM     22  C   UNK A  0        0.800   4.195  -3.485  0.00  0.00    +0.000 A 
ATOM     23  C   UNK A  0        0.936   2.838  -3.708  0.00  0.00    +0.000 A 
ATOM     24  C   UNK A  0        0.053   1.950  -3.122  0.00  0.00    +0.000 A 
ATOM     25  C   UNK A  0       -0.965   2.419  -2.313  0.00  0.00    +0.003 A 
ENDBRANCH  19  20
ENDBRANCH  14  19
ENDBRANCH   3  14
TORSDOF 10
