REMARK  Name = ZINC03164350
REMARK                            x       y       z     vdW  Elec       q    Type
REMARK                         _______ _______ _______ _____ _____    ______ ____
ROOT
ATOM      1  C   LIG    1       -1.974   2.040  -1.181  0.00  0.00    -0.013 C 
ATOM      2  C   LIG    1       -0.733   1.580  -1.214  0.00  0.00    -0.039 C 
ATOM      3  C   LIG    1       -0.013   1.086   0.008  0.00  0.00    -0.051 C 
ATOM      4  N   LIG    1       -0.693   1.580   1.221  0.00  0.00    +0.380 N 
ATOM      5  H   LIG    1       -0.594   2.601   1.268  0.00  0.00    -0.082 HD
ATOM      6  C   LIG    1       -0.081   0.982   2.425  0.00  0.00    -0.096 C 
ATOM      7  C   LIG    1       -2.126   1.238   1.162  0.00  0.00    -0.074 C 
ATOM      8  C   LIG    1       -2.776   2.116   0.089  0.00  0.00    +0.020 C 
ENDROOT
BRANCH   1  10
ATOM      9  C   LIG    1       -4.001   3.022  -2.424  0.00  0.00    +0.091 C 
ATOM     10  C   LIG    1       -2.590   2.493  -2.428  0.00  0.00    +0.156 C 
ATOM     11  O   LIG    1       -1.964   2.442  -3.466  0.00  0.00    -0.293 OA
ENDBRANCH   1  10
TORSDOF 1
