REMARK  Name = ZINC02513070
REMARK                            x       y       z     vdW  Elec       q    Type
REMARK                         _______ _______ _______ _____ _____    ______ ____
ROOT
ATOM      1  C   LIG    1        3.421  -1.206   0.899  0.00  0.00    +0.001 A 
ATOM      2  C   LIG    1        4.643  -0.560   0.991  0.00  0.00    +0.004 A 
ATOM      3  C   LIG    1        4.748   0.782   0.685  0.00  0.00    +0.047 A 
ATOM      4  C   LIG    1        3.629   1.492   0.276  0.00  0.00    +0.142 A 
ATOM      5  C   LIG    1        2.389   0.843   0.187  0.00  0.00    +0.101 A 
ATOM      6  C   LIG    1        2.297  -0.516   0.500  0.00  0.00    +0.018 A 
ENDROOT
BRANCH   5   7
ATOM      7  C   LIG    1        1.191   1.588  -0.240  0.00  0.00    +0.340 C 
ATOM      8  O   LIG    1        1.275   2.769  -0.512  0.00  0.00    -0.245 OA
BRANCH   7   9
ATOM      9  O   LIG    1        0.003   0.959  -0.330  0.00  0.00    -0.477 OA
ATOM     10  H   LIG    1       -0.062   0.048  -0.121  0.00  0.00    +0.295 HD
ENDBRANCH   7   9
ENDBRANCH   5   7
BRANCH   4  11
ATOM     11  O   LIG    1        3.732   2.809  -0.030  0.00  0.00    -0.455 OA
BRANCH  11  12
ATOM     12  C   LIG    1        4.956   3.393   0.065  0.00  0.00    +0.129 A 
ATOM     13  C   LIG    1        5.353   3.980   1.258  0.00  0.00    +0.049 A 
ATOM     14  C   LIG    1        6.600   4.567   1.356  0.00  0.00    +0.042 A 
ATOM     15  C   LIG    1        7.447   4.581   0.261  0.00  0.00    +0.124 A 
ATOM     16  F   LIG    1        8.664   5.160   0.356  0.00  0.00    -0.205 F 
ATOM     17  C   LIG    1        7.050   4.000  -0.932  0.00  0.00    +0.042 A 
ATOM     18  C   LIG    1        5.806   3.407  -1.030  0.00  0.00    +0.049 A 
ENDBRANCH  11  12
ENDBRANCH   4  11
TORSDOF 4
