REMARK  Name = ZINC03356651
REMARK                            x       y       z     vdW  Elec       q    Type
REMARK                         _______ _______ _______ _____ _____    ______ ____
ROOT
ATOM      1  N   LIG    1        4.516  -0.593   2.873  0.00  0.00    -0.190 NA
ATOM      2  H   LIG    1        5.201  -1.273   2.782  0.00  0.00    +0.148 HD
ENDROOT
BRANCH   1   3
ATOM      3  S   LIG    1        2.917  -1.021   2.863  0.00  0.00    +0.031 S 
ATOM      4  O   LIG    1        2.921  -2.436   2.733  0.00  0.00    -0.158 OA
ATOM      5  O   LIG    1        2.368  -0.402   4.019  0.00  0.00    -0.158 OA
BRANCH   3   6
ATOM      6  C   LIG    1        2.238  -0.258   1.364  0.00  0.00    +0.200 C 
BRANCH   6  16
ATOM      7  C   LIG    1       -0.019   1.526   0.010  0.00  0.00    +0.012 C 
ATOM      8  C   LIG    1        0.002  -0.004   0.002  0.00  0.00    -0.018 C 
ATOM      9  C   LIG    1        0.557  -0.556  -1.312  0.00  0.00    +0.012 C 
ATOM     10  C   LIG    1       -1.400  -0.616   0.356  0.00  0.00    +0.003 C 
ATOM     11  C   LIG    1       -1.029  -2.124   0.492  0.00  0.00    +0.005 C 
ATOM     12  C   LIG    1        0.399  -2.119   1.085  0.00  0.00    +0.017 C 
ATOM     13  C   LIG    1       -1.563  -0.104   1.820  0.00  0.00    +0.079 C 
ATOM     14  C   LIG    1       -0.152  -0.089   2.388  0.00  0.00    +0.142 C 
ATOM     15  O   LIG    1        0.188   0.246   3.498  0.00  0.00    -0.297 OA
ATOM     16  C   LIG    1        0.749  -0.591   1.251  0.00  0.00    +0.055 C 
ENDBRANCH   6  16
ENDBRANCH   3   6
ENDBRANCH   1   3
BRANCH   1  17
ATOM     17  C   LIG    1        4.896   0.815   3.018  0.00  0.00    +0.140 C 
BRANCH  17  18
ATOM     18  C   LIG    1        6.360   0.906   3.364  0.00  0.00    -0.032 A 
ATOM     19  C   LIG    1        6.760   0.895   4.687  0.00  0.00    +0.007 A 
ATOM     20  C   LIG    1        8.103   0.980   5.004  0.00  0.00    +0.029 A 
ATOM     21  C   LIG    1        9.046   1.073   3.998  0.00  0.00    +0.105 A 
ATOM     22  C   LIG    1        8.646   1.083   2.675  0.00  0.00    +0.029 A 
ATOM     23  C   LIG    1        7.304   0.995   2.357  0.00  0.00    +0.007 A 
BRANCH  21  24
ATOM     24  S   LIG    1       10.758   1.182   4.402  0.00  0.00    +0.056 S 
ATOM     25  O   LIG    1       10.831   1.702   5.722  0.00  0.00    -0.153 OA
ATOM     26  O   LIG    1       11.397   1.810   3.299  0.00  0.00    -0.153 OA
BRANCH  24  27
ATOM     27  N   LIG    1       11.344  -0.366   4.470  0.00  0.00    -0.204 NA
ATOM     28  H   LIG    1       12.277  -0.522   4.681  0.00  0.00    +0.144 HD
ATOM     29  H   LIG    1       10.753  -1.116   4.299  0.00  0.00    +0.144 HD
ENDBRANCH  24  27
ENDBRANCH  21  24
ENDBRANCH  17  18
ENDBRANCH   1  17
TORSDOF 7
