REMARK  Name = ZINC03199703
REMARK                            x       y       z     vdW  Elec       q    Type
REMARK                         _______ _______ _______ _____ _____    ______ ____
ROOT
ATOM      1  C   LIG    1        2.668   4.026  -0.002  0.00  0.00    +0.043 C 
ATOM      2  C   LIG    1        3.118   4.781  -1.016  0.00  0.00    +0.096 C 
ATOM      3 CL   LIG    1        2.036   5.228  -2.297  0.00  0.00    -0.079 Cl
ATOM      4  C   LIG    1        4.521   5.239  -1.054  0.00  0.00    +0.205 C 
ATOM      5  C   LIG    1        5.448   4.855   0.033  0.00  0.00    +0.034 A 
ATOM      6  C   LIG    1        6.775   5.268   0.019  0.00  0.00    +0.012 A 
ATOM      7  C   LIG    1        7.623   4.894   1.049  0.00  0.00    +0.001 A 
ATOM      8  C   LIG    1        7.159   4.112   2.089  0.00  0.00    +0.001 A 
ATOM      9  C   LIG    1        5.838   3.692   2.117  0.00  0.00    +0.012 A 
ATOM     10  C   LIG    1        4.975   4.059   1.092  0.00  0.00    +0.033 A 
ATOM     11  O   LIG    1        4.914   5.927  -1.975  0.00  0.00    -0.286 OA
ATOM     12  C   LIG    1        3.562   3.624   1.097  0.00  0.00    +0.193 C 
ATOM     13  O   LIG    1        3.139   2.936   2.006  0.00  0.00    -0.287 OA
ENDROOT
BRANCH   1  14
ATOM     14  C   LIG    1        1.228   3.579   0.010  0.00  0.00    +0.198 C 
BRANCH  14  15
ATOM     15  C   LIG    1        0.550   4.102   1.249  0.00  0.00    +0.149 C 
ATOM     16  C   LIG    1       -0.944   4.304   1.263  0.00  0.00    +0.087 C 
ATOM     17  O   LIG    1        1.203   4.359   2.232  0.00  0.00    -0.296 OA
ENDBRANCH  14  15
BRANCH  14  18
ATOM     18  C   LIG    1        1.170   2.073   0.002  0.00  0.00    +0.322 C 
ATOM     19  O   LIG    1        2.192   1.429  -0.011  0.00  0.00    -0.250 OA
BRANCH  18  20
ATOM     20  O   LIG    1       -0.018   1.448   0.010  0.00  0.00    -0.464 OA
BRANCH  20  22
ATOM     21  C   LIG    1       -1.433  -0.534   0.013  0.00  0.00    +0.048 C 
ATOM     22  C   LIG    1        0.002  -0.004   0.002  0.00  0.00    +0.229 C 
ENDBRANCH  20  22
ENDBRANCH  18  20
ENDBRANCH  14  18
ENDBRANCH   1  14
TORSDOF 5
