REMARK  Name = ZINC03593541
REMARK                            x       y       z     vdW  Elec       q    Type
REMARK                         _______ _______ _______ _____ _____    ______ ____
ROOT
ATOM      1  N   LIG    1        1.342   1.530   2.443  0.00  0.00    -0.296 N 
ATOM      2  C   LIG    1        1.622   2.780   3.005  0.00  0.00    +0.048 A 
ATOM      3  C   LIG    1        2.914   3.273   3.014  0.00  0.00    +0.024 A 
ATOM      4  C   LIG    1        3.180   4.512   3.570  0.00  0.00    +0.002 A 
ATOM      5  C   LIG    1        2.160   5.267   4.117  0.00  0.00    +0.001 A 
ATOM      6  C   LIG    1        0.861   4.787   4.110  0.00  0.00    +0.017 A 
ATOM      7  C   LIG    1        0.591   3.551   3.555  0.00  0.00    +0.034 A 
ATOM      8  S   LIG    1       -1.056   2.912   3.531  0.00  0.00    -0.086 S 
ATOM      9  C   LIG    1       -0.783   1.167   3.555  0.00  0.00    +0.034 A 
ATOM     10  C   LIG    1       -1.718   0.314   4.109  0.00  0.00    +0.017 A 
ATOM     11  C   LIG    1       -1.482  -1.052   4.116  0.00  0.00    +0.001 A 
ATOM     12  C   LIG    1       -0.316  -1.555   3.571  0.00  0.00    +0.002 A 
ATOM     13  C   LIG    1        0.623  -0.704   3.015  0.00  0.00    +0.024 A 
ATOM     14  C   LIG    1        0.397   0.663   3.002  0.00  0.00    +0.048 A 
ENDROOT
BRANCH   1  15
ATOM     15  C   LIG    1        2.064   1.114   1.238  0.00  0.00    +0.142 C 
BRANCH  15  17
ATOM     16  C   LIG    1        2.040   1.127  -1.261  0.00  0.00    +0.039 C 
ATOM     17  C   LIG    1        1.286   1.562  -0.002  0.00  0.00    +0.129 C 
BRANCH  17  18
ATOM     18  O   LIG    1       -0.011   0.963   0.007  0.00  0.00    -0.390 OA
ATOM     19  H   LIG    1        0.002  -0.004   0.002  0.00  0.00    +0.210 HD
ENDBRANCH  17  18
ENDBRANCH  15  17
ENDBRANCH   1  15
TORSDOF 3
