REMARK  Name = ZINC03133773
REMARK                            x       y       z     vdW  Elec       q    Type
REMARK                         _______ _______ _______ _____ _____    ______ ____
ROOT
ATOM      1  C   LIG    1        0.376  -4.282   5.241  0.00  0.00    +0.103 A 
ATOM      2  C   LIG    1        0.461  -5.088   6.374  0.00  0.00    +0.020 A 
ATOM      3  C   LIG    1       -0.591  -5.080   7.289  0.00  0.00    +0.019 A 
ATOM      4  C   LIG    1       -1.679  -4.298   7.071  0.00  0.00    +0.089 A 
ATOM      5  N   LIG    1       -1.769  -3.512   5.971  0.00  0.00    -0.310 N 
ATOM      6  C   LIG    1       -0.778  -3.477   5.060  0.00  0.00    +0.264 A 
ATOM      7  O   LIG    1       -0.876  -2.759   4.079  0.00  0.00    -0.267 OA
ENDROOT
BRANCH   1  10
ATOM      8  N   LIG    1        1.424  -3.394   3.223  0.00  0.00    -0.231 N 
ATOM      9  H   LIG    1        0.643  -2.834   3.090  0.00  0.00    +0.173 HD
ATOM     10  C   LIG    1        1.465  -4.262   4.253  0.00  0.00    +0.265 C 
ATOM     11  O   LIG    1        2.402  -5.029   4.365  0.00  0.00    -0.268 OA
BRANCH   8  12
ATOM     12  N   LIG    1        2.510  -3.300   2.343  0.00  0.00    -0.246 N 
ATOM     13  H   LIG    1        3.292  -3.859   2.475  0.00  0.00    +0.172 HD
BRANCH  12  14
ATOM     14  C   LIG    1        2.470  -2.432   1.312  0.00  0.00    +0.147 C 
ATOM     15  S   LIG    1        3.797  -2.317   0.237  0.00  0.00    -0.017 S 
BRANCH  14  16
ATOM     16  N   LIG    1        1.384  -1.654   1.129  0.00  0.00    -0.322 N 
ATOM     17  H   LIG    1        0.632  -1.719   1.738  0.00  0.00    +0.148 HD
BRANCH  16  18
ATOM     18  C   LIG    1        1.340  -0.711   0.009  0.00  0.00    +0.130 C 
BRANCH  18  20
ATOM     19  C   LIG    1        0.017   1.341   0.044  0.00  0.00    +0.005 C 
ATOM     20  C   LIG    1        0.029   0.031   0.029  0.00  0.00    -0.016 C 
ENDBRANCH  18  20
ENDBRANCH  16  18
ENDBRANCH  14  16
ENDBRANCH  12  14
ENDBRANCH   8  12
ENDBRANCH   1  10
BRANCH   5  21
ATOM     21  C   LIG    1       -2.960  -2.682   5.774  0.00  0.00    +0.160 C 
BRANCH  21  22
ATOM     22  C   LIG    1       -2.745  -1.335   6.415  0.00  0.00    -0.026 A 
ATOM     23  C   LIG    1       -3.100  -1.133   7.736  0.00  0.00    +0.005 A 
ATOM     24  C   LIG    1       -2.904   0.102   8.324  0.00  0.00    +0.002 A 
ATOM     25  C   LIG    1       -2.353   1.137   7.592  0.00  0.00    +0.020 A 
ATOM     26  C   LIG    1       -1.997   0.936   6.270  0.00  0.00    +0.041 A 
ATOM     27 CL   LIG    1       -1.305   2.235   5.350  0.00  0.00    -0.084 Cl
ATOM     28  C   LIG    1       -2.189  -0.303   5.683  0.00  0.00    +0.025 A 
ENDBRANCH  21  22
ENDBRANCH   5  21
TORSDOF 8
