REMARK  Name = ZINC02581709
REMARK                            x       y       z     vdW  Elec       q    Type
REMARK                         _______ _______ _______ _____ _____    ______ ____
ROOT
ATOM      1  C   LIG    1       -0.101   5.540   0.030  0.00  0.00    -0.018 A 
ATOM      2  C   LIG    1       -0.071   4.122   0.024  0.00  0.00    +0.022 A 
ATOM      3  C   LIG    1       -1.269   3.392   0.032  0.00  0.00    +0.015 A 
ATOM      4  C   LIG    1       -1.236   2.029   0.019  0.00  0.00    +0.046 A 
ATOM      5  C   LIG    1       -0.016   1.353   0.009  0.00  0.00    +0.120 A 
ATOM      6  C   LIG    1        1.176   2.057   0.002  0.00  0.00    +0.092 A 
ATOM      7  C   LIG    1        1.161   3.445   0.009  0.00  0.00    +0.143 A 
ATOM      8  O   LIG    1        2.325   4.131   0.001  0.00  0.00    -0.422 OA
ATOM      9  C   LIG    1        2.341   5.475   0.006  0.00  0.00    +0.345 A 
ATOM     10  O   LIG    1        3.403   6.070  -0.001  0.00  0.00    -0.244 OA
ATOM     11  C   LIG    1        1.083   6.227   0.022  0.00  0.00    +0.071 A 
ENDROOT
BRANCH  11  12
ATOM     12  C   LIG    1        1.093   7.708   0.027  0.00  0.00    -0.011 A 
ATOM     13  C   LIG    1        0.583   8.416  -1.061  0.00  0.00    +0.010 A 
ATOM     14  C   LIG    1        0.591   9.796  -1.048  0.00  0.00    +0.020 A 
ATOM     15  C   LIG    1        1.113  10.477   0.038  0.00  0.00    +0.041 A 
ATOM     16 CL   LIG    1        1.125  12.213   0.044  0.00  0.00    -0.084 Cl
ATOM     17  C   LIG    1        1.626   9.780   1.118  0.00  0.00    +0.020 A 
ATOM     18  C   LIG    1        1.618   8.400   1.118  0.00  0.00    +0.010 A 
ENDBRANCH  11  12
BRANCH   5  19
ATOM     19  O   LIG    1        0.002  -0.004   0.002  0.00  0.00    -0.507 OA
ATOM     20  H   LIG    1        0.016  -0.402   0.883  0.00  0.00    +0.292 HD
ENDBRANCH   5  19
BRANCH   1  21
ATOM     21  C   LIG    1       -1.415   6.279   0.047  0.00  0.00    +0.071 C 
BRANCH  21  25
ATOM     22  C   LIG    1       -2.615   6.960   4.089  0.00  0.00    +0.000 A 
ATOM     23  C   LIG    1       -1.834   7.893   3.434  0.00  0.00    +0.000 A 
ATOM     24  C   LIG    1       -1.445   7.673   2.126  0.00  0.00    +0.004 A 
ATOM     25  C   LIG    1       -1.838   6.519   1.473  0.00  0.00    -0.043 A 
ATOM     26  C   LIG    1       -2.624   5.589   2.127  0.00  0.00    +0.004 A 
ATOM     27  C   LIG    1       -3.008   5.807   3.437  0.00  0.00    +0.000 A 
ENDBRANCH  21  25
ENDBRANCH   1  21
TORSDOF 4
