REMARK  Name = ZINC03073318
REMARK                            x       y       z     vdW  Elec       q    Type
REMARK                         _______ _______ _______ _____ _____    ______ ____
ROOT
ATOM      1  C   LIG    1        1.149   7.312  -1.344  0.00  0.00    +0.253 C 
ATOM      2  C   LIG    1        2.598   7.721  -0.996  0.00  0.00    +0.195 C 
ATOM      3  C   LIG    1        3.120   6.551  -0.131  0.00  0.00    +0.178 C 
ATOM      4  C   LIG    1        1.925   5.575  -0.060  0.00  0.00    +0.178 C 
ATOM      5  O   LIG    1        1.135   5.872  -1.231  0.00  0.00    -0.346 OA
ENDROOT
BRANCH   1  16
ATOM      6  C   LIG    1        0.974   6.965  -3.839  0.00  0.00    +0.203 A 
ATOM      7  N   LIG    1        0.577   7.638  -4.879  0.00  0.00    -0.229 NA
ATOM      8  C   LIG    1        0.155   8.864  -4.485  0.00  0.00    +0.172 A 
ATOM      9  C   LIG    1       -0.366   9.992  -5.162  0.00  0.00    +0.280 A 
ATOM     10  N   LIG    1       -0.694  11.082  -4.435  0.00  0.00    -0.293 N 
ATOM     11  C   LIG    1       -0.524  11.085  -3.083  0.00  0.00    +0.195 A 
ATOM     12  N   LIG    1       -0.041  10.044  -2.442  0.00  0.00    -0.196 NA
ATOM     13  H   LIG    1       -1.064  11.892  -4.892  0.00  0.00    +0.172 HD
ATOM     14  O   LIG    1       -0.514   9.979  -6.372  0.00  0.00    -0.265 OA
ATOM     15  C   LIG    1        0.305   8.929  -3.095  0.00  0.00    +0.171 A 
ATOM     16  N   LIG    1        0.820   7.720  -2.712  0.00  0.00    -0.285 N 
BRANCH  11  17
ATOM     17  N   LIG    1       -0.867  12.206  -2.370  0.00  0.00    -0.329 N 
ATOM     18  H   LIG    1       -0.751  12.223  -1.407  0.00  0.00    +0.145 HD
ATOM     19  H   LIG    1       -0.326  12.983  -2.692  0.00  0.00    +0.145 HD
ENDBRANCH  11  17
ENDBRANCH   1  16
BRANCH   2  20
ATOM     20  O   LIG    1        2.609   8.939  -0.249  0.00  0.00    -0.385 OA
ATOM     21  H   LIG    1        3.494   9.242  -0.004  0.00  0.00    +0.210 HD
ENDBRANCH   2  20
BRANCH   3  22
ATOM     22  O   LIG    1        4.241   5.926  -0.759  0.00  0.00    -0.386 OA
ATOM     23  H   LIG    1        5.020   6.495  -0.831  0.00  0.00    +0.210 HD
ENDBRANCH   3  22
BRANCH   4  24
ATOM     24  C   LIG    1        2.418   4.127  -0.103  0.00  0.00    +0.206 C 
BRANCH  24  25
ATOM     25  O   LIG    1        1.302   3.241   0.007  0.00  0.00    -0.284 OA
BRANCH  25  26
ATOM     26  P   LIG    1        1.451   1.638  -0.003  0.00  0.00    +0.472 P 
ATOM     27  O   LIG    1        2.179   1.217  -1.221  0.00  0.00    -0.228 OA
BRANCH  26  28
ATOM     28  O   LIG    1        2.268   1.166   1.301  0.00  0.00    -0.303 OA
ATOM     29  H   LIG    1        3.149   1.573   1.295  0.00  0.00    +0.222 HD
ENDBRANCH  26  28
BRANCH  26  30
ATOM     30  O   LIG    1       -0.011   0.963   0.007  0.00  0.00    -0.303 OA
ATOM     31  H   LIG    1       -0.504   1.247  -0.779  0.00  0.00    +0.222 HD
ENDBRANCH  26  30
ENDBRANCH  25  26
ENDBRANCH  24  25
ENDBRANCH   4  24
TORSDOF 9
