REMARK  Name = ZINC02511691
REMARK                            x       y       z     vdW  Elec       q    Type
REMARK                         _______ _______ _______ _____ _____    ______ ____
ROOT
ATOM      1  C   LIG    1       -3.966  -6.231   0.006  0.00  0.00    -0.013 A 
ATOM      2  C   LIG    1       -3.959  -7.095  -1.161  0.00  0.00    +0.007 A 
ATOM      3  C   LIG    1       -3.967  -6.816  -2.533  0.00  0.00    +0.056 A 
ATOM      4  C   LIG    1       -3.951  -7.906  -3.390  0.00  0.00    +0.121 A 
ATOM      5  C   LIG    1       -3.930  -9.211  -2.913  0.00  0.00    +0.047 A 
ATOM      6  C   LIG    1       -3.924  -9.505  -1.561  0.00  0.00    +0.030 A 
ATOM      7  C   LIG    1       -3.940  -8.428  -0.676  0.00  0.00    +0.050 A 
ATOM      8  N   LIG    1       -3.946  -8.371   0.690  0.00  0.00    -0.340 N 
ATOM      9  C   LIG    1       -3.958  -9.482   1.639  0.00  0.00    +0.123 C 
ATOM     10  C   LIG    1       -2.585  -9.656   2.307  0.00  0.00    +0.026 C 
ATOM     11  C   LIG    1       -2.012  -8.289   2.694  0.00  0.00    +0.037 C 
ATOM     12  C   LIG    1       -3.016  -7.380   3.337  0.00  0.00    -0.038 A 
ATOM     13  C   LIG    1       -3.013  -7.146   4.694  0.00  0.00    +0.004 A 
ATOM     14  C   LIG    1       -3.856  -6.186   5.229  0.00  0.00    +0.000 A 
ATOM     15  C   LIG    1       -4.704  -5.459   4.413  0.00  0.00    +0.001 A 
ATOM     16  C   LIG    1       -4.740  -5.707   3.054  0.00  0.00    +0.010 A 
ATOM     17  C   LIG    1       -3.913  -6.685   2.519  0.00  0.00    +0.002 A 
ATOM     18  C   LIG    1       -3.945  -7.045   1.082  0.00  0.00    +0.054 A 
ENDROOT
BRANCH   4  19
ATOM     19  O   LIG    1       -3.958  -7.691  -4.733  0.00  0.00    -0.495 OA
ATOM     20  C   LIG    1       -3.942  -8.846  -5.574  0.00  0.00    +0.277 C 
ENDBRANCH   4  19
BRANCH   1  21
ATOM     21  C   LIG    1       -3.986  -4.725   0.015  0.00  0.00    +0.056 C 
BRANCH  21  22
ATOM     22  C   LIG    1       -2.551  -4.195   0.004  0.00  0.00    +0.109 C 
BRANCH  22  24
ATOM     23  C   LIG    1       -1.413  -2.041   0.005  0.00  0.00    +0.213 C 
ATOM     24  N   LIG    1       -2.571  -2.730   0.012  0.00  0.00    -0.315 N 
ATOM     25  H   LIG    1       -3.417  -2.257   0.023  0.00  0.00    +0.149 HD
ATOM     26  O   LIG    1       -0.354  -2.632  -0.009  0.00  0.00    -0.276 OA
BRANCH  23  27
ATOM     27  C   LIG    1       -1.433  -0.534   0.013  0.00  0.00    +0.095 C 
BRANCH  27  29
ATOM     28  C   LIG    1       -0.019   1.526   0.010  0.00  0.00    +0.004 C 
ATOM     29  C   LIG    1        0.002  -0.004   0.002  0.00  0.00    +0.006 C 
ENDBRANCH  27  29
ENDBRANCH  23  27
ENDBRANCH  22  24
ENDBRANCH  21  22
ENDBRANCH   1  21
TORSDOF 6
