REMARK  Name = ZINC02878869
REMARK                            x       y       z     vdW  Elec       q    Type
REMARK                         _______ _______ _______ _____ _____    ______ ____
ROOT
ATOM      1  N   LIG    1        1.136   1.939  -0.026  0.00  0.00    -0.217 N 
ATOM      2  C   LIG    1        0.037   1.344  -0.534  0.00  0.00    +0.262 C 
ATOM      3  C   LIG    1       -1.250   2.052  -0.426  0.00  0.00    +0.103 C 
ATOM      4  C   LIG    1       -1.241   3.364   0.244  0.00  0.00    +0.255 C 
ATOM      5  N   LIG    1       -0.064   3.837   0.704  0.00  0.00    -0.263 N 
ATOM      6  H   LIG    1       -0.040   4.701   1.144  0.00  0.00    +0.157 HD
ATOM      7  O   LIG    1       -2.266   4.007   0.374  0.00  0.00    -0.270 OA
ATOM      8  C   LIG    1       -2.424   1.504  -0.932  0.00  0.00    +0.064 C 
ATOM      9  O   LIG    1        0.108   0.255  -1.071  0.00  0.00    -0.269 OA
ATOM     10  C   LIG    1        1.072   3.139   0.567  0.00  0.00    +0.150 C 
ATOM     11  S   LIG    1        2.519   3.817   1.183  0.00  0.00    -0.018 S 
ENDROOT
BRANCH   1  15
ATOM     12  C   LIG    1        4.818  -0.002  -0.308  0.00  0.00    +0.120 A 
ATOM     13  C   LIG    1        4.003  -0.216   0.794  0.00  0.00    +0.047 A 
ATOM     14  C   LIG    1        2.784   0.426   0.888  0.00  0.00    +0.027 A 
ATOM     15  C   LIG    1        2.374   1.286  -0.121  0.00  0.00    +0.043 A 
ATOM     16  C   LIG    1        3.187   1.496  -1.227  0.00  0.00    +0.027 A 
ATOM     17  C   LIG    1        4.408   0.858  -1.317  0.00  0.00    +0.047 A 
BRANCH  12  19
ATOM     18  C   LIG    1        6.805  -0.366  -1.562  0.00  0.00    +0.277 C 
ATOM     19  O   LIG    1        6.018  -0.634  -0.400  0.00  0.00    -0.495 OA
ENDBRANCH  12  19
ENDBRANCH   1  15
BRANCH   8  20
ATOM     20  C   LIG    1       -3.595   2.277  -0.982  0.00  0.00    +0.130 A 
ATOM     21  C   LIG    1       -4.887   1.820  -0.766  0.00  0.00    +0.050 A 
ATOM     22  C   LIG    1       -5.729   2.926  -0.914  0.00  0.00    +0.056 A 
ATOM     23  C   LIG    1       -4.945   3.991  -1.216  0.00  0.00    +0.165 A 
ATOM     24  I   LIG    1       -5.628   5.941  -1.565  0.00  0.00    -0.001 I 
ATOM     25  O   LIG    1       -3.666   3.598  -1.256  0.00  0.00    -0.450 OA
ENDBRANCH   8  20
TORSDOF 3
