REMARK  Name = ZINC02579320
REMARK                            x       y       z     vdW  Elec       q    Type
REMARK                         _______ _______ _______ _____ _____    ______ ____
ROOT
ATOM      1  C   LIG    1       -3.162   4.072  -1.331  0.00  0.00    +0.118 A 
ATOM      2  C   LIG    1       -3.888   3.136  -1.986  0.00  0.00    +0.031 A 
ATOM      3  C   LIG    1       -4.003   3.615  -3.376  0.00  0.00    +0.028 A 
ATOM      4  C   LIG    1       -4.613   3.122  -4.526  0.00  0.00    +0.012 A 
ATOM      5  C   LIG    1       -4.531   3.838  -5.700  0.00  0.00    +0.001 A 
ATOM      6  C   LIG    1       -3.845   5.043  -5.738  0.00  0.00    +0.004 A 
ATOM      7  C   LIG    1       -3.236   5.541  -4.606  0.00  0.00    +0.047 A 
ATOM      8  C   LIG    1       -3.308   4.834  -3.411  0.00  0.00    +0.136 A 
ATOM      9  O   LIG    1       -2.831   5.066  -2.171  0.00  0.00    -0.459 OA
ENDROOT
BRANCH   2  10
ATOM     10  C   LIG    1       -4.451   1.887  -1.422  0.00  0.00    -0.014 A 
ATOM     11  C   LIG    1       -3.599   0.868  -0.995  0.00  0.00    +0.009 A 
ATOM     12  C   LIG    1       -4.123  -0.291  -0.466  0.00  0.00    +0.009 A 
ATOM     13  C   LIG    1       -5.505  -0.450  -0.368  0.00  0.00    -0.018 A 
ATOM     14  C   LIG    1       -6.357   0.566  -0.800  0.00  0.00    +0.009 A 
ATOM     15  C   LIG    1       -5.834   1.727  -1.324  0.00  0.00    +0.009 A 
BRANCH  13  16
ATOM     16  C   LIG    1       -6.069  -1.701   0.196  0.00  0.00    -0.018 A 
ATOM     17  C   LIG    1       -7.450  -1.860   0.299  0.00  0.00    +0.012 A 
ATOM     18  C   LIG    1       -7.972  -3.026   0.819  0.00  0.00    +0.046 A 
ATOM     19  C   LIG    1       -7.122  -4.036   1.249  0.00  0.00    +0.117 A 
ATOM     20  C   LIG    1       -5.746  -3.879   1.153  0.00  0.00    +0.046 A 
ATOM     21  C   LIG    1       -5.219  -2.717   0.629  0.00  0.00    +0.012 A 
BRANCH  19  22
ATOM     22  O   LIG    1       -7.639  -5.182   1.766  0.00  0.00    -0.507 OA
ATOM     23  H   LIG    1       -7.773  -5.156   2.723  0.00  0.00    +0.292 HD
ENDBRANCH  19  22
ENDBRANCH  13  16
ENDBRANCH   2  10
BRANCH   1  24
ATOM     24  C   LIG    1       -2.786   4.011   0.127  0.00  0.00    +0.110 C 
BRANCH  24  28
ATOM     25  C   LIG    1       -5.628   6.222   2.424  0.00  0.00    +0.000 A 
ATOM     26  C   LIG    1       -4.541   6.866   1.864  0.00  0.00    +0.000 A 
ATOM     27  C   LIG    1       -3.624   6.152   1.117  0.00  0.00    +0.004 A 
ATOM     28  C   LIG    1       -3.788   4.791   0.938  0.00  0.00    -0.040 A 
ATOM     29  C   LIG    1       -4.876   4.146   1.498  0.00  0.00    +0.004 A 
ATOM     30  C   LIG    1       -5.796   4.862   2.241  0.00  0.00    +0.000 A 
ENDBRANCH  24  28
ENDBRANCH   1  24
TORSDOF 5
