REMARK  Name = ZINC02576403
REMARK                            x       y       z     vdW  Elec       q    Type
REMARK                         _______ _______ _______ _____ _____    ______ ____
ROOT
ATOM      1  C   LIG    1        4.752  -0.326  -0.044  0.00  0.00    +0.124 A 
ATOM      2  C   LIG    1        4.871   1.062  -0.038  0.00  0.00    +0.046 A 
ATOM      3  C   LIG    1        3.756   1.850  -0.023  0.00  0.00    +0.019 A 
ATOM      4  C   LIG    1        2.491   1.260  -0.015  0.00  0.00    +0.065 A 
ATOM      5  C   LIG    1        2.360  -0.139  -0.021  0.00  0.00    +0.142 A 
ATOM      6  O   LIG    1        1.137  -0.707  -0.013  0.00  0.00    -0.462 OA
ATOM      7  C   LIG    1        0.002  -0.004   0.002  0.00  0.00    +0.208 A 
ATOM      8  C   LIG    1       -0.016   1.354   0.009  0.00  0.00    +0.064 A 
ATOM      9  C   LIG    1        1.266   2.079   0.001  0.00  0.00    +0.200 A 
ATOM     10  O   LIG    1        1.311   3.297   0.007  0.00  0.00    -0.286 OA
ATOM     11  C   LIG    1        3.504  -0.926  -0.036  0.00  0.00    +0.092 A 
ENDROOT
BRANCH   8  12
ATOM     12  C   LIG    1       -1.303   2.092   0.020  0.00  0.00    -0.011 A 
ATOM     13  C   LIG    1       -1.520   3.104   0.954  0.00  0.00    +0.012 A 
ATOM     14  C   LIG    1       -2.715   3.792   0.957  0.00  0.00    +0.046 A 
ATOM     15  C   LIG    1       -3.705   3.472   0.038  0.00  0.00    +0.117 A 
ATOM     16  C   LIG    1       -3.494   2.461  -0.889  0.00  0.00    +0.046 A 
ATOM     17  C   LIG    1       -2.299   1.773  -0.901  0.00  0.00    +0.012 A 
BRANCH  15  18
ATOM     18  O   LIG    1       -4.884   4.148   0.048  0.00  0.00    -0.507 OA
ATOM     19  H   LIG    1       -5.559   3.754   0.617  0.00  0.00    +0.292 HD
ENDBRANCH  15  18
ENDBRANCH   8  12
BRANCH   1  20
ATOM     20  O   LIG    1        5.869  -1.097  -0.058  0.00  0.00    -0.492 OA
BRANCH  20  22
ATOM     21  C   LIG    1        8.260  -1.445  -0.081  0.00  0.00    +0.048 C 
ATOM     22  C   LIG    1        7.126  -0.418  -0.065  0.00  0.00    +0.225 C 
ENDBRANCH  20  22
ENDBRANCH   1  20
TORSDOF 4
