REMARK  Name = ZINC02517049
REMARK                            x       y       z     vdW  Elec       q    Type
REMARK                         _______ _______ _______ _____ _____    ______ ____
ROOT
ATOM      1  C   LIG    1       -0.894   0.122   3.289  0.00  0.00    +0.162 C 
ATOM      2  C   LIG    1       -1.319  -1.265   3.712  0.00  0.00    +0.234 C 
ATOM      3  N   LIG    1       -1.459  -2.341   2.942  0.00  0.00    -0.308 N 
ATOM      4  H   LIG    1       -1.804  -3.167   3.316  0.00  0.00    +0.149 HD
ATOM      5  CA  LIG    1       -1.093  -2.271   1.535  0.00  0.00    +0.103 C 
ATOM      6  C   LIG    1        0.341  -2.734   1.339  0.00  0.00    +0.061 C 
ATOM      7  C   LIG    1        0.941  -1.801   0.323  0.00  0.00    -0.019 A 
ATOM      8  C   LIG    1        1.459  -2.070  -0.873  0.00  0.00    +0.087 A 
ATOM      9  N   LIG    1        1.734  -0.895  -1.529  0.00  0.00    -0.360 N 
ATOM     10  C   LIG    1        1.342   0.175  -0.754  0.00  0.00    +0.049 A 
ATOM     11  C   LIG    1        1.314   1.551  -0.956  0.00  0.00    +0.026 A 
ATOM     12  C   LIG    1        0.888   2.391   0.051  0.00  0.00    +0.004 A 
ATOM     13  C   LIG    1        0.552   1.887   1.300  0.00  0.00    +0.024 A 
ATOM     14  C   LIG    1        0.641   0.530   1.541  0.00  0.00    +0.040 A 
ATOM     15  H   LIG    1        2.142  -0.828  -2.406  0.00  0.00    +0.165 HD
ATOM     16  C   LIG    1        0.928  -0.344   0.486  0.00  0.00    +0.024 A 
ATOM     17  O   LIG    1       -1.561  -1.415   4.891  0.00  0.00    -0.274 OA
ATOM     18  N   LIG    1        0.552   0.075   2.891  0.00  0.00    -0.321 N 
ATOM     19  C   LIG    1        1.371   0.907   3.782  0.00  0.00    +0.130 C 
ENDROOT
BRANCH   1  21
ATOM     20  C   LIG    1       -1.084   0.114   0.798  0.00  0.00    +0.009 C 
ATOM     21  C   LIG    1       -1.740   0.579   2.100  0.00  0.00    +0.012 C 
ATOM     22  C   LIG    1       -3.142  -0.025   2.208  0.00  0.00    +0.009 C 
ENDBRANCH   1  21
BRANCH   5  23
ATOM     23  C   LIG    1       -2.023  -3.174   0.723  0.00  0.00    +0.178 C 
BRANCH  23  24
ATOM     24  O   LIG    1       -3.358  -2.669   0.793  0.00  0.00    -0.393 OA
ATOM     25  H   LIG    1       -4.004  -3.194   0.300  0.00  0.00    +0.209 HD
ENDBRANCH  23  24
ENDBRANCH   5  23
TORSDOF 3
