REMARK  Name = ZINC02454837
REMARK                            x       y       z     vdW  Elec       q    Type
REMARK                         _______ _______ _______ _____ _____    ______ ____
ROOT
ATOM      1  C   LIG    1       -0.013   1.076   0.008  0.00  0.00    +0.001 A 
ATOM      2  C   LIG    1       -1.222   1.751   0.017  0.00  0.00    +0.002 A 
ATOM      3  C   LIG    1       -1.258   3.133   0.031  0.00  0.00    +0.024 A 
ATOM      4  C   LIG    1       -0.076   3.863   0.024  0.00  0.00    +0.048 A 
ATOM      5  C   LIG    1        1.148   3.176   0.008  0.00  0.00    +0.048 A 
ATOM      6  C   LIG    1        2.207   4.202   0.004  0.00  0.00    +0.250 C 
ATOM      7  C   LIG    1        1.474   5.510   0.018  0.00  0.00    +0.292 C 
ATOM      8  O   LIG    1        1.976   6.614   0.019  0.00  0.00    -0.266 OA
ATOM      9  O   LIG    1        3.408   4.027  -0.009  0.00  0.00    -0.282 OA
ATOM     10  N   LIG    1        0.158   5.236   0.029  0.00  0.00    -0.260 N 
ATOM     11  C   LIG    1        1.173   1.781   0.000  0.00  0.00    +0.014 A 
ENDROOT
BRANCH  10  12
ATOM     12  C   LIG    1       -0.897   6.253   0.043  0.00  0.00    +0.149 C 
BRANCH  12  13
ATOM     13  C   LIG    1       -1.272   6.609  -1.372  0.00  0.00    -0.030 A 
ATOM     14  C   LIG    1       -0.616   7.638  -2.022  0.00  0.00    +0.006 A 
ATOM     15  C   LIG    1       -0.956   7.961  -3.323  0.00  0.00    +0.015 A 
ATOM     16  C   LIG    1       -1.960   7.262  -3.969  0.00  0.00    +0.018 A 
ATOM     17 BR   LIG    1       -2.430   7.709  -5.746  0.00  0.00    -0.050 Br
ATOM     18  C   LIG    1       -2.619   6.236  -3.316  0.00  0.00    +0.015 A 
ATOM     19  C   LIG    1       -2.274   5.910  -2.018  0.00  0.00    +0.006 A 
ENDBRANCH  12  13
ENDBRANCH  10  12
TORSDOF 2
