REMARK  Name = ZINC03599026
REMARK                            x       y       z     vdW  Elec       q    Type
REMARK                         _______ _______ _______ _____ _____    ______ ____
ROOT
ATOM      1  C   LIG    1        0.002  -0.004   0.002  0.00  0.00    -0.004 A 
ATOM      2  C   LIG    1       -0.017   1.379   0.010  0.00  0.00    +0.056 A 
ATOM      3  C   LIG    1        1.173   2.088   0.002  0.00  0.00    +0.159 A 
ATOM      4  C   LIG    1        2.387   1.409  -0.013  0.00  0.00    +0.162 A 
ATOM      5  C   LIG    1        2.404   0.024  -0.020  0.00  0.00    +0.094 A 
ATOM      6  C   LIG    1        1.211  -0.683  -0.013  0.00  0.00    +0.124 A 
ENDROOT
BRANCH   3   7
ATOM      7  O   LIG    1        1.153   3.449   0.009  0.00  0.00    -0.503 OA
ATOM      8  H   LIG    1        1.156   3.838   0.895  0.00  0.00    +0.292 HD
ENDBRANCH   3   7
BRANCH   4   9
ATOM      9  O   LIG    1        3.556   2.105  -0.020  0.00  0.00    -0.503 OA
ATOM     10  H   LIG    1        3.886   2.310  -0.905  0.00  0.00    +0.292 HD
ENDBRANCH   4   9
BRANCH   6  11
ATOM     11  O   LIG    1        1.227  -2.042  -0.021  0.00  0.00    -0.506 OA
ATOM     12  H   LIG    1        1.223  -2.431  -0.906  0.00  0.00    +0.292 HD
ENDBRANCH   6  11
BRANCH   1  13
ATOM     13  C   LIG    1       -1.293  -0.774   0.011  0.00  0.00    +0.022 C 
BRANCH  13  15
ATOM     14  C   LIG    1       -3.027  -1.823   1.472  0.00  0.00    -0.014 C 
ATOM     15  C   LIG    1       -1.653  -1.151   1.450  0.00  0.00    -0.074 C 
BRANCH  15  16
ATOM     16  N   LIG    1       -0.648  -2.098   1.963  0.00  0.00    +0.380 N 
ATOM     17  H   LIG    1       -0.664  -2.950   1.391  0.00  0.00    -0.090 HD
ATOM     18  H   LIG    1       -0.861  -2.343   2.929  0.00  0.00    -0.090 HD
ATOM     19  H   LIG    1        0.281  -1.683   1.915  0.00  0.00    -0.090 HD
ENDBRANCH  15  16
ENDBRANCH  13  15
ENDBRANCH   1  13
TORSDOF 6
