REMARK  Name = ZINC02836010
REMARK                            x       y       z     vdW  Elec       q    Type
REMARK                         _______ _______ _______ _____ _____    ______ ____
ROOT
ATOM      1  C   LIG    1        0.661   2.426   0.982  0.00  0.00    +0.028 C 
ATOM      2  C   LIG    1        0.792   1.743  -0.381  0.00  0.00    +0.081 C 
ATOM      3  C   LIG    1        2.145   1.026  -0.474  0.00  0.00    +0.050 C 
ATOM      4  C   LIG    1        2.283   0.411  -1.867  0.00  0.00    +0.115 C 
ATOM      5  C   LIG    1        1.070  -0.418  -2.199  0.00  0.00    -0.005 A 
ATOM      6  C   LIG    1        1.168  -1.383  -3.188  0.00  0.00    +0.007 A 
ATOM      7  C   LIG    1        0.072  -2.154  -3.521  0.00  0.00    +0.000 A 
ATOM      8  C   LIG    1       -1.133  -1.967  -2.867  0.00  0.00    +0.002 A 
ATOM      9  C   LIG    1       -1.239  -1.009  -1.880  0.00  0.00    +0.024 A 
ATOM     10  C   LIG    1       -0.136  -0.232  -1.542  0.00  0.00    +0.042 A 
ATOM     11  N   LIG    1       -0.264   0.733  -0.534  0.00  0.00    -0.264 N 
ATOM     12  C   LIG    1       -1.339   0.737   0.278  0.00  0.00    +0.251 C 
ATOM     13  O   LIG    1       -1.527   1.671   1.032  0.00  0.00    -0.270 OA
ENDROOT
BRANCH  12  14
ATOM     14  C   LIG    1       -2.290  -0.395   0.251  0.00  0.00    +0.037 A 
ATOM     15  C   LIG    1       -1.818  -1.706   0.168  0.00  0.00    +0.013 A 
ATOM     16  C   LIG    1       -2.711  -2.757   0.149  0.00  0.00    +0.005 A 
ATOM     17  C   LIG    1       -4.072  -2.514   0.200  0.00  0.00    -0.042 A 
ATOM     18  C   LIG    1       -4.547  -1.217   0.276  0.00  0.00    +0.005 A 
ATOM     19  C   LIG    1       -3.665  -0.156   0.302  0.00  0.00    +0.013 A 
BRANCH  17  20
ATOM     20  C   LIG    1       -5.041  -3.667   0.171  0.00  0.00    -0.013 C 
ATOM     21  C   LIG    1       -5.886  -3.655   1.447  0.00  0.00    +0.015 C 
ATOM     22  C   LIG    1       -4.266  -4.984   0.085  0.00  0.00    +0.015 C 
ATOM     23  C   LIG    1       -5.957  -3.534  -1.048  0.00  0.00    +0.015 C 
ENDBRANCH  17  20
ENDBRANCH  12  14
BRANCH   4  24
ATOM     24  N   LIG    1        3.475  -0.439  -1.905  0.00  0.00    -0.264 N 
ATOM     25  C   LIG    1        3.543  -1.540  -1.130  0.00  0.00    +0.217 C 
ATOM     26  C   LIG    1        4.812  -2.352  -1.085  0.00  0.00    +0.109 C 
ATOM     27  O   LIG    1        2.583  -1.877  -0.470  0.00  0.00    -0.276 OA
BRANCH  24  28
ATOM     28  C   LIG    1        4.543  -0.109  -2.746  0.00  0.00    +0.037 A 
ATOM     29  C   LIG    1        5.201   1.105  -2.592  0.00  0.00    +0.023 A 
ATOM     30  C   LIG    1        6.259   1.426  -3.420  0.00  0.00    +0.002 A 
ATOM     31  C   LIG    1        6.656   0.545  -4.409  0.00  0.00    +0.000 A 
ATOM     32  C   LIG    1        6.000  -0.661  -4.569  0.00  0.00    +0.002 A 
ATOM     33  C   LIG    1        4.945  -0.991  -3.741  0.00  0.00    +0.023 A 
ENDBRANCH  24  28
ENDBRANCH   4  24
TORSDOF 4
