REMARK  Name = ZINC02410151
REMARK                            x       y       z     vdW  Elec       q    Type
REMARK                         _______ _______ _______ _____ _____    ______ ____
ROOT
ATOM      1  C   LIG    1        0.739  -2.004  -1.265  0.00  0.00    +0.239 A 
ATOM      2  N   LIG    1       -0.266  -2.788  -1.537  0.00  0.00    -0.109 NA
ATOM      3  N   LIG    1        0.112  -4.014  -1.449  0.00  0.00    -0.090 NA
ATOM      4  C   LIG    1        1.372  -4.055  -1.118  0.00  0.00    +0.361 A 
ATOM      5  O   LIG    1        1.798  -2.787  -0.999  0.00  0.00    -0.405 OA
ENDROOT
BRANCH   4   6
ATOM      6  S   LIG    1        2.340  -5.508  -0.877  0.00  0.00    +0.053 S 
ATOM      7  O   LIG    1        1.403  -6.511  -0.511  0.00  0.00    -0.165 OA
ATOM      8  O   LIG    1        3.368  -5.114   0.021  0.00  0.00    -0.165 OA
BRANCH   6   9
ATOM      9  C   LIG    1        3.042  -5.875  -2.509  0.00  0.00    +0.216 C 
BRANCH   9  10
ATOM     10  C   LIG    1        3.898  -7.112  -2.420  0.00  0.00    +0.028 A 
ATOM     11  C   LIG    1        5.244  -7.003  -2.115  0.00  0.00    +0.130 A 
ATOM     12  F   LIG    1        5.792  -5.787  -1.898  0.00  0.00    -0.205 F 
ATOM     13  C   LIG    1        6.030  -8.140  -2.034  0.00  0.00    +0.039 A 
ATOM     14  C   LIG    1        5.469  -9.384  -2.257  0.00  0.00    +0.004 A 
ATOM     15  C   LIG    1        4.126  -9.494  -2.561  0.00  0.00    +0.020 A 
ATOM     16  C   LIG    1        3.338  -8.358  -2.637  0.00  0.00    +0.048 A 
ATOM     17 CL   LIG    1        1.649  -8.497  -3.012  0.00  0.00    -0.083 Cl
ENDBRANCH   9  10
ENDBRANCH   6   9
ENDBRANCH   4   6
BRANCH   1  18
ATOM     18  C   LIG    1        0.718  -0.497  -1.257  0.00  0.00    +0.166 C 
BRANCH  18  19
ATOM     19  N   LIG    1        0.010  -0.012  -2.444  0.00  0.00    -0.269 N 
ATOM     20  H   LIG    1       -0.650  -0.575  -2.879  0.00  0.00    +0.153 HD
ATOM     21  C   LIG    1        0.274   1.216  -2.931  0.00  0.00    +0.401 C 
ATOM     22  O   LIG    1        1.100   1.921  -2.386  0.00  0.00    -0.226 OA
BRANCH  21  23
ATOM     23  O   LIG    1       -0.377   1.662  -4.022  0.00  0.00    -0.445 OA
BRANCH  23  24
ATOM     24  C   LIG    1       -0.047   2.974  -4.484  0.00  0.00    +0.107 C 
ATOM     25  C   LIG    1       -0.345   3.992  -3.382  0.00  0.00    +0.055 C 
ATOM     26  C   LIG    1       -0.882   3.303  -5.723  0.00  0.00    +0.055 C 
ATOM     27  C   LIG    1        1.440   3.029  -4.841  0.00  0.00    +0.055 C 
ENDBRANCH  23  24
ENDBRANCH  21  23
ENDBRANCH  18  19
BRANCH  18  29
ATOM     28  C   LIG    1       -0.019   1.526   0.010  0.00  0.00    +0.009 C 
ATOM     29  C   LIG    1        0.002  -0.004   0.002  0.00  0.00    +0.012 C 
ATOM     30  C   LIG    1       -1.433  -0.534   0.013  0.00  0.00    +0.009 C 
ENDBRANCH  18  29
ENDBRANCH   1  18
TORSDOF 8
