REMARK  Name = ZINC02556863
REMARK                            x       y       z     vdW  Elec       q    Type
REMARK                         _______ _______ _______ _____ _____    ______ ____
ROOT
ATOM      1  C   LIG    1       -0.014   1.209   0.009  0.00  0.00    +0.163 C 
ATOM      2  O   LIG    1        0.002  -0.004   0.002  0.00  0.00    -0.292 OA
ENDROOT
BRANCH   1   3
ATOM      3  C   LIG    1       -1.296   1.926   0.019  0.00  0.00    +0.018 A 
ATOM      4  C   LIG    1       -1.318   3.326   0.032  0.00  0.00    +0.015 A 
ATOM      5  C   LIG    1       -2.517   3.990   0.036  0.00  0.00    +0.046 A 
ATOM      6  C   LIG    1       -3.711   3.276   0.037  0.00  0.00    +0.117 A 
ATOM      7  C   LIG    1       -3.695   1.886   0.030  0.00  0.00    +0.046 A 
ATOM      8  C   LIG    1       -2.501   1.212   0.021  0.00  0.00    +0.015 A 
BRANCH   6   9
ATOM      9  O   LIG    1       -4.895   3.939   0.046  0.00  0.00    -0.507 OA
ATOM     10  H   LIG    1       -5.234   4.126   0.932  0.00  0.00    +0.292 HD
ENDBRANCH   6   9
ENDBRANCH   1   3
BRANCH   1  11
ATOM     11  C   LIG    1        1.280   1.980   0.001  0.00  0.00    +0.079 C 
BRANCH  11  12
ATOM     12  C   LIG    1        2.457   1.002  -0.016  0.00  0.00    +0.008 C 
BRANCH  12  13
ATOM     13  C   LIG    1        3.771   1.785  -0.024  0.00  0.00    +0.000 C 
BRANCH  13  14
ATOM     14  C   LIG    1        4.947   0.806  -0.041  0.00  0.00    -0.000 C 
BRANCH  14  16
ATOM     15  C   LIG    1        7.438   0.611  -0.066  0.00  0.00    +0.004 C 
ATOM     16  C   LIG    1        6.262   1.589  -0.049  0.00  0.00    -0.003 C 
ENDBRANCH  14  16
ENDBRANCH  13  14
ENDBRANCH  12  13
ENDBRANCH  11  12
ENDBRANCH   1  11
TORSDOF 7
