REMARK  Name = ZINC03157191
REMARK                            x       y       z     vdW  Elec       q    Type
REMARK                         _______ _______ _______ _____ _____    ______ ____
ROOT
ATOM      1  N   LIG    1       -1.191   1.867   0.018  0.00  0.00    -0.285 N 
ATOM      2  H   LIG    1       -1.170   2.773  -0.327  0.00  0.00    +0.155 HD
ATOM      3  C   LIG    1       -0.089   1.336   0.585  0.00  0.00    +0.238 C 
ATOM      4  O   LIG    1       -0.142   0.242   1.106  0.00  0.00    -0.275 OA
ENDROOT
BRANCH   1  11
ATOM      5  C   LIG    1       -3.671   3.249  -0.164  0.00  0.00    +0.045 C 
ATOM      6  C   LIG    1       -3.596   1.744  -0.164  0.00  0.00    -0.029 A 
ATOM      7  C   LIG    1       -4.752   0.994  -0.255  0.00  0.00    +0.005 A 
ATOM      8  C   LIG    1       -4.684  -0.387  -0.256  0.00  0.00    +0.000 A 
ATOM      9  C   LIG    1       -3.459  -1.022  -0.166  0.00  0.00    +0.002 A 
ATOM     10  C   LIG    1       -2.299  -0.278  -0.080  0.00  0.00    +0.023 A 
ATOM     11  C   LIG    1       -2.364   1.110  -0.074  0.00  0.00    +0.036 A 
ENDBRANCH   1  11
BRANCH   3  12
ATOM     12  C   LIG    1        1.210   2.100   0.568  0.00  0.00    +0.282 C 
BRANCH  12  13
ATOM     13  C   LIG    1        2.294   1.278   1.267  0.00  0.00    +0.409 C 
ATOM     14  F   LIG    1        1.914   1.035   2.591  0.00  0.00    -0.170 F 
ATOM     15  F   LIG    1        3.500   1.988   1.251  0.00  0.00    -0.170 F 
ATOM     16  F   LIG    1        2.460   0.061   0.598  0.00  0.00    -0.170 F 
ENDBRANCH  12  13
BRANCH  12  17
ATOM     17  C   LIG    1        1.028   3.432   1.300  0.00  0.00    +0.409 C 
ATOM     18  F   LIG    1        0.036   4.184   0.660  0.00  0.00    -0.170 F 
ATOM     19  F   LIG    1        2.234   4.141   1.283  0.00  0.00    -0.170 F 
ATOM     20  F   LIG    1        0.648   3.188   2.624  0.00  0.00    -0.170 F 
ENDBRANCH  12  17
ENDBRANCH   3  12
TORSDOF 4
