REMARK  Name = ZINC03089782
REMARK                            x       y       z     vdW  Elec       q    Type
REMARK                         _______ _______ _______ _____ _____    ______ ____
ROOT
ATOM      1  C   LIG    1       -3.011   4.124  -1.392  0.00  0.00    +0.186 C 
ENDROOT
BRANCH   1   2
ATOM      2  N   LIG    1       -2.068   5.031  -2.051  0.00  0.00    -0.298 N 
ATOM      3  H   LIG    1       -1.531   5.641  -1.522  0.00  0.00    +0.150 HD
ATOM      4  C   LIG    1       -1.946   5.017  -3.393  0.00  0.00    +0.245 C 
ATOM      5  O   LIG    1       -2.619   4.252  -4.057  0.00  0.00    -0.270 OA
BRANCH   4   6
ATOM      6  C   LIG    1       -0.994   5.932  -4.059  0.00  0.00    +0.037 A 
ATOM      7  C   LIG    1       -0.224   6.815  -3.300  0.00  0.00    +0.013 A 
ATOM      8  C   LIG    1        0.666   7.662  -3.927  0.00  0.00    +0.001 A 
ATOM      9  C   LIG    1        0.788   7.646  -5.305  0.00  0.00    +0.000 A 
ATOM     10  C   LIG    1        0.024   6.776  -6.063  0.00  0.00    +0.001 A 
ATOM     11  C   LIG    1       -0.866   5.920  -5.448  0.00  0.00    +0.013 A 
ENDBRANCH   4   6
ENDBRANCH   1   2
BRANCH   1  12
ATOM     12  C   LIG    1       -4.382   4.749  -1.378  0.00  0.00    +0.328 C 
ATOM     13  O   LIG    1       -4.554   5.840  -1.869  0.00  0.00    -0.249 OA
BRANCH  12  14
ATOM     14  O   LIG    1       -5.413   4.095  -0.821  0.00  0.00    -0.464 OA
BRANCH  14  16
ATOM     15  C   LIG    1       -7.748   3.864  -0.168  0.00  0.00    +0.048 C 
ATOM     16  C   LIG    1       -6.705   4.757  -0.843  0.00  0.00    +0.229 C 
ENDBRANCH  14  16
ENDBRANCH  12  14
ENDBRANCH   1  12
BRANCH   1  17
ATOM     17  C   LIG    1       -2.553   3.869   0.045  0.00  0.00    +0.069 C 
BRANCH  17  18
ATOM     18  C   LIG    1       -1.238   3.133   0.030  0.00  0.00    -0.045 A 
ATOM     19  C   LIG    1       -1.219   1.751   0.017  0.00  0.00    +0.004 A 
ATOM     20  C   LIG    1       -0.013   1.076   0.008  0.00  0.00    +0.000 A 
ATOM     21  C   LIG    1        1.175   1.783   0.000  0.00  0.00    +0.000 A 
ATOM     22  C   LIG    1        1.156   3.165   0.008  0.00  0.00    +0.000 A 
ATOM     23  C   LIG    1       -0.050   3.840   0.022  0.00  0.00    +0.004 A 
ENDBRANCH  17  18
ENDBRANCH   1  17
TORSDOF 7
