REMARK  Name = ZINC02569611
REMARK                            x       y       z     vdW  Elec       q    Type
REMARK                         _______ _______ _______ _____ _____    ______ ____
ROOT
ATOM      1  C   LIG    1       -0.013   1.086   0.008  0.00  0.00    +0.267 C 
ATOM      2  C   LIG    1        0.540   1.800   1.244  0.00  0.00    +0.267 C 
ATOM      3  O   LIG    1        1.242   1.769  -0.000  0.00  0.00    -0.345 OA
ENDROOT
BRANCH   1   4
ATOM      4  C   LIG    1       -1.167   1.728  -0.718  0.00  0.00    +0.339 C 
ATOM      5  O   LIG    1       -1.014   2.153  -1.839  0.00  0.00    -0.248 OA
BRANCH   4   6
ATOM      6  O   LIG    1       -2.364   1.829  -0.120  0.00  0.00    -0.463 OA
BRANCH   6   8
ATOM      7  C   LIG    1       -4.708   2.482  -0.039  0.00  0.00    +0.048 C 
ATOM      8  C   LIG    1       -3.429   2.459  -0.879  0.00  0.00    +0.229 C 
ENDBRANCH   6   8
ENDBRANCH   4   6
ENDBRANCH   1   4
BRANCH   2   9
ATOM      9  C   LIG    1        1.067   0.948   2.369  0.00  0.00    +0.339 C 
ATOM     10  O   LIG    1        2.240   0.985   2.657  0.00  0.00    -0.248 OA
BRANCH   9  11
ATOM     11  O   LIG    1        0.234   0.148   3.053  0.00  0.00    -0.463 OA
BRANCH  11  12
ATOM     12  C   LIG    1        0.811  -0.644   4.124  0.00  0.00    +0.229 C 
ATOM     13  C   LIG    1       -0.284  -1.486   4.783  0.00  0.00    +0.048 C 
ENDBRANCH  11  12
ENDBRANCH   9  11
ENDBRANCH   2   9
TORSDOF 6
