REMARK  Name = ZINC02516023
REMARK                            x       y       z     vdW  Elec       q    Type
REMARK                         _______ _______ _______ _____ _____    ______ ____
ROOT
ATOM      1  C   LIG    1        0.709  -0.710  -1.174  0.00  0.00    +0.026 C 
ATOM      2  C   LIG    1       -0.013  -1.039  -2.318  0.00  0.00    +0.047 C 
ATOM      3  C   LIG    1       -1.441  -1.228  -2.618  0.00  0.00    -0.018 A 
ATOM      4  C   LIG    1       -2.603  -1.145  -1.850  0.00  0.00    +0.055 A 
ATOM      5  C   LIG    1       -3.830  -1.385  -2.433  0.00  0.00    +0.162 A 
ATOM      6  C   LIG    1       -3.909  -1.709  -3.789  0.00  0.00    +0.163 A 
ATOM      7  C   LIG    1       -2.764  -1.793  -4.556  0.00  0.00    +0.072 A 
ATOM      8  C   LIG    1       -1.519  -1.554  -3.980  0.00  0.00    +0.035 A 
ATOM      9  N   LIG    1       -0.236  -1.568  -4.500  0.00  0.00    -0.339 N 
ATOM     10  H   LIG    1       -0.015  -1.766  -5.424  0.00  0.00    +0.146 HD
ATOM     11  C   LIG    1        0.682  -1.262  -3.520  0.00  0.00    +0.092 C 
ATOM     12  C   LIG    1        2.072  -1.146  -3.519  0.00  0.00    +0.104 C 
ATOM     13  N   LIG    1        2.718  -0.835  -2.420  0.00  0.00    -0.302 NA
ATOM     14  H   LIG    1        3.685  -0.762  -2.451  0.00  0.00    +0.123 HD
ATOM     15  C   LIG    1        2.094  -0.610  -1.266  0.00  0.00    +0.167 C 
ENDROOT
BRANCH   1  17
ATOM     16  C   LIG    1       -0.229   1.040   0.312  0.00  0.00    +0.004 C 
ATOM     17  C   LIG    1        0.005  -0.462   0.135  0.00  0.00    +0.003 C 
ENDBRANCH   1  17
BRANCH   5  18
ATOM     18  O   LIG    1       -4.965  -1.305  -1.687  0.00  0.00    -0.491 OA
ATOM     19  C   LIG    1       -4.811  -0.969  -0.306  0.00  0.00    +0.277 C 
ENDBRANCH   5  18
BRANCH   6  20
ATOM     20  O   LIG    1       -5.122  -1.944  -4.357  0.00  0.00    -0.491 OA
ATOM     21  C   LIG    1       -5.133  -2.271  -5.748  0.00  0.00    +0.277 C 
ENDBRANCH   6  20
BRANCH  15  22
ATOM     22  C   LIG    1        2.882  -0.257  -0.066  0.00  0.00    +0.324 C 
ATOM     23  O   LIG    1        2.315   0.048   0.964  0.00  0.00    -0.249 OA
BRANCH  22  24
ATOM     24  O   LIG    1        4.228  -0.272  -0.116  0.00  0.00    -0.467 OA
ATOM     25  C   LIG    1        4.925   0.080   1.081  0.00  0.00    +0.280 C 
ENDBRANCH  22  24
ENDBRANCH  15  22
TORSDOF 5
