REMARK  Name = ZINC03610394
REMARK                            x       y       z     vdW  Elec       q    Type
REMARK                         _______ _______ _______ _____ _____    ______ ____
ROOT
ATOM      1  C   LIG    1       -4.226   4.334   3.925  0.00  0.00    +0.001 A 
ATOM      2  C   LIG    1       -3.016   4.971   3.712  0.00  0.00    +0.001 A 
ATOM      3  C   LIG    1       -2.388   4.882   2.482  0.00  0.00    +0.011 A 
ATOM      4  C   LIG    1       -2.968   4.156   1.465  0.00  0.00    +0.045 A 
ATOM      5  C   LIG    1       -4.185   3.511   1.671  0.00  0.00    +0.071 A 
ATOM      6  C   LIG    1       -4.574   2.808   0.417  0.00  0.00    +0.276 C 
ATOM      7  N   LIG    1       -5.562   2.061  -0.012  0.00  0.00    -0.271 N 
ATOM      8  H   LIG    1       -6.378   1.787   0.548  0.00  0.00    +0.304 HD
ATOM      9  C   LIG    1       -5.332   1.672  -1.411  0.00  0.00    +0.277 C 
ATOM     10  C   LIG    1       -3.988   2.332  -1.774  0.00  0.00    +0.274 C 
ATOM     11  N   LIG    1       -3.608   3.025  -0.532  0.00  0.00    -0.183 N 
ATOM     12  C   LIG    1       -2.553   3.868   0.045  0.00  0.00    +0.256 C 
ATOM     13  C   LIG    1       -4.814   3.604   2.912  0.00  0.00    +0.016 A 
ENDROOT
BRANCH  12  14
ATOM     14  C   LIG    1       -1.238   3.133   0.030  0.00  0.00    +0.031 A 
ATOM     15  C   LIG    1       -1.218   1.751   0.017  0.00  0.00    +0.013 A 
ATOM     16  C   LIG    1       -0.013   1.076   0.008  0.00  0.00    +0.039 A 
ATOM     17  C   LIG    1        1.177   1.785   0.000  0.00  0.00    +0.123 A 
ATOM     18  F   LIG    1        2.356   1.126  -0.013  0.00  0.00    -0.205 F 
ATOM     19  C   LIG    1        1.157   3.169   0.008  0.00  0.00    +0.039 A 
ATOM     20  C   LIG    1       -0.051   3.842   0.022  0.00  0.00    +0.013 A 
ENDBRANCH  12  14
BRANCH  12  21
ATOM     21  O   LIG    1       -2.442   5.087  -0.691  0.00  0.00    -0.346 OA
ATOM     22  H   LIG    1       -1.769   5.693  -0.351  0.00  0.00    +0.215 HD
ENDBRANCH  12  21
TORSDOF 2
