REMARK  Name = ZINC02583789
REMARK                            x       y       z     vdW  Elec       q    Type
REMARK                         _______ _______ _______ _____ _____    ______ ____
ROOT
ATOM      1  C   LIG    1       -0.034  -0.508  -1.435  0.00  0.00    +0.162 A 
ATOM      2  C   LIG    1        0.734   0.223  -2.296  0.00  0.00    +0.062 A 
ATOM      3  C   LIG    1        1.284  -0.391  -3.428  0.00  0.00    +0.044 A 
ATOM      4  C   LIG    1        1.041  -1.765  -3.674  0.00  0.00    +0.080 A 
ATOM      5  N   LIG    1        1.580  -2.329  -4.766  0.00  0.00    -0.235 NA
ATOM      6  C   LIG    1        2.317  -1.619  -5.587  0.00  0.00    +0.223 A 
ATOM      7  N   LIG    1        2.571  -0.334  -5.398  0.00  0.00    -0.220 NA
ATOM      8  C   LIG    1        0.251  -2.495  -2.779  0.00  0.00    +0.078 A 
ATOM      9  C   LIG    1        2.086   0.321  -4.351  0.00  0.00    +0.134 A 
ATOM     10  C   LIG    1       -0.274  -1.869  -1.669  0.00  0.00    +0.164 A 
ENDROOT
BRANCH   1  12
ATOM     11  C   LIG    1       -0.287   1.478  -0.153  0.00  0.00    +0.277 C 
ATOM     12  O   LIG    1       -0.568   0.089  -0.337  0.00  0.00    -0.491 OA
ENDBRANCH   1  12
BRANCH   9  13
ATOM     13  N   LIG    1        2.359   1.662  -4.166  0.00  0.00    -0.297 N 
ATOM     14  H   LIG    1        2.079   2.106  -3.350  0.00  0.00    +0.154 HD
BRANCH  13  15
ATOM     15  C   LIG    1        3.039   2.380  -5.156  0.00  0.00    +0.068 A 
ATOM     16  C   LIG    1        3.099   1.890  -6.454  0.00  0.00    +0.027 A 
ATOM     17  C   LIG    1        3.770   2.602  -7.429  0.00  0.00    +0.022 A 
ATOM     18  C   LIG    1        4.383   3.802  -7.115  0.00  0.00    +0.044 A 
ATOM     19 CL   LIG    1        5.225   4.693  -8.345  0.00  0.00    -0.083 Cl
ATOM     20  C   LIG    1        4.325   4.294  -5.823  0.00  0.00    +0.060 A 
ATOM     21  C   LIG    1        3.650   3.590  -4.843  0.00  0.00    +0.146 A 
ATOM     22  F   LIG    1        3.589   4.073  -3.583  0.00  0.00    -0.203 F 
ENDBRANCH  13  15
ENDBRANCH   9  13
BRANCH  10  23
ATOM     23  O   LIG    1       -1.037  -2.577  -0.796  0.00  0.00    -0.491 OA
ATOM     24  C   LIG    1       -1.245  -3.960  -1.089  0.00  0.00    +0.277 C 
ENDBRANCH  10  23
TORSDOF 4
