REMARK  Name = ZINC03108048
REMARK                            x       y       z     vdW  Elec       q    Type
REMARK                         _______ _______ _______ _____ _____    ______ ____
ROOT
ATOM      1  C   LIG    1        3.603   2.122  -0.021  0.00  0.00    +0.121 C 
ENDROOT
BRANCH   1   4
ATOM      2  C   LIG    1       -0.017   1.411   0.010  0.00  0.00    +0.088 A 
ATOM      3  C   LIG    1        1.153   2.084   0.002  0.00  0.00    +0.096 A 
ATOM      4  N   LIG    1        2.333   1.392  -0.013  0.00  0.00    -0.302 N 
ATOM      5  C   LIG    1        2.338   0.046  -0.021  0.00  0.00    +0.329 A 
ATOM      6  N   LIG    1        1.186  -0.650  -0.013  0.00  0.00    -0.275 N 
ATOM      7  H   LIG    1        1.207  -1.619  -0.018  0.00  0.00    +0.173 HD
ATOM      8  O   LIG    1        3.398  -0.549  -0.034  0.00  0.00    -0.246 OA
ATOM      9  C   LIG    1        0.002  -0.004   0.002  0.00  0.00    +0.254 A 
ATOM     10  O   LIG    1       -1.041  -0.633   0.009  0.00  0.00    -0.268 OA
ENDBRANCH   1   4
BRANCH   1  11
ATOM     11  CA  LIG    1        4.059   2.368   1.419  0.00  0.00    +0.056 C 
BRANCH  11  12
ATOM     12  N   LIG    1        4.124   1.089   2.138  0.00  0.00    +0.388 N 
ATOM     13  H1  LIG    1        4.780   0.477   1.677  0.00  0.00    -0.089 HD
ATOM     14  H2  LIG    1        3.211   0.659   2.143  0.00  0.00    -0.089 HD
ATOM     15  H3  LIG    1        4.424   1.251   3.087  0.00  0.00    -0.089 HD
ENDBRANCH  11  12
BRANCH  11  16
ATOM     16  C   LIG    1        5.423   3.009   1.411  0.00  0.00    +0.292 C 
ATOM     17  O   LIG    1        5.554   4.159   1.027  0.00  0.00    -0.253 OA
BRANCH  16  18
ATOM     18  OXT LIG    1        6.396   2.378   1.789  0.00  0.00    -0.482 OA
ATOM     19  HXT LIG    1        6.295   1.495   2.084  0.00  0.00    +0.295 HD
ENDBRANCH  16  18
ENDBRANCH  11  16
ENDBRANCH   1  11
TORSDOF 5
