REMARK  Name = ZINC03614435
REMARK                            x       y       z     vdW  Elec       q    Type
REMARK                         _______ _______ _______ _____ _____    ______ ____
ROOT
ATOM      1  C   LIG    1        1.971   5.711   0.014  0.00  0.00    +0.001 A 
ATOM      2  C   LIG    1        0.651   6.127   0.029  0.00  0.00    +0.001 A 
ATOM      3  C   LIG    1       -0.373   5.196   0.034  0.00  0.00    +0.011 A 
ATOM      4  C   LIG    1       -0.078   3.850   0.024  0.00  0.00    +0.045 A 
ATOM      5  C   LIG    1        1.246   3.423   0.009  0.00  0.00    +0.071 A 
ATOM      6  C   LIG    1        1.272   1.934   0.000  0.00  0.00    +0.276 C 
ATOM      7  N   LIG    1        2.168   0.977  -0.013  0.00  0.00    -0.271 N 
ATOM      8  H   LIG    1        3.184   1.123  -0.022  0.00  0.00    +0.304 HD
ATOM      9  C   LIG    1        1.506  -0.336  -0.014  0.00  0.00    +0.277 C 
ATOM     10  C   LIG    1        0.002  -0.004   0.002  0.00  0.00    +0.274 C 
ATOM     11  N   LIG    1       -0.018   1.468   0.010  0.00  0.00    -0.183 N 
ATOM     12  C   LIG    1       -0.938   2.612   0.020  0.00  0.00    +0.256 C 
ATOM     13  C   LIG    1        2.275   4.365   0.004  0.00  0.00    +0.016 A 
ENDROOT
BRANCH  12  14
ATOM     14  C   LIG    1       -1.806   2.588  -1.212  0.00  0.00    +0.031 A 
ATOM     15  C   LIG    1       -1.362   1.954  -2.358  0.00  0.00    +0.011 A 
ATOM     16  C   LIG    1       -2.160   1.929  -3.486  0.00  0.00    +0.013 A 
ATOM     17  C   LIG    1       -3.397   2.546  -3.473  0.00  0.00    +0.055 A 
ATOM     18  C   LIG    1       -3.838   3.184  -2.329  0.00  0.00    +0.013 A 
ATOM     19  C   LIG    1       -3.042   3.205  -1.198  0.00  0.00    +0.011 A 
BRANCH  17  20
ATOM     20  C   LIG    1       -4.264   2.522  -4.705  0.00  0.00    +0.417 C 
ATOM     21  F   LIG    1       -5.611   2.551  -4.327  0.00  0.00    -0.166 F 
ATOM     22  F   LIG    1       -4.010   1.354  -5.432  0.00  0.00    -0.166 F 
ATOM     23  F   LIG    1       -3.978   3.638  -5.498  0.00  0.00    -0.166 F 
ENDBRANCH  17  20
ENDBRANCH  12  14
BRANCH  12  24
ATOM     24  O   LIG    1       -1.752   2.577   1.194  0.00  0.00    -0.346 OA
ATOM     25  H   LIG    1       -2.381   3.308   1.258  0.00  0.00    +0.215 HD
ENDBRANCH  12  24
TORSDOF 3
