REMARK  Name = ZINC03249673
REMARK                            x       y       z     vdW  Elec       q    Type
REMARK                         _______ _______ _______ _____ _____    ______ ____
ROOT
ATOM      1  C   LIG    1       -0.026   1.503   0.025  0.00  0.00    +0.067 C 
ATOM      2  C   LIG    1       -0.009  -0.004   0.010  0.00  0.00    +0.064 A 
ATOM      3  C   LIG    1        0.009  -0.811  -1.131  0.00  0.00    +0.092 A 
ATOM      4  C   LIG    1        0.019  -2.108  -0.723  0.00  0.00    +0.223 A 
ATOM      5  N   LIG    1        0.008  -2.112   0.629  0.00  0.00    -0.232 N 
ATOM      6  N   LIG    1       -0.004  -0.780   1.063  0.00  0.00    -0.173 NA
ENDROOT
BRANCH   4   7
ATOM      7  O   LIG    1        0.037  -3.202  -1.527  0.00  0.00    -0.404 OA
BRANCH   7   8
ATOM      8  C   LIG    1       -0.076  -3.011  -2.856  0.00  0.00    +0.346 C 
ATOM      9  O   LIG    1       -0.092  -1.884  -3.309  0.00  0.00    -0.244 OA
BRANCH   8  10
ATOM     10  C   LIG    1       -0.181  -4.173  -3.762  0.00  0.00    +0.059 A 
ATOM     11  C   LIG    1       -0.170  -5.470  -3.245  0.00  0.00    +0.015 A 
ATOM     12  C   LIG    1       -0.269  -6.550  -4.097  0.00  0.00    +0.001 A 
ATOM     13  C   LIG    1       -0.379  -6.351  -5.462  0.00  0.00    +0.000 A 
ATOM     14  C   LIG    1       -0.391  -5.068  -5.981  0.00  0.00    +0.001 A 
ATOM     15  C   LIG    1       -0.299  -3.979  -5.140  0.00  0.00    +0.015 A 
ENDBRANCH   8  10
ENDBRANCH   7   8
ENDBRANCH   4   7
BRANCH   5  16
ATOM     16  C   LIG    1        0.013  -3.299   1.488  0.00  0.00    +0.162 C 
BRANCH  16  17
ATOM     17  C   LIG    1        1.450  -3.623   1.901  0.00  0.00    +0.142 C 
BRANCH  17  18
ATOM     18  C   LIG    1        1.455  -4.816   2.764  0.00  0.00    +0.064 C 
ATOM     19  N   LIG    1        1.459  -5.736   3.430  0.00  0.00    -0.197 NA
ENDBRANCH  17  18
ENDBRANCH  16  17
ENDBRANCH   5  16
TORSDOF 6
