REMARK  Name = ZINC02513206
REMARK                            x       y       z     vdW  Elec       q    Type
REMARK                         _______ _______ _______ _____ _____    ______ ____
ROOT
ATOM      1  C   LIG    1        1.024   0.430   2.677  0.00  0.00    +0.016 A 
ATOM      2  C   LIG    1        0.686  -0.763   2.069  0.00  0.00    +0.043 A 
ATOM      3  C   LIG    1        1.580  -1.374   1.199  0.00  0.00    +0.100 A 
ATOM      4  C   LIG    1        2.810  -0.782   0.943  0.00  0.00    +0.043 A 
ATOM      5  C   LIG    1        3.141   0.411   1.554  0.00  0.00    +0.016 A 
ATOM      6  C   LIG    1        2.249   1.017   2.420  0.00  0.00    +0.055 A 
ENDROOT
BRANCH   6   7
ATOM      7  C   LIG    1        2.614   2.319   3.086  0.00  0.00    +0.417 C 
ATOM      8  F   LIG    1        1.453   3.063   3.321  0.00  0.00    -0.166 F 
ATOM      9  F   LIG    1        3.471   3.045   2.251  0.00  0.00    -0.166 F 
ATOM     10  F   LIG    1        3.256   2.059   4.301  0.00  0.00    -0.166 F 
ENDBRANCH   6   7
BRANCH   3  11
ATOM     11  N   LIG    1        1.242  -2.582   0.582  0.00  0.00    -0.246 N 
ATOM     12  H   LIG    1        0.756  -3.261   1.077  0.00  0.00    +0.265 HD
BRANCH  11  13
ATOM     13  C   LIG    1        1.597  -2.809  -0.729  0.00  0.00    +0.346 C 
ATOM     14  N   LIG    1        1.355  -4.016  -1.219  0.00  0.00    -0.292 N 
ATOM     15  H   LIG    1        0.919  -4.733  -0.626  0.00  0.00    +0.255 HD
ATOM     16  H   LIG    1        1.601  -4.233  -2.185  0.00  0.00    +0.255 HD
BRANCH  13  17
ATOM     17  N   LIG    1        2.177  -1.805  -1.468  0.00  0.00    -0.292 N 
ATOM     18  H   LIG    1        2.577  -2.005  -2.328  0.00  0.00    +0.255 HD
ATOM     19  H   LIG    1        2.187  -0.896  -1.128  0.00  0.00    +0.255 HD
ENDBRANCH  13  17
ENDBRANCH  11  13
ENDBRANCH   3  11
TORSDOF 4
