REMARK  Name = ZINC02990484
REMARK                            x       y       z     vdW  Elec       q    Type
REMARK                         _______ _______ _______ _____ _____    ______ ____
ROOT
ATOM      1  C   LIG    1        0.000   1.080   2.488  0.00  0.00    -0.000 A 
ATOM      2  C   LIG    1        1.133   0.302   2.347  0.00  0.00    +0.009 A 
ATOM      3  C   LIG    1        1.802  -0.156   3.466  0.00  0.00    -0.064 A 
ATOM      4  C   LIG    1        1.340   0.163   4.730  0.00  0.00    +0.009 A 
ATOM      5  C   LIG    1        0.208   0.942   4.876  0.00  0.00    -0.000 A 
ATOM      6  C   LIG    1       -0.463   1.406   3.754  0.00  0.00    +0.124 A 
ENDROOT
BRANCH   1   8
ATOM      7  C   LIG    1       -0.013   1.086   0.008  0.00  0.00    +0.015 C 
ATOM      8  C   LIG    1       -0.729   1.579   1.267  0.00  0.00    -0.009 C 
ATOM      9  C   LIG    1       -2.164   1.050   1.278  0.00  0.00    +0.015 C 
ATOM     10  C   LIG    1       -0.750   3.109   1.275  0.00  0.00    +0.015 C 
ENDBRANCH   1   8
BRANCH   5  11
ATOM     11  C   LIG    1       -0.295   1.290   6.253  0.00  0.00    -0.009 C 
ATOM     12  C   LIG    1       -1.716   0.751   6.429  0.00  0.00    +0.015 C 
ATOM     13  C   LIG    1       -0.301   2.810   6.425  0.00  0.00    +0.015 C 
ATOM     14  C   LIG    1        0.622   0.662   7.305  0.00  0.00    +0.015 C 
ENDBRANCH   5  11
BRANCH   6  15
ATOM     15  O   LIG    1       -1.573   2.176   3.896  0.00  0.00    -0.506 OA
ATOM     16  H   LIG    1       -2.398   1.673   3.940  0.00  0.00    +0.292 HD
ENDBRANCH   6  15
BRANCH   3  17
ATOM     17  C   LIG    1        3.038  -1.004   3.310  0.00  0.00    -0.047 C 
BRANCH  17  18
ATOM     18  N   LIG    1        4.223  -0.128   3.258  0.00  0.00    +0.383 N 
ATOM     19  H   LIG    1        4.136   0.512   2.459  0.00  0.00    -0.085 HD
ATOM     20  H   LIG    1        4.281   0.415   4.127  0.00  0.00    -0.085 HD
BRANCH  18  21
ATOM     21  C   LIG    1        5.449  -0.933   3.104  0.00  0.00    -0.054 C 
BRANCH  21  22
ATOM     22  C   LIG    1        6.659   0.002   3.053  0.00  0.00    +0.137 C 
BRANCH  22  23
ATOM     23  O   LIG    1        6.797   0.672   4.308  0.00  0.00    -0.397 OA
ATOM     24  H   LIG    1        7.546   1.282   4.348  0.00  0.00    +0.209 HD
ENDBRANCH  22  23
ENDBRANCH  21  22
ENDBRANCH  18  21
ENDBRANCH  17  18
ENDBRANCH   3  17
TORSDOF 8
