REMARK  Name = ZINC02880812
REMARK                            x       y       z     vdW  Elec       q    Type
REMARK                         _______ _______ _______ _____ _____    ______ ____
ROOT
ATOM      1  C   LIG    1        2.755  -5.664   0.980  0.00  0.00    +0.128 A 
ATOM      2  C   LIG    1        2.180  -6.602   1.821  0.00  0.00    +0.046 A 
ATOM      3  C   LIG    1        2.403  -7.950   1.611  0.00  0.00    +0.004 A 
ATOM      4  C   LIG    1        3.201  -8.370   0.562  0.00  0.00    +0.001 A 
ATOM      5  C   LIG    1        3.780  -7.446  -0.284  0.00  0.00    +0.012 A 
ATOM      6  C   LIG    1        3.557  -6.085  -0.085  0.00  0.00    +0.024 A 
ENDROOT
BRANCH   6   7
ATOM      7  C   LIG    1        4.172  -5.089  -0.995  0.00  0.00    -0.014 A 
ATOM      8  C   LIG    1        3.391  -4.081  -1.558  0.00  0.00    +0.008 A 
ATOM      9  C   LIG    1        3.969  -3.155  -2.404  0.00  0.00    +0.001 A 
ATOM     10  C   LIG    1        5.319  -3.227  -2.693  0.00  0.00    +0.000 A 
ATOM     11  C   LIG    1        6.099  -4.226  -2.137  0.00  0.00    +0.001 A 
ATOM     12  C   LIG    1        5.533  -5.153  -1.286  0.00  0.00    +0.008 A 
ENDBRANCH   6   7
BRANCH   1  13
ATOM     13  O   LIG    1        2.537  -4.339   1.185  0.00  0.00    -0.493 OA
BRANCH  13  14
ATOM     14  C   LIG    1        1.707  -3.982   2.293  0.00  0.00    +0.210 C 
BRANCH  14  15
ATOM     15  C   LIG    1        1.577  -2.460   2.364  0.00  0.00    -0.041 C 
BRANCH  15  16
ATOM     16  N   LIG    1        0.867  -1.973   1.174  0.00  0.00    +0.383 N 
ATOM     17  H   LIG    1        1.384  -2.228   0.346  0.00  0.00    -0.086 HD
ATOM     18  H   LIG    1       -0.052  -2.388   1.138  0.00  0.00    -0.086 HD
BRANCH  16  19
ATOM     19  C   LIG    1        0.742  -0.511   1.242  0.00  0.00    -0.051 C 
BRANCH  19  21
ATOM     20  C   LIG    1       -0.019   1.526   0.010  0.00  0.00    +0.035 C 
ATOM     21  C   LIG    1        0.002  -0.004   0.002  0.00  0.00    +0.095 C 
BRANCH  21  22
ATOM     22  O   LIG    1       -1.339  -0.499   0.012  0.00  0.00    -0.394 OA
ATOM     23  H   LIG    1       -1.853  -0.225   0.784  0.00  0.00    +0.210 HD
ENDBRANCH  21  22
ENDBRANCH  19  21
ENDBRANCH  16  19
ENDBRANCH  15  16
ENDBRANCH  14  15
ENDBRANCH  13  14
ENDBRANCH   1  13
TORSDOF 8
