REMARK  Name = ZINC02570830
REMARK                            x       y       z     vdW  Elec       q    Type
REMARK                         _______ _______ _______ _____ _____    ______ ____
ROOT
ATOM      1  C   LIG    1        0.127   1.363  -0.213  0.00  0.00    +0.088 C 
ATOM      2  C   LIG    1        0.080  -0.141  -0.128  0.00  0.00    +0.135 A 
ATOM      3  N   LIG    1        0.041  -0.977  -1.134  0.00  0.00    -0.134 NA
ATOM      4  N   LIG    1        0.015  -2.189  -0.699  0.00  0.00    -0.132 NA
ATOM      5  C   LIG    1        0.041  -2.189   0.600  0.00  0.00    +0.158 A 
ATOM      6  C   LIG    1        0.047  -3.369   1.536  0.00  0.00    +0.189 C 
ATOM      7  N   LIG    1        1.258  -3.324   2.369  0.00  0.00    -0.376 N 
ATOM      8  H   LIG    1        1.909  -4.038   2.280  0.00  0.00    +0.160 HD
ATOM      9  C   LIG    1        1.495  -2.379   3.219  0.00  0.00    +0.054 C 
ATOM     10  C   LIG    1        0.686  -1.152   3.397  0.00  0.00    +0.031 A 
ATOM     11  C   LIG    1        0.478  -0.521   4.690  0.00  0.00    +0.035 A 
ATOM     12  C   LIG    1       -0.232   0.618   4.763  0.00  0.00    +0.058 A 
ATOM     13 BR   LIG    1       -0.653   1.646   6.293  0.00  0.00    -0.042 Br
ATOM     14  S   LIG    1       -0.679   0.924   3.064  0.00  0.00    -0.063 S 
ATOM     15  C   LIG    1        0.080  -0.499   2.326  0.00  0.00    +0.097 A 
ATOM     16  N   LIG    1        0.075  -0.885   1.004  0.00  0.00    -0.275 N 
ENDROOT
BRANCH   9  17
ATOM     17  C   LIG    1        2.682  -2.537   4.091  0.00  0.00    +0.017 A 
ATOM     18  C   LIG    1        2.727  -3.565   5.033  0.00  0.00    +0.011 A 
ATOM     19  C   LIG    1        3.834  -3.708   5.842  0.00  0.00    +0.001 A 
ATOM     20  C   LIG    1        4.901  -2.833   5.722  0.00  0.00    +0.001 A 
ATOM     21  C   LIG    1        4.863  -1.812   4.791  0.00  0.00    +0.020 A 
ATOM     22  C   LIG    1        3.762  -1.662   3.970  0.00  0.00    +0.050 A 
ATOM     23 CL   LIG    1        3.719  -0.384   2.796  0.00  0.00    -0.083 Cl
ENDBRANCH   9  17
TORSDOF 1
