REMARK  Name = ZINC02539856
REMARK                            x       y       z     vdW  Elec       q    Type
REMARK                         _______ _______ _______ _____ _____    ______ ____
ROOT
ATOM      1  C   LIG    1        2.757   5.048   0.127  0.00  0.00    +0.164 C 
ATOM      2  O   LIG    1        1.733   5.691   0.220  0.00  0.00    -0.292 OA
ENDROOT
BRANCH   1   3
ATOM      3  C   LIG    1        4.059   5.732   0.141  0.00  0.00    +0.019 A 
ATOM      4  C   LIG    1        5.243   4.994   0.039  0.00  0.00    +0.013 A 
ATOM      5  C   LIG    1        6.459   5.641   0.047  0.00  0.00    +0.022 A 
ATOM      6  C   LIG    1        6.513   7.021   0.168  0.00  0.00    +0.059 A 
ATOM      7 CL   LIG    1        8.050   7.827   0.185  0.00  0.00    -0.082 Cl
ATOM      8  C   LIG    1        5.344   7.760   0.276  0.00  0.00    +0.060 A 
ATOM      9 CL   LIG    1        5.423   9.487   0.427  0.00  0.00    -0.082 Cl
ATOM     10  C   LIG    1        4.120   7.125   0.263  0.00  0.00    +0.032 A 
ENDBRANCH   1   3
BRANCH   1  11
ATOM     11  C   LIG    1        2.696   3.548  -0.005  0.00  0.00    +0.094 C 
BRANCH  11  13
ATOM     12  C   LIG    1        0.522   3.639  -1.233  0.00  0.00    +0.019 C 
ATOM     13  C   LIG    1        1.235   3.094   0.007  0.00  0.00    +0.102 C 
BRANCH  13  14
ATOM     14  C   LIG    1        1.177   1.588  -0.001  0.00  0.00    +0.308 C 
ATOM     15  O   LIG    1        2.199   0.944  -0.014  0.00  0.00    -0.251 OA
BRANCH  14  16
ATOM     16  O   LIG    1       -0.011   0.963   0.007  0.00  0.00    -0.480 OA
ATOM     17  H   LIG    1       -0.804   1.462   0.018  0.00  0.00    +0.295 HD
ENDBRANCH  14  16
ENDBRANCH  13  14
ENDBRANCH  11  13
ENDBRANCH   1  11
TORSDOF 5
