REMARK  Name = ZINC02572833
REMARK                            x       y       z     vdW  Elec       q    Type
REMARK                         _______ _______ _______ _____ _____    ______ ____
ROOT
ATOM      1  C   LIG    1       -3.189   9.077  -1.018  0.00  0.00    +0.013 A 
ATOM      2  C   LIG    1       -3.457   7.756  -0.811  0.00  0.00    +0.095 A 
ATOM      3  N   LIG    1       -2.452   6.998  -1.329  0.00  0.00    -0.346 N 
ATOM      4  C   LIG    1       -1.491   7.805  -1.903  0.00  0.00    +0.050 A 
ATOM      5  C   LIG    1       -0.293   7.539  -2.557  0.00  0.00    +0.026 A 
ATOM      6  C   LIG    1        0.475   8.579  -3.036  0.00  0.00    +0.002 A 
ATOM      7  C   LIG    1        0.066   9.894  -2.871  0.00  0.00    +0.001 A 
ATOM      8  C   LIG    1       -1.118  10.178  -2.225  0.00  0.00    +0.010 A 
ATOM      9  C   LIG    1       -1.904   9.137  -1.737  0.00  0.00    +0.008 A 
ENDROOT
BRANCH   1  11
ATOM     10  C   LIG    1       -4.166  10.732   0.676  0.00  0.00    +0.059 C 
ATOM     11  C   LIG    1       -4.023  10.220  -0.608  0.00  0.00    +0.059 C 
ATOM     12  C   LIG    1       -4.872  11.057  -1.480  0.00  0.00    +0.252 C 
ATOM     13  N   LIG    1       -5.474  11.991  -0.724  0.00  0.00    -0.248 N 
ATOM     14  H   LIG    1       -6.086  12.664  -1.060  0.00  0.00    +0.158 HD
ATOM     15  O   LIG    1       -5.007  10.922  -2.679  0.00  0.00    -0.270 OA
ATOM     16  C   LIG    1       -5.104  11.867   0.562  0.00  0.00    +0.252 C 
ATOM     17  O   LIG    1       -5.479  12.572   1.478  0.00  0.00    -0.270 OA
BRANCH  10  23
ATOM     18  C   LIG    1       -5.700   8.251   4.341  0.00  0.00    +0.001 A 
ATOM     19  C   LIG    1       -4.704   8.021   5.279  0.00  0.00    +0.002 A 
ATOM     20  C   LIG    1       -3.428   8.504   5.080  0.00  0.00    +0.026 A 
ATOM     21  C   LIG    1       -3.132   9.228   3.930  0.00  0.00    +0.047 A 
ATOM     22  C   LIG    1       -4.143   9.465   2.985  0.00  0.00    +0.008 A 
ATOM     23  C   LIG    1       -3.514  10.242   1.902  0.00  0.00    +0.013 A 
ATOM     24  C   LIG    1       -2.211  10.423   2.261  0.00  0.00    +0.092 A 
ATOM     25  N   LIG    1       -1.979   9.825   3.462  0.00  0.00    -0.360 N 
ATOM     26  H   LIG    1       -1.125   9.818   3.922  0.00  0.00    +0.165 HD
ATOM     27  C   LIG    1       -5.427   8.966   3.196  0.00  0.00    +0.010 A 
ENDBRANCH  10  23
ENDBRANCH   1  11
BRANCH   3  28
ATOM     28  C   LIG    1       -2.400   5.535  -1.287  0.00  0.00    +0.120 C 
BRANCH  28  29
ATOM     29  C   LIG    1       -1.574   5.087  -0.080  0.00  0.00    +0.006 C 
BRANCH  29  30
ATOM     30  C   LIG    1       -1.520   3.559  -0.037  0.00  0.00    -0.070 C 
ATOM     31  N   LIG    1       -0.788   3.068  -1.221  0.00  0.00    +0.381 N 
ATOM     32  H   LIG    1       -1.257   3.402  -2.071  0.00  0.00    -0.086 HD
ATOM     33  H   LIG    1        0.173   3.429  -1.197  0.00  0.00    -0.086 HD
ATOM     34  C   LIG    1       -0.754   1.594  -1.231  0.00  0.00    -0.082 C 
ATOM     35  C   LIG    1       -0.013   1.086   0.008  0.00  0.00    -0.019 C 
ATOM     36  C   LIG    1       -0.731   1.580   1.267  0.00  0.00    -0.003 C 
ATOM     37  C   LIG    1       -0.801   3.110   1.237  0.00  0.00    -0.016 C 
ENDBRANCH  29  30
ENDBRANCH  28  29
ENDBRANCH   3  28
TORSDOF 5
