REMARK  Name = ZINC02556565
REMARK                            x       y       z     vdW  Elec       q    Type
REMARK                         _______ _______ _______ _____ _____    ______ ____
ROOT
ATOM      1  C   LIG    1        4.174   0.620   1.404  0.00  0.00    +0.189 C 
ENDROOT
BRANCH   1   3
ATOM      2  C   LIG    1        4.318   3.052   1.363  0.00  0.00    +0.401 C 
ATOM      3  N   LIG    1        3.849   1.937   1.957  0.00  0.00    -0.268 N 
ATOM      4  H   LIG    1        3.297   2.006   2.752  0.00  0.00    +0.153 HD
ATOM      5  O   LIG    1        5.010   2.965   0.367  0.00  0.00    -0.226 OA
BRANCH   2   6
ATOM      6  O   LIG    1        4.020   4.262   1.871  0.00  0.00    -0.445 OA
BRANCH   6   8
ATOM      7  C   LIG    1        4.041   5.439  -0.261  0.00  0.00    +0.055 C 
ATOM      8  C   LIG    1        4.559   5.419   1.179  0.00  0.00    +0.107 C 
ATOM      9  C   LIG    1        6.087   5.342   1.170  0.00  0.00    +0.055 C 
ATOM     10  C   LIG    1        4.117   6.695   1.898  0.00  0.00    +0.055 C 
ENDBRANCH   6   8
ENDBRANCH   2   6
ENDBRANCH   1   3
BRANCH   1  11
ATOM     11  C   LIG    1        5.669   0.430   1.402  0.00  0.00    +0.328 C 
ATOM     12  O   LIG    1        6.400   1.390   1.467  0.00  0.00    -0.249 OA
BRANCH  11  13
ATOM     13  O   LIG    1        6.189  -0.805   1.328  0.00  0.00    -0.459 OA
BRANCH  13  14
ATOM     14  C   LIG    1        7.637  -0.912   1.331  0.00  0.00    +0.267 C 
BRANCH  14  15
ATOM     15  C   LIG    1        8.033  -2.364   1.243  0.00  0.00    -0.010 A 
ATOM     16  C   LIG    1        8.213  -3.102   2.397  0.00  0.00    +0.007 A 
ATOM     17  C   LIG    1        8.572  -4.435   2.317  0.00  0.00    +0.000 A 
ATOM     18  C   LIG    1        8.761  -5.026   1.081  0.00  0.00    +0.000 A 
ATOM     19  C   LIG    1        8.587  -4.286  -0.073  0.00  0.00    +0.000 A 
ATOM     20  C   LIG    1        8.223  -2.955   0.008  0.00  0.00    +0.007 A 
ENDBRANCH  14  15
ENDBRANCH  13  14
ENDBRANCH  11  13
ENDBRANCH   1  11
BRANCH   1  21
ATOM     21  C   LIG    1        3.646   0.524  -0.029  0.00  0.00    +0.071 C 
BRANCH  21  22
ATOM     22  C   LIG    1        2.140   0.591  -0.015  0.00  0.00    -0.020 A 
ATOM     23  C   LIG    1        1.295  -0.452  -0.013  0.00  0.00    +0.087 A 
ATOM     24  N   LIG    1        0.002  -0.004   0.002  0.00  0.00    -0.360 N 
ATOM     25  C   LIG    1       -0.017   1.373   0.010  0.00  0.00    +0.047 A 
ATOM     26  C   LIG    1       -1.038   2.317   0.029  0.00  0.00    +0.026 A 
ATOM     27  C   LIG    1       -0.729   3.659   0.029  0.00  0.00    +0.002 A 
ATOM     28  C   LIG    1        0.593   4.082   0.019  0.00  0.00    +0.001 A 
ATOM     29  C   LIG    1        1.612   3.171   0.004  0.00  0.00    +0.010 A 
ATOM     30  H   LIG    1       -0.784  -0.572   0.006  0.00  0.00    +0.165 HD
ATOM     31  C   LIG    1        1.322   1.806  -0.001  0.00  0.00    +0.003 A 
ENDBRANCH  21  22
ENDBRANCH   1  21
TORSDOF 9
