REMARK  Name = ZINC02895827
REMARK                            x       y       z     vdW  Elec       q    Type
REMARK                         _______ _______ _______ _____ _____    ______ ____
ROOT
ATOM      1  C   LIG    1       -1.132  -2.168   0.177  0.00  0.00    +0.133 C 
ENDROOT
BRANCH   1   3
ATOM      2  C   LIG    1        0.008  -0.036  -0.203  0.00  0.00    +0.088 C 
ATOM      3  N   LIG    1       -1.154  -0.742  -0.158  0.00  0.00    -0.388 N 
ATOM      4  H   LIG    1       -2.110  -0.242  -0.372  0.00  0.00    +0.159 HD
BRANCH   2   7
ATOM      5  C   LIG    1        1.085   3.392  -0.975  0.00  0.00    -0.009 A 
ATOM      6  C   LIG    1        1.169   2.133  -0.539  0.00  0.00    +0.021 A 
ATOM      7  C   LIG    1        0.002   1.275  -0.630  0.00  0.00    +0.011 A 
ATOM      8  C   LIG    1       -1.185   1.911  -1.219  0.00  0.00    +0.051 A 
ATOM      9  S   LIG    1       -0.589   3.557  -1.559  0.00  0.00    -0.087 S 
BRANCH   5  11
ATOM     10  C   LIG    1        2.868   4.453  -2.332  0.00  0.00    +0.009 C 
ATOM     11  C   LIG    1        2.167   4.441  -0.972  0.00  0.00    +0.039 C 
ENDBRANCH   5  11
BRANCH   8  12
ATOM     12  S   LIG    1       -2.736   1.245  -1.504  0.00  0.00    -0.135 S 
ATOM     13  H   LIG    1       -2.756  -0.051  -1.091  0.00  0.00    +0.108 HD
ENDBRANCH   8  12
ENDBRANCH   2   7
ENDBRANCH   1   3
BRANCH   1  14
ATOM     14  C   LIG    1       -2.559  -2.719   0.159  0.00  0.00    +0.133 C 
BRANCH  14  15
ATOM     15  N   LIG    1       -2.537  -4.145   0.493  0.00  0.00    -0.388 N 
ATOM     16  H   LIG    1       -1.581  -4.645   0.708  0.00  0.00    +0.159 HD
ATOM     17  C   LIG    1       -3.699  -4.851   0.539  0.00  0.00    +0.088 C 
BRANCH  17  18
ATOM     18  C   LIG    1       -3.670  -6.215   0.739  0.00  0.00    +0.011 A 
ATOM     19  C   LIG    1       -4.870  -6.998   0.969  0.00  0.00    +0.021 A 
ATOM     20  C   LIG    1       -4.760  -8.315   1.154  0.00  0.00    -0.009 A 
ATOM     21  S   LIG    1       -3.014  -8.644   1.036  0.00  0.00    -0.087 S 
ATOM     22  C   LIG    1       -2.422  -6.990   0.729  0.00  0.00    +0.051 A 
BRANCH  20  23
ATOM     23  C   LIG    1       -5.868  -9.305   1.407  0.00  0.00    +0.039 C 
ATOM     24  C   LIG    1       -6.294  -9.942   0.083  0.00  0.00    +0.009 C 
ENDBRANCH  20  23
BRANCH  22  25
ATOM     25  S   LIG    1       -0.816  -6.447   0.486  0.00  0.00    -0.135 S 
ATOM     26  H   LIG    1        0.017  -7.165   0.509  0.00  0.00    +0.108 HD
ENDBRANCH  22  25
ENDBRANCH  17  18
ENDBRANCH  14  15
ENDBRANCH   1  14
TORSDOF 9
