REMARK  Name = ZINC02742665
REMARK                            x       y       z     vdW  Elec       q    Type
REMARK                         _______ _______ _______ _____ _____    ______ ____
ROOT
ATOM      1  C   LIG    1        1.023   1.962   0.576  0.00  0.00    +0.128 A 
ATOM      2  C   LIG    1       -0.215   1.382   0.801  0.00  0.00    +0.047 A 
ATOM      3  C   LIG    1       -1.366   2.139   0.690  0.00  0.00    +0.019 A 
ATOM      4  C   LIG    1       -1.293   3.484   0.364  0.00  0.00    +0.019 A 
ATOM      5 BR   LIG    1       -2.878   4.506   0.224  0.00  0.00    -0.050 Br
ATOM      6  C   LIG    1       -0.070   4.079   0.137  0.00  0.00    +0.026 A 
ATOM      7  C   LIG    1        1.103   3.323   0.240  0.00  0.00    +0.019 A 
ENDROOT
BRANCH   7   8
ATOM      8  C   LIG    1        2.409   3.949  -0.001  0.00  0.00    +0.032 C 
ATOM      9  C   LIG    1        2.483   5.127  -0.670  0.00  0.00    +0.077 C 
ATOM     10  C   LIG    1        3.647   6.007  -0.901  0.00  0.00    +0.256 C 
ATOM     11  N   LIG    1        3.428   7.109  -1.598  0.00  0.00    -0.270 N 
ATOM     12  H   LIG    1        4.165   7.714  -1.772  0.00  0.00    +0.156 HD
ATOM     13  C   LIG    1        2.202   7.411  -2.072  0.00  0.00    +0.118 C 
ATOM     14  S   LIG    1        1.722   8.777  -2.986  0.00  0.00    -0.027 S 
ATOM     15  O   LIG    1        4.752   5.731  -0.472  0.00  0.00    -0.269 OA
ATOM     16  S   LIG    1        1.202   6.037  -1.522  0.00  0.00    -0.061 S 
ENDBRANCH   7   8
BRANCH   1  17
ATOM     17  O   LIG    1        2.153   1.218   0.681  0.00  0.00    -0.487 OA
BRANCH  17  18
ATOM     18  C   LIG    1        1.993  -0.160   1.026  0.00  0.00    +0.264 C 
BRANCH  18  22
ATOM     19  C   LIG    1        5.827  -2.033   1.222  0.00  0.00    +0.000 A 
ATOM     20  C   LIG    1        5.286  -1.448   2.351  0.00  0.00    +0.000 A 
ATOM     21  C   LIG    1        4.045  -0.841   2.288  0.00  0.00    +0.007 A 
ATOM     22  C   LIG    1        3.346  -0.821   1.095  0.00  0.00    -0.010 A 
ATOM     23  C   LIG    1        3.885  -1.411  -0.032  0.00  0.00    +0.007 A 
ATOM     24  C   LIG    1        5.128  -2.012   0.030  0.00  0.00    +0.000 A 
ENDBRANCH  18  22
ENDBRANCH  17  18
ENDBRANCH   1  17
TORSDOF 4
