REMARK  Name = ZINC02651404
REMARK                            x       y       z     vdW  Elec       q    Type
REMARK                         _______ _______ _______ _____ _____    ______ ____
ROOT
ATOM      1  N   LIG    1        3.705  -2.043  -0.054  0.00  0.00    -0.259 N 
ATOM      2  H   LIG    1        2.871  -2.537  -0.047  0.00  0.00    +0.157 HD
ATOM      3  C   LIG    1        3.690  -0.695  -0.046  0.00  0.00    +0.250 C 
ATOM      4  O   LIG    1        4.736  -0.075  -0.055  0.00  0.00    -0.270 OA
ENDROOT
BRANCH   3   5
ATOM      5  C   LIG    1        2.404   0.028  -0.026  0.00  0.00    +0.041 A 
ATOM      6  C   LIG    1        1.201  -0.682  -0.016  0.00  0.00    +0.017 A 
ATOM      7  C   LIG    1        0.002  -0.004   0.002  0.00  0.00    +0.050 A 
ATOM      8  C   LIG    1       -0.017   1.386   0.010  0.00  0.00    +0.162 A 
ATOM      9  C   LIG    1        1.179   2.100   0.002  0.00  0.00    +0.163 A 
ATOM     10  O   LIG    1        1.177   3.461   0.018  0.00  0.00    -0.485 OA
ATOM     11  C   LIG    1       -0.049   4.107  -0.339  0.00  0.00    +0.270 C 
ATOM     12  C   LIG    1       -1.194   3.412   0.409  0.00  0.00    +0.270 C 
ATOM     13  O   LIG    1       -1.212   2.034   0.019  0.00  0.00    -0.485 OA
ATOM     14  C   LIG    1        2.386   1.425  -0.017  0.00  0.00    +0.062 A 
ENDBRANCH   3   5
BRANCH   1  18
ATOM     15  C   LIG    1        7.033  -4.339  -0.108  0.00  0.00    +0.107 A 
ATOM     16  N   LIG    1        7.157  -3.027  -0.101  0.00  0.00    -0.144 NA
ATOM     17  N   LIG    1        6.157  -2.258  -0.084  0.00  0.00    -0.126 NA
ATOM     18  C   LIG    1        4.916  -2.724  -0.072  0.00  0.00    +0.188 A 
ATOM     19  S   LIG    1        5.248  -4.484  -0.080  0.00  0.00    -0.035 S 
BRANCH  15  20
ATOM     20  C   LIG    1        8.091  -5.412  -0.126  0.00  0.00    +0.046 C 
BRANCH  20  22
ATOM     21  C   LIG    1        9.942  -6.422  -1.468  0.00  0.00    +0.004 C 
ATOM     22  C   LIG    1        8.948  -5.261  -1.385  0.00  0.00    +0.007 C 
ENDBRANCH  20  22
BRANCH  20  23
ATOM     23  C   LIG    1        8.977  -5.276   1.113  0.00  0.00    +0.007 C 
ATOM     24  C   LIG    1        8.145  -5.550   2.368  0.00  0.00    +0.004 C 
ENDBRANCH  20  23
ENDBRANCH  15  20
ENDBRANCH   1  18
TORSDOF 5
