REMARK  Name = ZINC03120342
REMARK                            x       y       z     vdW  Elec       q    Type
REMARK                         _______ _______ _______ _____ _____    ______ ____
ROOT
ATOM      1  N   LIG    1       -1.156  -0.694   0.009  0.00  0.00    -0.283 N 
ATOM      2  H   LIG    1       -1.999  -0.225   0.111  0.00  0.00    +0.155 HD
ATOM      3  C   LIG    1        0.001  -0.002  -0.022  0.00  0.00    +0.227 C 
ATOM      4  O   LIG    1        1.060  -0.593  -0.050  0.00  0.00    -0.275 OA
ENDROOT
BRANCH   1   9
ATOM      5  C   LIG    1       -2.325  -2.810  -0.196  0.00  0.00    +0.116 A 
ATOM      6  C   LIG    1       -2.272  -4.159  -0.310  0.00  0.00    +0.074 A 
ATOM      7  S   LIG    1       -0.514  -4.467  -0.277  0.00  0.00    -0.101 S 
ATOM      8  C   LIG    1        0.037  -2.776  -0.121  0.00  0.00    +0.070 A 
ATOM      9  C   LIG    1       -1.140  -2.096  -0.104  0.00  0.00    +0.066 A 
BRANCH   5  10
ATOM     10  S   LIG    1       -3.876  -1.975  -0.172  0.00  0.00    -0.001 S 
ATOM     11  O   LIG    1       -4.845  -3.005  -0.308  0.00  0.00    -0.169 OA
ATOM     12  O   LIG    1       -3.756  -0.958  -1.157  0.00  0.00    -0.169 OA
BRANCH  10  13
ATOM     13  C   LIG    1       -3.981  -1.234   1.481  0.00  0.00    +0.171 C 
BRANCH  13  15
ATOM     14  C   LIG    1       -5.390   0.150   3.010  0.00  0.00    +0.005 C 
ATOM     15  C   LIG    1       -5.302  -0.474   1.617  0.00  0.00    +0.020 C 
ENDBRANCH  13  15
ENDBRANCH  10  13
ENDBRANCH   5  10
ENDBRANCH   1   9
BRANCH   3  16
ATOM     16  C   LIG    1       -0.023   1.505  -0.023  0.00  0.00    +0.165 C 
BRANCH  16  17
ATOM     17  S   LIG    1        1.678   2.135  -0.069  0.00  0.00    -0.150 S 
BRANCH  17  18
ATOM     18  C   LIG    1        1.477   3.938  -0.065  0.00  0.00    +0.092 C 
BRANCH  18  19
ATOM     19  C   LIG    1        2.854   4.605  -0.103  0.00  0.00    +0.182 C 
BRANCH  19  20
ATOM     20  S   LIG    1        2.653   6.408  -0.099  0.00  0.00    -0.002 S 
ATOM     21  O   LIG    1        2.130   6.839   1.150  0.00  0.00    -0.169 OA
ATOM     22  O   LIG    1        2.064   6.837  -1.319  0.00  0.00    -0.169 OA
BRANCH  20  23
ATOM     23  C   LIG    1        4.295   7.046  -0.144  0.00  0.00    +0.088 A 
ATOM     24  C   LIG    1        4.969   7.303   1.036  0.00  0.00    +0.028 A 
ATOM     25  C   LIG    1        6.259   7.798   1.002  0.00  0.00    +0.022 A 
ATOM     26  C   LIG    1        6.871   8.047  -0.214  0.00  0.00    +0.041 A 
ATOM     27 CL   LIG    1        8.489   8.676  -0.258  0.00  0.00    -0.084 Cl
ATOM     28  C   LIG    1        6.194   7.796  -1.394  0.00  0.00    +0.022 A 
ATOM     29  C   LIG    1        4.907   7.295  -1.358  0.00  0.00    +0.028 A 
ENDBRANCH  20  23
ENDBRANCH  19  20
ENDBRANCH  18  19
ENDBRANCH  17  18
ENDBRANCH  16  17
ENDBRANCH   3  16
TORSDOF 10
