REMARK  Name = ZINC02599104
REMARK                            x       y       z     vdW  Elec       q    Type
REMARK                         _______ _______ _______ _____ _____    ______ ____
ROOT
ATOM      1  C   LIG    1        0.000   1.080   2.488  0.00  0.00    -0.024 A 
ATOM      2  C   LIG    1       -0.285  -0.028   3.190  0.00  0.00    +0.087 A 
ATOM      3  N   LIG    1        0.592  -0.158   4.232  0.00  0.00    -0.360 N 
ATOM      4  C   LIG    1        1.487   0.890   4.225  0.00  0.00    +0.047 A 
ATOM      5  C   LIG    1        2.559   1.237   5.040  0.00  0.00    +0.029 A 
ATOM      6  C   LIG    1        3.285   2.377   4.773  0.00  0.00    +0.040 A 
ATOM      7  C   LIG    1        2.958   3.189   3.693  0.00  0.00    +0.124 A 
ATOM      8  F   LIG    1        3.682   4.302   3.446  0.00  0.00    -0.205 F 
ATOM      9  C   LIG    1        1.900   2.863   2.873  0.00  0.00    +0.048 A 
ATOM     10  H   LIG    1        0.586  -0.881   4.879  0.00  0.00    +0.165 HD
ATOM     11  C   LIG    1        1.158   1.708   3.129  0.00  0.00    +0.005 A 
ENDROOT
BRANCH   1  12
ATOM     12  C   LIG    1       -0.729   1.579   1.267  0.00  0.00    +0.018 C 
BRANCH  12  13
ATOM     13  C   LIG    1       -0.013   1.086   0.008  0.00  0.00    -0.075 C 
BRANCH  13  15
ATOM     14  C   LIG    1       -0.640   3.036  -1.283  0.00  0.00    -0.097 C 
ATOM     15  N   LIG    1       -0.751   1.565  -1.179  0.00  0.00    +0.376 N 
ATOM     16  H   LIG    1       -1.741   1.312  -1.081  0.00  0.00    -0.083 HD
ATOM     17  C   LIG    1       -0.211   0.930  -2.400  0.00  0.00    -0.097 C 
ENDBRANCH  13  15
ENDBRANCH  12  13
ENDBRANCH   1  12
TORSDOF 3
