REMARK  Name = ZINC03581087
REMARK                            x       y       z     vdW  Elec       q    Type
REMARK                         _______ _______ _______ _____ _____    ______ ____
ROOT
ATOM      1  C   LIG    1       -2.174   1.261   1.634  0.00  0.00    +0.190 C 
ENDROOT
BRANCH   1   2
ATOM      2  N   LIG    1       -0.872   1.871   1.353  0.00  0.00    -0.166 NA
ATOM      3  H   LIG    1       -0.510   2.541   1.955  0.00  0.00    +0.150 HD
BRANCH   2   4
ATOM      4  S   LIG    1       -0.017   1.417   0.010  0.00  0.00    +0.093 S 
ATOM      5  O   LIG    1        1.172   2.195   0.003  0.00  0.00    -0.142 OA
ATOM      6  O   LIG    1        0.002  -0.004   0.002  0.00  0.00    -0.142 OA
BRANCH   4   7
ATOM      7  N   LIG    1       -0.897   1.885  -1.312  0.00  0.00    -0.193 NA
ATOM      8  H   LIG    1       -1.110   2.822  -1.446  0.00  0.00    +0.145 HD
ATOM      9  H   LIG    1       -1.201   1.223  -1.952  0.00  0.00    +0.145 HD
ENDBRANCH   4   7
ENDBRANCH   2   4
ENDBRANCH   1   2
BRANCH   1  10
ATOM     10  C   LIG    1       -3.269   2.138   1.083  0.00  0.00    +0.324 C 
ATOM     11  O   LIG    1       -2.990   3.167   0.514  0.00  0.00    -0.249 OA
BRANCH  10  12
ATOM     12  O   LIG    1       -4.554   1.776   1.224  0.00  0.00    -0.479 OA
ATOM     13  H   LIG    1       -4.770   0.979   1.665  0.00  0.00    +0.295 HD
ENDBRANCH  10  12
ENDBRANCH   1  10
BRANCH   1  14
ATOM     14  C   LIG    1       -2.353   1.113   3.146  0.00  0.00    +0.067 C 
BRANCH  14  18
ATOM     15  C   LIG    1        0.536  -1.647   4.657  0.00  0.00    +0.000 A 
ATOM     16  C   LIG    1        0.836  -0.299   4.592  0.00  0.00    +0.000 A 
ATOM     17  C   LIG    1       -0.098   0.594   4.103  0.00  0.00    +0.004 A 
ATOM     18  C   LIG    1       -1.333   0.139   3.679  0.00  0.00    -0.045 A 
ATOM     19  C   LIG    1       -1.635  -1.208   3.750  0.00  0.00    +0.004 A 
ATOM     20  C   LIG    1       -0.699  -2.102   4.234  0.00  0.00    +0.000 A 
ENDBRANCH  14  18
ENDBRANCH   1  14
TORSDOF 7
