REMARK  Name = ZINC03137566
REMARK                            x       y       z     vdW  Elec       q    Type
REMARK                         _______ _______ _______ _____ _____    ______ ____
ROOT
ATOM      1  C   LIG    1        0.718  -0.497  -1.257  0.00  0.00    +0.150 C 
ATOM      2  C   LIG    1        2.178  -0.095  -1.158  0.00  0.00    +0.240 C 
ATOM      3  N   LIG    1        2.671   0.683  -2.147  0.00  0.00    -0.241 N 
ATOM      4  H   LIG    1        3.600   0.960  -2.115  0.00  0.00    +0.159 HD
ATOM      5  C   LIG    1        1.892   1.088  -3.186  0.00  0.00    +0.278 C 
ATOM      6  N   LIG    1        0.627   0.781  -3.337  0.00  0.00    -0.130 NA
ATOM      7  O   LIG    1        2.873  -0.456  -0.232  0.00  0.00    -0.274 OA
ATOM      8  C   LIG    1       -0.039   0.021  -2.465  0.00  0.00    +0.260 C 
ATOM      9  O   LIG    1       -1.212  -0.247  -2.633  0.00  0.00    -0.272 OA
ENDROOT
BRANCH   1  10
ATOM     10  C   LIG    1        0.651  -2.003  -1.272  0.00  0.00    -0.024 A 
ATOM     11  C   LIG    1        0.008  -2.676  -0.249  0.00  0.00    +0.005 A 
ATOM     12  C   LIG    1       -0.053  -4.057  -0.263  0.00  0.00    +0.000 A 
ATOM     13  C   LIG    1        0.527  -4.765  -1.299  0.00  0.00    +0.000 A 
ATOM     14  C   LIG    1        1.168  -4.091  -2.321  0.00  0.00    +0.000 A 
ATOM     15  C   LIG    1        1.226  -2.710  -2.310  0.00  0.00    +0.005 A 
ENDBRANCH   1  10
BRANCH   1  17
ATOM     16  C   LIG    1       -0.019   1.526   0.010  0.00  0.00    +0.006 C 
ATOM     17  C   LIG    1        0.002  -0.004   0.002  0.00  0.00    +0.027 C 
ENDBRANCH   1  17
BRANCH   5  18
ATOM     18  O   LIG    1        2.462   1.861  -4.127  0.00  0.00    -0.483 OA
ATOM     19  H   LIG    1        3.365   2.101  -4.053  0.00  0.00    +0.295 HD
ENDBRANCH   5  18
TORSDOF 3
