REMARK  Name = ZINC02465914
REMARK                            x       y       z     vdW  Elec       q    Type
REMARK                         _______ _______ _______ _____ _____    ______ ____
ROOT
ATOM      1  C   LIG    1        5.260   0.068  -2.074  0.00  0.00    +0.270 C 
ATOM      2  N   LIG    1        6.522   0.045  -2.547  0.00  0.00    -0.278 N 
ATOM      3  H   LIG    1        6.687  -0.170  -3.478  0.00  0.00    +0.155 HD
ATOM      4  O   LIG    1        5.053   0.338  -0.907  0.00  0.00    -0.268 OA
ENDROOT
BRANCH   1  10
ATOM      5  C   LIG    1        0.718  -0.497  -1.257  0.00  0.00    -0.001 C 
ATOM      6  C   LIG    1       -0.022   0.010  -2.497  0.00  0.00    +0.012 C 
ATOM      7  C   LIG    1        0.538  -0.683  -3.745  0.00  0.00    +0.078 C 
ATOM      8  C   LIG    1        2.042  -0.568  -3.720  0.00  0.00    +0.141 A 
ATOM      9  C   LIG    1        2.759  -0.249  -2.622  0.00  0.00    +0.027 A 
ATOM     10  C   LIG    1        4.124  -0.236  -2.977  0.00  0.00    +0.171 A 
ATOM     11  N   LIG    1        4.207  -0.540  -4.252  0.00  0.00    -0.073 NA
ATOM     12  O   LIG    1        2.892  -0.754  -4.735  0.00  0.00    -0.359 OA
ATOM     13  C   LIG    1        2.157   0.034  -1.268  0.00  0.00    +0.045 C 
BRANCH   5  15
ATOM     14  C   LIG    1       -0.019   1.526   0.010  0.00  0.00    +0.011 C 
ATOM     15  C   LIG    1        0.002  -0.004   0.002  0.00  0.00    -0.035 C 
ATOM     16  C   LIG    1       -1.433  -0.534   0.013  0.00  0.00    +0.011 C 
ATOM     17  C   LIG    1        0.742  -0.511   1.242  0.00  0.00    +0.011 C 
ENDBRANCH   5  15
ENDBRANCH   1  10
BRANCH   2  18
ATOM     18  C   LIG    1        7.599   0.334  -1.690  0.00  0.00    +0.072 A 
ATOM     19  C   LIG    1        7.509   0.653  -0.327  0.00  0.00    +0.157 A 
ATOM     20  N   LIG    1        8.718   0.856   0.129  0.00  0.00    -0.177 NA
ATOM     21  N   LIG    1        9.624   0.673  -0.923  0.00  0.00    -0.265 N 
ATOM     22  C   LIG    1        8.913   0.346  -2.034  0.00  0.00    +0.132 A 
BRANCH  21  23
ATOM     23  C   LIG    1       11.081   0.805  -0.840  0.00  0.00    +0.178 C 
BRANCH  23  24
ATOM     24  C   LIG    1       11.431   2.163  -0.290  0.00  0.00    -0.026 A 
ATOM     25  C   LIG    1       11.610   3.232  -1.149  0.00  0.00    +0.008 A 
ATOM     26  C   LIG    1       11.931   4.478  -0.646  0.00  0.00    +0.038 A 
ATOM     27  C   LIG    1       12.074   4.657   0.719  0.00  0.00    +0.123 A 
ATOM     28  F   LIG    1       12.388   5.875   1.212  0.00  0.00    -0.205 F 
ATOM     29  C   LIG    1       11.895   3.586   1.579  0.00  0.00    +0.038 A 
ATOM     30  C   LIG    1       11.569   2.342   1.074  0.00  0.00    +0.008 A 
ENDBRANCH  23  24
ENDBRANCH  21  23
ENDBRANCH   2  18
TORSDOF 5
