REMARK  Name = ZINC03626883
REMARK                            x       y       z     vdW  Elec       q    Type
REMARK                         _______ _______ _______ _____ _____    ______ ____
ROOT
ATOM      1  C   LIG    1        0.431   3.889  -0.393  0.00  0.00    +0.203 C 
ATOM      2  C   LIG    1        0.867   2.586   0.218  0.00  0.00    +0.041 C 
ATOM      3  C   LIG    1       -0.198   1.743   0.145  0.00  0.00    +0.027 C 
ATOM      4  N   LIG    1       -1.266   2.346  -0.440  0.00  0.00    -0.242 N 
ATOM      5  C   LIG    1       -0.124   0.326   0.678  0.00  0.00    +0.058 C 
ATOM      6  C   LIG    1        0.923   0.292   1.797  0.00  0.00    -0.023 C 
ATOM      7  C   LIG    1        1.092  -1.147   2.289  0.00  0.00    +0.011 C 
ATOM      8  C   LIG    1        0.452   1.169   2.959  0.00  0.00    +0.011 C 
ATOM      9  C   LIG    1        2.266   0.812   1.283  0.00  0.00    +0.086 C 
ATOM     10  C   LIG    1        2.105   2.227   0.772  0.00  0.00    +0.163 C 
ATOM     11  O   LIG    1        3.017   3.027   0.840  0.00  0.00    -0.292 OA
ATOM     12  C   LIG    1       -1.006   3.618  -0.802  0.00  0.00    +0.248 C 
ATOM     13  O   LIG    1       -1.767   4.392  -1.343  0.00  0.00    -0.273 OA
ENDROOT
BRANCH   1  16
ATOM     14  C   LIG    1        0.587   2.232  -3.025  0.00  0.00    +0.065 C 
ATOM     15  C   LIG    1        1.342   3.504  -2.737  0.00  0.00    +0.040 A 
ATOM     16  C   LIG    1        1.274   4.221  -1.597  0.00  0.00    +0.067 A 
ATOM     17  C   LIG    1        2.127   5.341  -1.731  0.00  0.00    +0.277 A 
ATOM     18  N   LIG    1        2.702   5.274  -2.949  0.00  0.00    -0.219 N 
ATOM     19  O   LIG    1        2.311   6.209  -0.896  0.00  0.00    -0.265 OA
ATOM     20  N   LIG    1        2.212   4.126  -3.587  0.00  0.00    -0.294 N 
ATOM     21  H   LIG    1        2.450   3.826  -4.479  0.00  0.00    +0.187 HD
BRANCH  18  22
ATOM     22  C   LIG    1        3.617   6.187  -3.481  0.00  0.00    +0.067 A 
ATOM     23  C   LIG    1        4.014   7.290  -2.736  0.00  0.00    +0.028 A 
ATOM     24  C   LIG    1        4.922   8.187  -3.262  0.00  0.00    +0.002 A 
ATOM     25  C   LIG    1        5.429   7.994  -4.535  0.00  0.00    +0.000 A 
ATOM     26  C   LIG    1        5.032   6.900  -5.281  0.00  0.00    +0.002 A 
ATOM     27  C   LIG    1        4.128   5.996  -4.759  0.00  0.00    +0.028 A 
ENDBRANCH  18  22
ENDBRANCH   1  16
BRANCH   4  28
ATOM     28  C   LIG    1       -2.501   1.715  -0.648  0.00  0.00    +0.041 A 
ATOM     29  C   LIG    1       -2.605   0.679  -1.566  0.00  0.00    +0.027 A 
ATOM     30  C   LIG    1       -3.820   0.054  -1.766  0.00  0.00    +0.047 A 
ATOM     31  C   LIG    1       -4.939   0.468  -1.057  0.00  0.00    +0.120 A 
ATOM     32  C   LIG    1       -4.836   1.507  -0.143  0.00  0.00    +0.047 A 
ATOM     33  C   LIG    1       -3.621   2.129   0.061  0.00  0.00    +0.027 A 
BRANCH  31  34
ATOM     34  O   LIG    1       -6.136  -0.145  -1.258  0.00  0.00    -0.495 OA
ATOM     35  C   LIG    1       -6.169  -1.207  -2.213  0.00  0.00    +0.277 C 
ENDBRANCH  31  34
ENDBRANCH   4  28
BRANCH   1  36
ATOM     36  C   LIG    1        0.494   5.017   0.639  0.00  0.00    +0.412 C 
ATOM     37  F   LIG    1       -0.351   4.715   1.713  0.00  0.00    -0.169 F 
ATOM     38  F   LIG    1        0.084   6.216   0.046  0.00  0.00    -0.169 F 
ATOM     39  F   LIG    1        1.808   5.151   1.103  0.00  0.00    -0.169 F 
ENDBRANCH   1  36
TORSDOF 5
