REMARK  Name = ZINC02568241
REMARK                            x       y       z     vdW  Elec       q    Type
REMARK                         _______ _______ _______ _____ _____    ______ ____
ROOT
ATOM      1  N   LIG    1       -1.727  -1.016  -1.368  0.00  0.00    -0.324 N 
ATOM      2  H   LIG    1       -1.192  -0.690  -2.109  0.00  0.00    +0.148 HD
ENDROOT
BRANCH   1   3
ATOM      3  C   LIG    1       -2.894  -1.706  -1.613  0.00  0.00    +0.130 A 
ATOM      4  C   LIG    1       -3.328  -1.956  -2.938  0.00  0.00    +0.041 A 
ATOM      5  C   LIG    1       -2.603  -1.521  -4.053  0.00  0.00    +0.033 A 
ATOM      6  C   LIG    1       -3.071  -1.792  -5.306  0.00  0.00    +0.042 A 
ATOM      7 CL   LIG    1       -2.172  -1.252  -6.690  0.00  0.00    -0.084 Cl
ATOM      8  C   LIG    1       -4.259  -2.495  -5.489  0.00  0.00    +0.022 A 
ATOM      9  C   LIG    1       -4.988  -2.932  -4.423  0.00  0.00    +0.030 A 
ATOM     10  C   LIG    1       -4.536  -2.671  -3.122  0.00  0.00    +0.076 A 
ATOM     11  N   LIG    1       -5.215  -3.080  -2.040  0.00  0.00    -0.235 NA
ATOM     12  C   LIG    1       -4.766  -2.820  -0.835  0.00  0.00    +0.223 A 
ATOM     13  N   LIG    1       -3.639  -2.160  -0.614  0.00  0.00    -0.220 NA
ENDBRANCH   1   3
BRANCH   1  14
ATOM     14  C   LIG    1       -1.294  -0.774   0.010  0.00  0.00    +0.138 C 
BRANCH  14  23
ATOM     15  C   LIG    1       -0.017   1.378   0.010  0.00  0.00    +0.009 A 
ATOM     16  C   LIG    1        1.170   2.088   0.002  0.00  0.00    +0.050 A 
ATOM     17  C   LIG    1        2.380   1.416  -0.013  0.00  0.00    +0.166 A 
ATOM     18  C   LIG    1        2.399   0.023  -0.021  0.00  0.00    +0.167 A 
ATOM     19  O   LIG    1        3.698  -0.395  -0.036  0.00  0.00    -0.453 OA
ATOM     20  C   LIG    1        4.466   0.750  -0.450  0.00  0.00    +0.466 C 
ATOM     21  C   LIG    1        1.207  -0.682  -0.014  0.00  0.00    +0.054 A 
ATOM     22  O   LIG    1        3.668   1.870  -0.024  0.00  0.00    -0.453 OA
ATOM     23  C   LIG    1        0.002  -0.004   0.002  0.00  0.00    -0.027 A 
ENDBRANCH  14  23
ENDBRANCH   1  14
TORSDOF 3
