REMARK  Name = ZINC02529848
REMARK                            x       y       z     vdW  Elec       q    Type
REMARK                         _______ _______ _______ _____ _____    ______ ____
ROOT
ATOM      1  N   LIG    1       -2.426   1.041   0.020  0.00  0.00    -0.333 N 
ATOM      2  C   LIG    1       -2.483   0.110   1.155  0.00  0.00    +0.086 C 
ATOM      3  C   LIG    1       -3.775  -0.707   1.077  0.00  0.00    -0.063 C 
ATOM      4  N   LIG    1       -4.936   0.204   1.094  0.00  0.00    +0.381 N 
ATOM      5  H   LIG    1       -5.800  -0.347   1.034  0.00  0.00    -0.086 HD
ATOM      6  H   LIG    1       -4.933   0.741   1.970  0.00  0.00    -0.086 HD
ATOM      7  C   LIG    1       -4.871   1.135  -0.048  0.00  0.00    -0.063 C 
ATOM      8  C   LIG    1       -3.579   1.952   0.030  0.00  0.00    +0.086 C 
ENDROOT
BRANCH   1  11
ATOM      9  C   LIG    1        1.174   1.783   0.000  0.00  0.00    +0.005 A 
ATOM     10  C   LIG    1       -0.013   1.076   0.008  0.00  0.00    +0.023 A 
ATOM     11  C   LIG    1       -1.225   1.754   0.017  0.00  0.00    +0.032 A 
ATOM     12  C   LIG    1       -1.240   3.143   0.029  0.00  0.00    +0.061 A 
ATOM     13  C   LIG    1       -0.049   3.846   0.022  0.00  0.00    +0.125 A 
ATOM     14  F   LIG    1       -0.062   5.197   0.029  0.00  0.00    -0.205 F 
ATOM     15  C   LIG    1        1.157   3.165   0.007  0.00  0.00    +0.038 A 
ENDBRANCH   1  11
TORSDOF 1
