REMARK  Name = ZINC02541690
REMARK                            x       y       z     vdW  Elec       q    Type
REMARK                         _______ _______ _______ _____ _____    ______ ____
ROOT
ATOM      1  C   LIG    1        3.882  -6.235   0.069  0.00  0.00    +0.012 A 
ATOM      2  C   LIG    1        3.190  -7.068   0.885  0.00  0.00    +0.097 A 
ATOM      3  N   LIG    1        3.531  -8.366   0.613  0.00  0.00    -0.328 N 
ATOM      4  C   LIG    1        4.459  -8.412  -0.392  0.00  0.00    +0.147 A 
ATOM      5  N   LIG    1        5.102  -9.398  -1.016  0.00  0.00    -0.218 NA
ATOM      6  C   LIG    1        5.956  -9.137  -1.982  0.00  0.00    +0.225 A 
ATOM      7  N   LIG    1        6.231  -7.908  -2.379  0.00  0.00    -0.220 NA
ATOM      8  C   LIG    1        5.642  -6.858  -1.814  0.00  0.00    +0.129 A 
ATOM      9  C   LIG    1        4.720  -7.087  -0.784  0.00  0.00    +0.066 A 
ENDROOT
BRANCH   1  13
ATOM     10  C   LIG    1        3.657  -1.988  -0.011  0.00  0.00    +0.128 A 
ATOM     11  C   LIG    1        2.493  -2.744  -0.046  0.00  0.00    +0.047 A 
ATOM     12  C   LIG    1        2.563  -4.122  -0.021  0.00  0.00    +0.012 A 
ATOM     13  C   LIG    1        3.804  -4.755   0.041  0.00  0.00    -0.015 A 
ATOM     14  C   LIG    1        4.971  -3.993   0.075  0.00  0.00    +0.012 A 
ATOM     15  C   LIG    1        4.895  -2.616   0.044  0.00  0.00    +0.047 A 
BRANCH  10  16
ATOM     16  O   LIG    1        3.586  -0.632  -0.037  0.00  0.00    -0.456 OA
BRANCH  16  20
ATOM     17  C   LIG    1        3.337   1.363   3.565  0.00  0.00    +0.000 A 
ATOM     18  C   LIG    1        3.419  -0.017   3.545  0.00  0.00    +0.004 A 
ATOM     19  C   LIG    1        3.502  -0.687   2.340  0.00  0.00    +0.046 A 
ATOM     20  C   LIG    1        3.503   0.025   1.149  0.00  0.00    +0.128 A 
ATOM     21  C   LIG    1        3.420   1.410   1.173  0.00  0.00    +0.046 A 
ATOM     22  C   LIG    1        3.337   2.076   2.380  0.00  0.00    +0.004 A 
ENDBRANCH  16  20
ENDBRANCH  10  16
ENDBRANCH   1  13
BRANCH   3  23
ATOM     23  C   LIG    1        2.982  -9.537   1.299  0.00  0.00    +0.089 C 
ATOM     24  C   LIG    1        1.444  -9.553   1.170  0.00  0.00    +0.025 C 
ATOM     25  C   LIG    1        0.954 -10.091   2.537  0.00  0.00    +0.002 C 
ATOM     26  C   LIG    1        1.938  -9.434   3.536  0.00  0.00    +0.002 C 
ATOM     27  C   LIG    1        3.296  -9.462   2.804  0.00  0.00    +0.025 C 
ENDBRANCH   3  23
BRANCH   8  28
ATOM     28  N   LIG    1        5.933  -5.572  -2.232  0.00  0.00    -0.343 N 
ATOM     29  H   LIG    1        6.574  -5.427  -2.946  0.00  0.00    +0.144 HD
ATOM     30  H   LIG    1        5.496  -4.815  -1.812  0.00  0.00    +0.144 HD
ENDBRANCH   8  28
TORSDOF 5
