REMARK  Name = ZINC02560264
REMARK                            x       y       z     vdW  Elec       q    Type
REMARK                         _______ _______ _______ _____ _____    ______ ____
ROOT
ATOM      1  C   LIG    1       -0.017   1.374   0.010  0.00  0.00    +0.001 A 
ATOM      2  C   LIG    1        1.172   2.089   0.002  0.00  0.00    +0.002 A 
ATOM      3  C   LIG    1        2.384   1.433  -0.013  0.00  0.00    +0.026 A 
ATOM      4  C   LIG    1        2.423   0.042  -0.021  0.00  0.00    +0.048 A 
ATOM      5  C   LIG    1        1.220  -0.679  -0.013  0.00  0.00    +0.008 A 
ATOM      6  C   LIG    1        1.589  -2.108  -0.024  0.00  0.00    +0.015 A 
ATOM      7  C   LIG    1        0.845  -3.282  -0.024  0.00  0.00    -0.008 A 
ATOM      8  C   LIG    1        1.482  -4.519  -0.036  0.00  0.00    +0.052 A 
ATOM      9  C   LIG    1        0.453  -5.570  -0.032  0.00  0.00    +0.245 C 
ATOM     10  N   LIG    1       -0.775  -5.024  -0.017  0.00  0.00    -0.307 N 
ATOM     11  H   LIG    1       -1.612  -5.514  -0.012  0.00  0.00    +0.149 HD
ATOM     12  O   LIG    1        0.682  -6.764  -0.041  0.00  0.00    -0.270 OA
ATOM     13  C   LIG    1        2.894  -4.571  -0.050  0.00  0.00    +0.022 A 
ATOM     14  C   LIG    1        3.857  -5.684  -0.066  0.00  0.00    +0.008 A 
ATOM     15  C   LIG    1        3.720  -7.072  -0.074  0.00  0.00    +0.010 A 
ATOM     16  C   LIG    1        4.843  -7.869  -0.090  0.00  0.00    +0.001 A 
ATOM     17  C   LIG    1        6.107  -7.298  -0.098  0.00  0.00    +0.002 A 
ATOM     18  C   LIG    1        6.258  -5.928  -0.091  0.00  0.00    +0.026 A 
ATOM     19  C   LIG    1        5.136  -5.104  -0.075  0.00  0.00    +0.048 A 
ATOM     20  N   LIG    1        4.988  -3.731  -0.065  0.00  0.00    -0.352 N 
ATOM     21  H   LIG    1        5.720  -3.094  -0.069  0.00  0.00    +0.166 HD
ATOM     22  C   LIG    1        3.644  -3.395  -0.050  0.00  0.00    +0.072 A 
ATOM     23  C   LIG    1       -0.637  -3.563  -0.011  0.00  0.00    +0.141 C 
ATOM     24  C   LIG    1        2.991  -2.154  -0.038  0.00  0.00    +0.072 A 
ATOM     25  N   LIG    1        3.471  -0.860  -0.036  0.00  0.00    -0.353 N 
ATOM     26  H   LIG    1        4.410  -0.618  -0.043  0.00  0.00    +0.166 HD
ATOM     27  C   LIG    1        0.002  -0.004   0.002  0.00  0.00    +0.010 A 
ENDROOT
TORSDOF 0
