REMARK  Name = ZINC03165608
REMARK                            x       y       z     vdW  Elec       q    Type
REMARK                         _______ _______ _______ _____ _____    ______ ____
ROOT
ATOM      1  C   LIG    1       -2.502   1.320   0.020  0.00  0.00    +0.149 C 
ATOM      2  N   LIG    1       -1.133   1.842   0.017  0.00  0.00    -0.348 N 
ATOM      3  C   LIG    1       -0.013   1.076   0.008  0.00  0.00    +0.105 A 
ATOM      4  C   LIG    1        1.091   1.875   0.002  0.00  0.00    +0.077 A 
ATOM      5  C   LIG    1        0.602   3.266   0.014  0.00  0.00    +0.017 A 
ATOM      6  C   LIG    1        1.225   4.511   0.015  0.00  0.00    +0.011 A 
ATOM      7  C   LIG    1        0.460   5.657   0.028  0.00  0.00    +0.001 A 
ATOM      8  C   LIG    1       -0.924   5.574   0.041  0.00  0.00    +0.002 A 
ATOM      9  C   LIG    1       -1.555   4.349   0.040  0.00  0.00    +0.026 A 
ATOM     10  C   LIG    1       -0.800   3.180   0.027  0.00  0.00    +0.050 A 
ENDROOT
BRANCH   4  11
ATOM     11  C   LIG    1        2.458   1.448  -0.014  0.00  0.00    +0.101 C 
ATOM     12  N   LIG    1        3.542   1.110  -0.026  0.00  0.00    -0.191 NA
ENDBRANCH   4  11
TORSDOF 1
