REMARK  Name = ZINC02530682
REMARK                            x       y       z     vdW  Elec       q    Type
REMARK                         _______ _______ _______ _____ _____    ______ ____
ROOT
ATOM      1  N   LIG    1        1.319  -1.732   1.118  0.00  0.00    +0.383 N 
ATOM      2  H   LIG    1        1.194  -1.197   1.964  0.00  0.00    -0.081 HD
ATOM      3  C   LIG    1        0.226  -2.683   1.019  0.00  0.00    -0.074 C 
ATOM      4  C   LIG    1        0.073  -3.481   2.318  0.00  0.00    +0.018 C 
ATOM      5  C   LIG    1        1.021  -4.662   2.262  0.00  0.00    -0.028 A 
ATOM      6  C   LIG    1        2.377  -4.453   2.328  0.00  0.00    -0.034 A 
ATOM      7  C   LIG    1        2.915  -3.042   2.456  0.00  0.00    +0.033 C 
ATOM      8  C   LIG    1        3.254  -5.521   2.279  0.00  0.00    +0.053 A 
ATOM      9  C   LIG    1        2.758  -6.811   2.163  0.00  0.00    +0.160 A 
ATOM     10  C   LIG    1        1.385  -7.023   2.096  0.00  0.00    +0.173 A 
ATOM     11  C   LIG    1        0.514  -5.944   2.146  0.00  0.00    +0.066 A 
ATOM     12 BR   LIG    1       -1.354  -6.225   2.055  0.00  0.00    -0.046 Br
ATOM     13  C   LIG    1        2.651  -2.308   1.137  0.00  0.00    -0.066 C 
ENDROOT
BRANCH   7  14
ATOM     14  C   LIG    1        2.213  -2.330   3.584  0.00  0.00    -0.042 A 
ATOM     15  C   LIG    1        1.629  -3.059   4.603  0.00  0.00    +0.004 A 
ATOM     16  C   LIG    1        0.985  -2.406   5.638  0.00  0.00    +0.000 A 
ATOM     17  C   LIG    1        0.927  -1.025   5.654  0.00  0.00    +0.000 A 
ATOM     18  C   LIG    1        1.512  -0.297   4.635  0.00  0.00    +0.000 A 
ATOM     19  C   LIG    1        2.160  -0.949   3.603  0.00  0.00    +0.004 A 
ENDBRANCH   7  14
BRANCH   9  20
ATOM     20  O   LIG    1        3.614  -7.867   2.113  0.00  0.00    -0.503 OA
ATOM     21  H   LIG    1        3.829  -8.239   2.979  0.00  0.00    +0.292 HD
ENDBRANCH   9  20
BRANCH  10  22
ATOM     22  O   LIG    1        0.897  -8.288   1.981  0.00  0.00    -0.503 OA
ATOM     23  H   LIG    1        0.723  -8.721   2.828  0.00  0.00    +0.292 HD
ENDBRANCH  10  22
BRANCH   1  24
ATOM     24  C   LIG    1        1.232  -0.811  -0.023  0.00  0.00    -0.052 C 
BRANCH  24  26
ATOM     25  C   LIG    1       -0.146   1.205  -0.008  0.00  0.00    +0.002 C 
ATOM     26  C   LIG    1       -0.099  -0.104   0.002  0.00  0.00    -0.053 C 
ENDBRANCH  24  26
ENDBRANCH   1  24
TORSDOF 5
