REMARK  Name = ZINC03191876
REMARK                            x       y       z     vdW  Elec       q    Type
REMARK                         _______ _______ _______ _____ _____    ______ ____
ROOT
ATOM      1  C   LIG    1        0.992  -1.755  -1.718  0.00  0.00    +0.048 A 
ATOM      2  C   LIG    1        0.519  -2.752  -0.874  0.00  0.00    +0.026 A 
ATOM      3  C   LIG    1        0.715  -4.080  -1.198  0.00  0.00    +0.030 A 
ATOM      4  C   LIG    1        1.382  -4.418  -2.361  0.00  0.00    +0.105 A 
ATOM      5  C   LIG    1        1.855  -3.429  -3.204  0.00  0.00    +0.030 A 
ATOM      6  C   LIG    1        1.657  -2.099  -2.889  0.00  0.00    +0.026 A 
ENDROOT
BRANCH   4   7
ATOM      7  S   LIG    1        1.632  -6.114  -2.770  0.00  0.00    +0.056 S 
ATOM      8  O   LIG    1        1.576  -6.839  -1.549  0.00  0.00    -0.153 OA
ATOM      9  O   LIG    1        2.759  -6.162  -3.634  0.00  0.00    -0.153 OA
BRANCH   7  10
ATOM     10  N   LIG    1        0.327  -6.598  -3.668  0.00  0.00    -0.204 NA
ATOM     11  H   LIG    1        0.274  -7.510  -3.994  0.00  0.00    +0.144 HD
ATOM     12  H   LIG    1       -0.384  -5.970  -3.868  0.00  0.00    +0.144 HD
ENDBRANCH   7  10
ENDBRANCH   4   7
BRANCH   1  13
ATOM     13  N   LIG    1        0.795  -0.411  -1.394  0.00  0.00    -0.221 N 
ATOM     14  H   LIG    1        1.127   0.294  -1.995  0.00  0.00    +0.173 HD
BRANCH  13  16
ATOM     15  C   LIG    1       -0.022   1.810   0.012  0.00  0.00    +0.218 C 
ATOM     16  S   LIG    1        0.002  -0.004   0.002  0.00  0.00    +0.040 S 
ATOM     17  O   LIG    1       -1.315  -0.510  -0.168  0.00  0.00    -0.155 OA
ATOM     18  O   LIG    1        0.835  -0.488   1.046  0.00  0.00    -0.155 OA
ENDBRANCH  13  16
ENDBRANCH   1  13
TORSDOF 4
