REMARK  Name = ZINC02568218
REMARK                            x       y       z     vdW  Elec       q    Type
REMARK                         _______ _______ _______ _____ _____    ______ ____
ROOT
ATOM      1  CA  LIG    1        2.120   0.797  -1.308  0.00  0.00    +0.040 C 
ENDROOT
BRANCH   1   2
ATOM      2  N   LIG    1        3.396   1.491  -1.087  0.00  0.00    +0.387 N 
ATOM      3  H1  LIG    1        3.926   1.503  -1.945  0.00  0.00    -0.089 HD
ATOM      4  H2  LIG    1        3.922   1.008  -0.373  0.00  0.00    -0.089 HD
ATOM      5  H3  LIG    1        3.216   2.438  -0.789  0.00  0.00    -0.089 HD
ENDBRANCH   1   2
BRANCH   1   7
ATOM      6  C   LIG    1       -0.019   1.526   0.010  0.00  0.00    +0.018 C 
ATOM      7  C   LIG    1        1.317   0.779  -0.006  0.00  0.00    -0.001 C 
ATOM      8  C   LIG    1        0.002  -0.004   0.002  0.00  0.00    +0.100 C 
BRANCH   8   9
ATOM      9  C   LIG    1       -0.378  -0.712   1.277  0.00  0.00    +0.308 C 
ATOM     10  O   LIG    1       -1.416  -1.350   1.334  0.00  0.00    -0.251 OA
BRANCH   9  11
ATOM     11  O   LIG    1        0.352  -0.647   2.251  0.00  0.00    -0.480 OA
ATOM     12  H   LIG    1        1.150  -0.157   2.207  0.00  0.00    +0.295 HD
ENDBRANCH   9  11
ENDBRANCH   8   9
ENDBRANCH   1   7
BRANCH   1  13
ATOM     13  C   LIG    1        1.335   1.518  -2.373  0.00  0.00    +0.290 C 
ATOM     14  O   LIG    1        1.704   2.611  -2.768  0.00  0.00    -0.253 OA
BRANCH  13  15
ATOM     15  OXT LIG    1        0.330   1.009  -2.839  0.00  0.00    -0.482 OA
ATOM     16  HXT LIG    1        0.046   0.170  -2.535  0.00  0.00    +0.295 HD
ENDBRANCH  13  15
ENDBRANCH   1  13
TORSDOF 6
