REMARK  Name = ZINC02507598
REMARK                            x       y       z     vdW  Elec       q    Type
REMARK                         _______ _______ _______ _____ _____    ______ ____
ROOT
ATOM      1  C   LIG    1        0.389  -2.539   0.237  0.00  0.00    +0.078 C 
ATOM      2  C   LIG    1        1.125  -2.134  -1.043  0.00  0.00    +0.004 C 
ATOM      3  C   LIG    1        0.468  -2.822  -2.242  0.00  0.00    -0.077 C 
ATOM      4  N   LIG    1       -0.939  -2.414  -2.334  0.00  0.00    +0.380 N 
ATOM      5  H   LIG    1       -0.993  -1.408  -2.402  0.00  0.00    -0.082 HD
ATOM      6  C   LIG    1       -1.667  -2.862  -1.142  0.00  0.00    -0.077 C 
ATOM      7  C   LIG    1       -1.093  -2.176   0.100  0.00  0.00    +0.004 C 
ENDROOT
BRANCH   1   9
ATOM      8  C   LIG    1        1.391  -2.512   2.458  0.00  0.00    +0.220 C 
ATOM      9  N   LIG    1        0.964  -1.825   1.380  0.00  0.00    -0.269 N 
ATOM     10  O   LIG    1        1.760  -1.918   3.449  0.00  0.00    -0.275 OA
BRANCH   9  11
ATOM     11  C   LIG    1        1.070  -0.430   1.352  0.00  0.00    +0.037 A 
ATOM     12  C   LIG    1        0.480   0.292   0.323  0.00  0.00    +0.023 A 
ATOM     13  C   LIG    1        0.587   1.669   0.298  0.00  0.00    +0.002 A 
ATOM     14  C   LIG    1        1.281   2.328   1.296  0.00  0.00    +0.000 A 
ATOM     15  C   LIG    1        1.870   1.611   2.322  0.00  0.00    +0.002 A 
ATOM     16  C   LIG    1        1.762   0.235   2.356  0.00  0.00    +0.023 A 
ENDBRANCH   9  11
BRANCH   8  18
ATOM     17  C   LIG    1        2.047  -4.543   3.721  0.00  0.00    +0.013 C 
ATOM     18  C   LIG    1        1.408  -4.019   2.433  0.00  0.00    +0.093 C 
ENDBRANCH   8  18
ENDBRANCH   1   9
BRANCH   4  19
ATOM     19  C   LIG    1       -1.544  -3.015  -3.531  0.00  0.00    -0.074 C 
BRANCH  19  20
ATOM     20  C   LIG    1       -2.972  -2.492  -3.697  0.00  0.00    +0.016 C 
BRANCH  20  21
ATOM     21  C   LIG    1       -3.593  -3.109  -4.924  0.00  0.00    -0.049 A 
ATOM     22  C   LIG    1       -3.458  -2.477  -6.154  0.00  0.00    +0.005 A 
ATOM     23  C   LIG    1       -4.014  -3.022  -7.274  0.00  0.00    +0.029 A 
ATOM     24  C   LIG    1       -4.733  -4.240  -7.177  0.00  0.00    +0.074 A 
ATOM     25  C   LIG    1       -4.862  -4.873  -5.915  0.00  0.00    +0.029 A 
ATOM     26  C   LIG    1       -4.289  -4.306  -4.814  0.00  0.00    +0.005 A 
BRANCH  24  27
ATOM     27  N   LIG    1       -5.279  -4.782  -8.256  0.00  0.00    -0.197 NA
ATOM     28  C   LIG    1       -5.912  -5.856  -8.164  0.00  0.00    +0.041 C 
ATOM     29  S   LIG    1       -6.697  -7.192  -8.050  0.00  0.00    +0.021 S 
ENDBRANCH  24  27
ENDBRANCH  20  21
ENDBRANCH  19  20
ENDBRANCH   4  19
TORSDOF 7
