REMARK  Name = ZINC03627988
REMARK                            x       y       z     vdW  Elec       q    Type
REMARK                         _______ _______ _______ _____ _____    ______ ____
ROOT
ATOM      1  C   LIG    1        3.835  -0.695  -0.067  0.00  0.00    +0.059 A 
ATOM      2  C   LIG    1        4.064  -1.810  -0.879  0.00  0.00    +0.060 A 
ATOM      3  C   LIG    1        5.433  -2.264  -0.573  0.00  0.00    +0.011 A 
ATOM      4  C   LIG    1        6.228  -3.307  -1.043  0.00  0.00    +0.011 A 
ATOM      5  C   LIG    1        7.502  -3.473  -0.544  0.00  0.00    +0.001 A 
ATOM      6  C   LIG    1        7.992  -2.607   0.422  0.00  0.00    +0.002 A 
ATOM      7  C   LIG    1        7.217  -1.571   0.895  0.00  0.00    +0.026 A 
ATOM      8  C   LIG    1        5.928  -1.386   0.405  0.00  0.00    +0.048 A 
ATOM      9  N   LIG    1        4.945  -0.455   0.681  0.00  0.00    -0.354 N 
ATOM     10  H   LIG    1        5.034   0.269   1.321  0.00  0.00    +0.166 HD
ENDROOT
BRANCH   1  14
ATOM     11  C   LIG    1        0.255   1.582   0.034  0.00  0.00    +0.000 A 
ATOM     12  C   LIG    1        1.480   2.226  -0.006  0.00  0.00    +0.001 A 
ATOM     13  C   LIG    1        2.647   1.493  -0.039  0.00  0.00    +0.010 A 
ATOM     14  C   LIG    1        2.591   0.096  -0.032  0.00  0.00    -0.001 A 
ATOM     15  C   LIG    1        1.350  -0.547   0.009  0.00  0.00    +0.010 A 
ATOM     16  C   LIG    1        0.192   0.200   0.042  0.00  0.00    +0.001 A 
ENDBRANCH   1  14
BRANCH   2  17
ATOM     17  C   LIG    1        3.165  -2.385  -1.807  0.00  0.00    +0.250 C 
ATOM     18  O   LIG    1        2.470  -3.327  -1.477  0.00  0.00    -0.282 OA
BRANCH  17  19
ATOM     19  C   LIG    1        3.069  -1.837  -3.190  0.00  0.00    +0.287 C 
ATOM     20  N   LIG    1        3.762  -2.411  -4.192  0.00  0.00    -0.295 N 
ATOM     21  C   LIG    1        4.521  -3.648  -3.965  0.00  0.00    +0.108 C 
ATOM     22  C   LIG    1        4.087  -4.691  -5.000  0.00  0.00    +0.019 C 
ATOM     23  C   LIG    1        4.247  -4.106  -6.405  0.00  0.00    +0.003 C 
ATOM     24  C   LIG    1        3.348  -2.876  -6.552  0.00  0.00    +0.019 C 
ATOM     25  C   LIG    1        3.768  -1.816  -5.536  0.00  0.00    +0.108 C 
ATOM     26  O   LIG    1        2.366  -0.872  -3.413  0.00  0.00    -0.266 OA
ENDBRANCH  17  19
ENDBRANCH   2  17
TORSDOF 3
