REMARK  Name = ZINC02558953
REMARK                            x       y       z     vdW  Elec       q    Type
REMARK                         _______ _______ _______ _____ _____    ______ ____
ROOT
ATOM      1  C   LIG    1       -1.485   1.228   1.089  0.00  0.00    +0.025 C 
ENDROOT
BRANCH   1   2
ATOM      2  C   LIG    1       -2.169   2.014  -0.031  0.00  0.00    +0.084 C 
BRANCH   2   3
ATOM      3  C   LIG    1       -1.716   3.450   0.014  0.00  0.00    -0.027 A 
ATOM      4  C   LIG    1       -0.370   3.753  -0.072  0.00  0.00    +0.005 A 
ATOM      5  C   LIG    1        0.046   5.071  -0.036  0.00  0.00    +0.000 A 
ATOM      6  C   LIG    1       -0.884   6.086   0.091  0.00  0.00    +0.000 A 
ATOM      7  C   LIG    1       -2.229   5.783   0.182  0.00  0.00    +0.000 A 
ATOM      8  C   LIG    1       -2.645   4.465   0.147  0.00  0.00    +0.005 A 
ENDBRANCH   2   3
BRANCH   2  10
ATOM      9  C   LIG    1       -4.064   2.615   1.482  0.00  0.00    +0.009 C 
ATOM     10  C   LIG    1       -3.687   1.952   0.156  0.00  0.00    +0.007 C 
ATOM     11  C   LIG    1       -4.373   2.690  -0.996  0.00  0.00    +0.009 C 
ENDBRANCH   2  10
BRANCH   2  12
ATOM     12  C   LIG    1       -1.811   1.427  -1.333  0.00  0.00    +0.074 C 
ATOM     13  N   LIG    1       -1.535   0.974  -2.337  0.00  0.00    -0.196 NA
ENDBRANCH   2  12
ENDBRANCH   1   2
BRANCH   1  14
ATOM     14  C   LIG    1       -1.946  -0.231   1.042  0.00  0.00    -0.017 C 
BRANCH  14  15
ATOM     15  C   LIG    1       -1.261  -1.017   2.162  0.00  0.00    -0.079 C 
BRANCH  15  16
ATOM     16  N   LIG    1       -1.704  -2.417   2.118  0.00  0.00    +0.378 N 
ATOM     17  H   LIG    1       -1.556  -2.786   1.092  0.00  0.00    -0.082 HD
ATOM     18  C   LIG    1       -3.133  -2.528   2.437  0.00  0.00    -0.096 C 
BRANCH  16  19
ATOM     19  C   LIG    1       -0.897  -3.253   3.018  0.00  0.00    -0.075 C 
BRANCH  19  20
ATOM     20  C   LIG    1       -1.214  -4.728   2.765  0.00  0.00    +0.016 C 
BRANCH  20  21
ATOM     21  C   LIG    1       -0.387  -5.585   3.688  0.00  0.00    -0.049 A 
ATOM     22  C   LIG    1        0.860  -6.028   3.288  0.00  0.00    +0.003 A 
ATOM     23  C   LIG    1        1.621  -6.810   4.137  0.00  0.00    +0.000 A 
ATOM     24  C   LIG    1        1.130  -7.158   5.382  0.00  0.00    +0.000 A 
ATOM     25  C   LIG    1       -0.119  -6.719   5.780  0.00  0.00    +0.000 A 
ATOM     26  C   LIG    1       -0.877  -5.933   4.933  0.00  0.00    +0.003 A 
ENDBRANCH  20  21
ENDBRANCH  19  20
ENDBRANCH  16  19
ENDBRANCH  15  16
ENDBRANCH  14  15
ENDBRANCH   1  14
TORSDOF 10
