REMARK  Name = ZINC02746753
REMARK                            x       y       z     vdW  Elec       q    Type
REMARK                         _______ _______ _______ _____ _____    ______ ____
ROOT
ATOM      1  C   LIG    1        1.037  -4.032  -0.048  0.00  0.00    +0.079 A 
ATOM      2  C   LIG    1        2.429  -4.227  -0.041  0.00  0.00    +0.042 A 
ATOM      3  C   LIG    1        2.935  -5.518  -0.053  0.00  0.00    +0.048 A 
ATOM      4  C   LIG    1        1.970  -6.619  -0.073  0.00  0.00    +0.013 A 
ATOM      5  C   LIG    1        2.386  -7.954  -0.086  0.00  0.00    +0.011 A 
ATOM      6  C   LIG    1        1.455  -8.950  -0.104  0.00  0.00    +0.001 A 
ATOM      7  C   LIG    1        0.094  -8.654  -0.110  0.00  0.00    +0.002 A 
ATOM      8  C   LIG    1       -0.345  -7.365  -0.098  0.00  0.00    +0.028 A 
ATOM      9  C   LIG    1        0.587  -6.311  -0.078  0.00  0.00    +0.072 A 
ATOM     10  N   LIG    1        0.185  -5.039  -0.060  0.00  0.00    -0.246 NA
ENDROOT
BRANCH   1  15
ATOM     11  C   LIG    1       -0.020   1.502   0.008  0.00  0.00    +0.051 C 
ATOM     12  C   LIG    1        0.001  -0.005  -0.007  0.00  0.00    -0.013 A 
ATOM     13  C   LIG    1       -1.045  -0.874  -0.019  0.00  0.00    +0.011 A 
ATOM     14  C   LIG    1       -0.792  -2.226  -0.033  0.00  0.00    +0.018 A 
ATOM     15  C   LIG    1        0.510  -2.653  -0.034  0.00  0.00    +0.038 A 
ATOM     16  S   LIG    1        1.404  -1.108  -0.023  0.00  0.00    -0.092 S 
ENDBRANCH   1  15
BRANCH   3  17
ATOM     17  C   LIG    1        4.391  -5.772  -0.047  0.00  0.00    +0.249 C 
ATOM     18  N   LIG    1        5.256  -4.742  -0.136  0.00  0.00    -0.281 N 
ATOM     19  H   LIG    1        4.926  -3.830  -0.125  0.00  0.00    +0.155 HD
ATOM     20  O   LIG    1        4.809  -6.911   0.038  0.00  0.00    -0.270 OA
BRANCH  18  21
ATOM     21  C   LIG    1        6.628  -4.989  -0.244  0.00  0.00    +0.034 A 
ATOM     22  C   LIG    1        7.083  -6.092  -0.954  0.00  0.00    +0.025 A 
ATOM     23  C   LIG    1        8.439  -6.333  -1.059  0.00  0.00    +0.030 A 
ATOM     24  C   LIG    1        9.344  -5.476  -0.459  0.00  0.00    +0.105 A 
ATOM     25  C   LIG    1        8.894  -4.376   0.249  0.00  0.00    +0.030 A 
ATOM     26  C   LIG    1        7.539  -4.127   0.353  0.00  0.00    +0.025 A 
BRANCH  24  27
ATOM     27  S   LIG    1       11.073  -5.786  -0.596  0.00  0.00    +0.056 S 
ATOM     28  O   LIG    1       11.217  -7.177  -0.847  0.00  0.00    -0.153 OA
ATOM     29  O   LIG    1       11.689  -5.143   0.512  0.00  0.00    -0.153 OA
BRANCH  27  30
ATOM     30  N   LIG    1       11.605  -5.002  -1.954  0.00  0.00    -0.204 NA
ATOM     31  H   LIG    1       11.006  -4.874  -2.706  0.00  0.00    +0.144 HD
ATOM     32  H   LIG    1       12.515  -4.670  -1.997  0.00  0.00    +0.144 HD
ENDBRANCH  27  30
ENDBRANCH  24  27
ENDBRANCH  18  21
ENDBRANCH   3  17
TORSDOF 5
