REMARK  Name = ZINC02557959
REMARK                            x       y       z     vdW  Elec       q    Type
REMARK                         _______ _______ _______ _____ _____    ______ ____
ROOT
ATOM      1  C   LIG    1       -0.062   6.433   0.036  0.00  0.00    +0.046 A 
ATOM      2  C   LIG    1        0.673   7.600   0.035  0.00  0.00    +0.044 A 
ATOM      3 CL   LIG    1       -0.144   9.131   0.051  0.00  0.00    -0.083 Cl
ATOM      4  C   LIG    1        2.062   7.561   0.022  0.00  0.00    +0.040 A 
ATOM      5  C   LIG    1        2.724   6.367   0.010  0.00  0.00    +0.052 A 
ATOM      6 CL   LIG    1        4.460   6.334  -0.007  0.00  0.00    -0.083 Cl
ATOM      7  C   LIG    1        1.999   5.167   0.011  0.00  0.00    +0.019 A 
ATOM      8  C   LIG    1        2.377   3.804  -0.000  0.00  0.00    +0.044 A 
ATOM      9  CA  LIG    1        1.239   3.058   0.007  0.00  0.00    +0.125 A 
ATOM     10  N   LIG    1        0.144   3.903   0.016  0.00  0.00    -0.349 N 
ATOM     11  H   LIG    1       -0.784   3.624   0.018  0.00  0.00    +0.166 HD
ATOM     12  C   LIG    1        0.590   5.204   0.024  0.00  0.00    +0.050 A 
ENDROOT
BRANCH   9  13
ATOM     13  C   LIG    1        1.182   1.591  -0.001  0.00  0.00    +0.353 C 
ATOM     14  O   LIG    1        2.211   0.943  -0.014  0.00  0.00    -0.243 OA
BRANCH  13  15
ATOM     15  OXT LIG    1       -0.011   0.963   0.007  0.00  0.00    -0.476 OA
ATOM     16  HXT LIG    1       -0.804   1.462   0.018  0.00  0.00    +0.295 HD
ENDBRANCH  13  15
ENDBRANCH   9  13
TORSDOF 2
