REMARK  Name = ZINC03149586
REMARK                            x       y       z     vdW  Elec       q    Type
REMARK                         _______ _______ _______ _____ _____    ______ ____
ROOT
ATOM      1  O   LIG    1       -2.390   1.064   0.020  0.00  0.00    -0.456 OA
ENDROOT
BRANCH   1  13
ATOM      2  C   LIG    1       -0.806   2.389   1.205  0.00  0.00    +0.048 A 
ATOM      3  C   LIG    1        0.379   3.099   1.238  0.00  0.00    +0.027 A 
ATOM      4  C   LIG    1        1.179   3.179   0.106  0.00  0.00    +0.045 A 
ATOM      5  C   LIG    1        0.766   2.532  -1.069  0.00  0.00    +0.052 A 
ATOM      6  C   LIG    1        1.806   2.793  -2.083  0.00  0.00    +0.249 C 
ATOM      7  C   LIG    1        2.827   3.636  -1.377  0.00  0.00    +0.289 C 
ATOM      8  O   LIG    1        3.852   4.072  -1.857  0.00  0.00    -0.266 OA
ATOM      9  O   LIG    1        1.829   2.411  -3.234  0.00  0.00    -0.282 OA
ATOM     10  C   LIG    1       -0.431   1.818  -1.098  0.00  0.00    +0.060 A 
ATOM     11  N   LIG    1        2.399   3.819  -0.116  0.00  0.00    -0.278 N 
ATOM     12  H   LIG    1        2.878   4.331   0.554  0.00  0.00    +0.155 HD
ATOM     13  C   LIG    1       -1.218   1.754   0.040  0.00  0.00    +0.129 A 
ENDBRANCH   1  13
BRANCH   1  14
ATOM     14  C   LIG    1       -3.547   1.768   0.134  0.00  0.00    +0.129 A 
ATOM     15  C   LIG    1       -4.760   1.100   0.239  0.00  0.00    +0.048 A 
ATOM     16  C   LIG    1       -5.944   1.803   0.360  0.00  0.00    +0.027 A 
ATOM     17  C   LIG    1       -5.936   3.192   0.367  0.00  0.00    +0.045 A 
ATOM     18  C   LIG    1       -4.710   3.868   0.255  0.00  0.00    +0.052 A 
ATOM     19  C   LIG    1       -5.019   5.310   0.293  0.00  0.00    +0.249 C 
ATOM     20  C   LIG    1       -6.511   5.380   0.435  0.00  0.00    +0.289 C 
ATOM     21  O   LIG    1       -7.177   6.391   0.504  0.00  0.00    -0.266 OA
ATOM     22  O   LIG    1       -4.238   6.236   0.224  0.00  0.00    -0.282 OA
ATOM     23  N   LIG    1       -6.973   4.119   0.471  0.00  0.00    -0.278 N 
ATOM     24  H   LIG    1       -7.910   3.882   0.559  0.00  0.00    +0.155 HD
ATOM     25  C   LIG    1       -3.518   3.153   0.139  0.00  0.00    +0.060 A 
ENDBRANCH   1  14
TORSDOF 2
