REMARK  Name = ZINC03093384
REMARK                            x       y       z     vdW  Elec       q    Type
REMARK                         _______ _______ _______ _____ _____    ______ ____
ROOT
ATOM      1  C   LIG    1        2.079  -5.720  -4.310  0.00  0.00    +0.121 A 
ATOM      2  C   LIG    1        1.588  -6.472  -3.252  0.00  0.00    +0.046 A 
ATOM      3  C   LIG    1        1.710  -7.848  -3.269  0.00  0.00    +0.008 A 
ATOM      4  C   LIG    1        2.321  -8.476  -4.338  0.00  0.00    -0.035 A 
ATOM      5  C   LIG    1        2.812  -7.729  -5.393  0.00  0.00    +0.008 A 
ATOM      6  C   LIG    1        2.687  -6.353  -5.384  0.00  0.00    +0.046 A 
ENDROOT
BRANCH   1   7
ATOM      7  O   LIG    1        1.960  -4.366  -4.296  0.00  0.00    -0.492 OA
BRANCH   7   8
ATOM      8  C   LIG    1        1.323  -3.783  -3.158  0.00  0.00    +0.229 C 
BRANCH   8   9
ATOM      9  C   LIG    1        1.282  -2.262  -3.320  0.00  0.00    +0.041 C 
BRANCH   9  10
ATOM     10  C   LIG    1        0.600  -1.637  -2.101  0.00  0.00    +0.003 C 
BRANCH  10  11
ATOM     11  C   LIG    1        0.558  -0.116  -2.264  0.00  0.00    -0.000 C 
BRANCH  11  13
ATOM     12  C   LIG    1       -0.165   2.029  -1.208  0.00  0.00    +0.004 C 
ATOM     13  C   LIG    1       -0.123   0.508  -1.045  0.00  0.00    -0.003 C 
ENDBRANCH  11  13
ENDBRANCH  10  11
ENDBRANCH   9  10
ENDBRANCH   8   9
ENDBRANCH   7   8
ENDBRANCH   1   7
BRANCH   4  14
ATOM     14  C   LIG    1        2.453  -9.977  -4.354  0.00  0.00    +0.115 C 
BRANCH  14  15
ATOM     15  C   LIG    1        1.736 -10.532  -5.557  0.00  0.00    +0.218 C 
ATOM     16  N   LIG    1        1.601 -11.865  -5.706  0.00  0.00    -0.329 N 
ATOM     17  H   LIG    1        1.077 -12.220  -6.441  0.00  0.00    +0.145 HD
ATOM     18  H   LIG    1        2.027 -12.469  -5.077  0.00  0.00    +0.145 HD
ATOM     19  O   LIG    1        1.282  -9.780  -6.393  0.00  0.00    -0.275 OA
ENDBRANCH  14  15
BRANCH  14  20
ATOM     20  C   LIG    1        3.933 -10.358  -4.421  0.00  0.00    +0.137 C 
BRANCH  20  21
ATOM     21  C   LIG    1        4.620  -9.932  -3.149  0.00  0.00    +0.306 C 
ATOM     22  O   LIG    1        3.965  -9.485  -2.223  0.00  0.00    -0.251 OA
BRANCH  21  23
ATOM     23  O   LIG    1        5.831 -10.034  -3.046  0.00  0.00    -0.481 OA
ATOM     24  H   LIG    1        6.334 -10.377  -3.758  0.00  0.00    +0.295 HD
ENDBRANCH  21  23
ENDBRANCH  20  21
ENDBRANCH  14  20
ENDBRANCH   4  14
TORSDOF 11
