REMARK  Name = ZINC02906253
REMARK                            x       y       z     vdW  Elec       q    Type
REMARK                         _______ _______ _______ _____ _____    ______ ____
ROOT
ATOM      1  N   LIG    1        3.293   7.813  -1.746  0.00  0.00    -0.271 N 
ATOM      2  C   LIG    1        3.353   7.509  -0.311  0.00  0.00    +0.127 C 
ATOM      3  C   LIG    1        3.623   5.991  -0.223  0.00  0.00    +0.102 C 
ATOM      4  C   LIG    1        4.325   5.716  -1.572  0.00  0.00    +0.110 C 
ATOM      5  C   LIG    1        3.837   6.825  -2.478  0.00  0.00    +0.221 C 
ATOM      6  O   LIG    1        3.922   6.823  -3.687  0.00  0.00    -0.275 OA
ENDROOT
BRANCH   1  10
ATOM      7  C   LIG    1        1.646  11.290  -3.345  0.00  0.00    +0.000 A 
ATOM      8  C   LIG    1        1.764  11.149  -1.975  0.00  0.00    +0.002 A 
ATOM      9  C   LIG    1        2.310   9.998  -1.441  0.00  0.00    +0.023 A 
ATOM     10  C   LIG    1        2.740   8.981  -2.283  0.00  0.00    +0.036 A 
ATOM     11  C   LIG    1        2.626   9.127  -3.659  0.00  0.00    +0.023 A 
ATOM     12  C   LIG    1        2.074  10.278  -4.186  0.00  0.00    +0.002 A 
ENDBRANCH   1  10
BRANCH   3  13
ATOM     13  C   LIG    1        2.333   5.219  -0.118  0.00  0.00    +0.222 C 
ATOM     14  N   LIG    1        2.358   3.874  -0.031  0.00  0.00    -0.285 N 
ATOM     15  H   LIG    1        3.205   3.408   0.043  0.00  0.00    +0.155 HD
ATOM     16  O   LIG    1        1.273   5.808  -0.114  0.00  0.00    -0.275 OA
BRANCH  14  17
ATOM     17  C   LIG    1        1.160   3.150  -0.046  0.00  0.00    +0.035 A 
ATOM     18  C   LIG    1        0.080   3.607  -0.791  0.00  0.00    +0.023 A 
ATOM     19  C   LIG    1       -1.101   2.891  -0.803  0.00  0.00    +0.003 A 
ATOM     20  C   LIG    1       -1.211   1.723  -0.071  0.00  0.00    +0.020 A 
ATOM     21  C   LIG    1       -0.135   1.262   0.667  0.00  0.00    +0.043 A 
ATOM     22 CL   LIG    1       -0.276  -0.209   1.579  0.00  0.00    -0.083 Cl
ATOM     23  C   LIG    1        1.049   1.974   0.684  0.00  0.00    +0.043 A 
ENDBRANCH  14  17
ENDBRANCH   3  13
TORSDOF 3
