REMARK  Name = ZINC03203426
REMARK                            x       y       z     vdW  Elec       q    Type
REMARK                         _______ _______ _______ _____ _____    ______ ____
ROOT
ATOM      1  C   LIG    1       -1.296   2.030   0.051  0.00  0.00    +0.016 C 
ENDROOT
BRANCH   1   2
ATOM      2  C   LIG    1       -0.066   1.160   0.081  0.00  0.00    +0.201 C 
ATOM      3  N   LIG    1        1.128   1.692   0.410  0.00  0.00    -0.303 N 
ATOM      4  C   LIG    1        1.391   3.115   0.666  0.00  0.00    +0.108 C 
ATOM      5  C   LIG    1        2.895   3.254   0.980  0.00  0.00    +0.020 C 
ATOM      6  C   LIG    1        3.504   1.989   0.320  0.00  0.00    +0.020 C 
ATOM      7  C   LIG    1        2.388   0.943   0.566  0.00  0.00    +0.108 C 
ATOM      8  O   LIG    1       -0.150  -0.018  -0.196  0.00  0.00    -0.277 OA
ENDBRANCH   1   2
BRANCH   1   9
ATOM      9  N   LIG    1       -2.457   1.299   0.588  0.00  0.00    +0.386 N 
ATOM     10  H   LIG    1       -3.290   1.897   0.528  0.00  0.00    -0.089 HD
ATOM     11  H   LIG    1       -2.294   1.052   1.563  0.00  0.00    -0.089 HD
ATOM     12  H   LIG    1       -2.617   0.452   0.046  0.00  0.00    -0.089 HD
ENDBRANCH   1   9
BRANCH   1  14
ATOM     13  C   LIG    1       -2.812   3.369  -1.415  0.00  0.00    +0.006 C 
ATOM     14  C   LIG    1       -1.593   2.445  -1.391  0.00  0.00    -0.023 C 
ATOM     15  C   LIG    1       -0.383   3.181  -1.970  0.00  0.00    +0.006 C 
ENDBRANCH   1  14
TORSDOF 3
