REMARK  Name = ZINC03583890
REMARK                            x       y       z     vdW  Elec       q    Type
REMARK                         _______ _______ _______ _____ _____    ______ ____
ROOT
ATOM      1  C   UNK A  0        3.695  -0.684  -0.037  0.00  0.00    +0.142 A 
ATOM      2  N   UNK A  1        4.805   0.012  -0.039  0.00  0.00    -0.219 NA
ATOM      3  C   UNK A  1        6.014  -0.572  -0.054  0.00  0.00    +0.196 A 
ATOM      4  C   UNK A  1        6.107  -1.957  -0.068  0.00  0.00    +0.215 A 
ATOM      5  C   UNK A  1        4.856  -2.730  -0.065  0.00  0.00    +0.294 A 
ATOM      6  O   UNK A  1        4.872  -3.948  -0.077  0.00  0.00    -0.264 OA
ATOM      7  N   UNK A  1        3.689  -2.049  -0.044  0.00  0.00    -0.304 N 
ATOM      8  H   UNK A  1        2.847  -2.530  -0.038  0.00  0.00    +0.170 HD
ENDROOT
BRANCH   1  12
ATOM      9  C   UNK A  0       -0.017   1.379   0.010  0.00  0.00    +0.000 A 
ATOM     10  C   UNK A  0        1.168   2.094   0.002  0.00  0.00    +0.001 A 
ATOM     11  C   UNK A  0        2.377   1.430  -0.013  0.00  0.00    +0.011 A 
ATOM     12  C   UNK A  0        2.404   0.034  -0.021  0.00  0.00    +0.017 A 
ATOM     13  C   UNK A  0        1.204  -0.681  -0.013  0.00  0.00    +0.011 A 
ATOM     14  C   UNK A  0        0.002  -0.004   0.002  0.00  0.00    +0.001 A 
ENDBRANCH   1  12
BRANCH   3  15
ATOM     15  C   UNK A  1        7.239   0.255  -0.056  0.00  0.00    +0.359 C 
ATOM     16  O   UNK A  1        8.338  -0.280  -0.069  0.00  0.00    -0.243 OA
BRANCH  15  17
ATOM     17  O   UNK A  1        7.153   1.475  -0.044  0.00  0.00    -0.476 OA
ATOM     18  H   UNK A  1        6.311   1.885  -0.034  0.00  0.00    +0.295 HD
ENDBRANCH  15  17
ENDBRANCH   3  15
BRANCH   4  19
ATOM     19  O   UNK A  1        7.312  -2.577  -0.083  0.00  0.00    -0.501 OA
ATOM     20  H   UNK A  1        7.257  -3.542  -0.092  0.00  0.00    +0.292 HD
ENDBRANCH   4  19
TORSDOF 4
