REMARK  Name = ZINC02712356
REMARK                            x       y       z     vdW  Elec       q    Type
REMARK                         _______ _______ _______ _____ _____    ______ ____
ROOT
ATOM      1  C   LIG    1        2.554  -4.389  -3.121  0.00  0.00    +0.130 A 
ATOM      2  C   LIG    1        3.499  -3.639  -3.796  0.00  0.00    +0.046 A 
ATOM      3  C   LIG    1        4.524  -4.258  -4.499  0.00  0.00    +0.004 A 
ATOM      4  C   LIG    1        4.623  -5.631  -4.539  0.00  0.00    +0.014 A 
ATOM      5  C   LIG    1        3.682  -6.411  -3.866  0.00  0.00    +0.050 A 
ATOM      6  C   LIG    1        3.740  -7.877  -3.876  0.00  0.00    +0.260 A 
ATOM      7  O   LIG    1        4.625  -8.455  -4.481  0.00  0.00    -0.267 OA
ATOM      8  N   LIG    1        2.813  -8.577  -3.192  0.00  0.00    -0.306 N 
ATOM      9  C   LIG    1        1.804  -7.969  -2.501  0.00  0.00    +0.090 A 
ATOM     10  C   LIG    1        1.673  -6.633  -2.445  0.00  0.00    +0.030 A 
ATOM     11  C   LIG    1        2.640  -5.786  -3.144  0.00  0.00    +0.030 A 
ENDROOT
BRANCH   1  12
ATOM     12  O   LIG    1        1.554  -3.775  -2.437  0.00  0.00    -0.477 OA
BRANCH  12  13
ATOM     13  C   LIG    1        1.604  -2.350  -2.353  0.00  0.00    +0.278 C 
ATOM     14  C   LIG    1        0.960  -1.743  -3.602  0.00  0.00    +0.064 C 
BRANCH  13  15
ATOM     15  C   LIG    1        0.855  -1.891  -1.129  0.00  0.00    +0.348 C 
ATOM     16  O   LIG    1        0.256  -2.692  -0.452  0.00  0.00    -0.247 OA
BRANCH  15  17
ATOM     17  O   LIG    1        0.854  -0.592  -0.790  0.00  0.00    -0.462 OA
BRANCH  17  19
ATOM     18  C   LIG    1        0.236   1.281   0.606  0.00  0.00    +0.048 C 
ATOM     19  C   LIG    1        0.123  -0.228   0.383  0.00  0.00    +0.229 C 
ENDBRANCH  17  19
ENDBRANCH  15  17
ENDBRANCH  13  15
ENDBRANCH  12  13
ENDBRANCH   1  12
BRANCH   8  20
ATOM     20  C   LIG    1        2.882 -10.040  -3.202  0.00  0.00    +0.220 C 
BRANCH  20  21
ATOM     21  C   LIG    1        2.090 -10.573  -4.369  0.00  0.00    +0.233 C 
ATOM     22  N   LIG    1        2.011 -11.902  -4.580  0.00  0.00    -0.307 N 
ATOM     23  H   LIG    1        2.464 -12.515  -3.980  0.00  0.00    +0.149 HD
ATOM     24  O   LIG    1        1.524  -9.805  -5.118  0.00  0.00    -0.274 OA
BRANCH  22  25
ATOM     25  C   LIG    1        1.242 -12.419  -5.714  0.00  0.00    +0.178 C 
BRANCH  25  26
ATOM     26  C   LIG    1        1.313 -13.924  -5.724  0.00  0.00    +0.122 A 
ATOM     27  C   LIG    1        0.455 -14.757  -5.107  0.00  0.00    +0.046 A 
ATOM     28  C   LIG    1        0.894 -16.073  -5.378  0.00  0.00    +0.041 A 
ATOM     29  C   LIG    1        1.995 -15.966  -6.144  0.00  0.00    +0.195 A 
ATOM     30  O   LIG    1        2.240 -14.663  -6.355  0.00  0.00    -0.466 OA
ENDBRANCH  25  26
ENDBRANCH  22  25
ENDBRANCH  20  21
ENDBRANCH   8  20
TORSDOF 9
