REMARK  Name = ZINC02522648
REMARK                            x       y       z     vdW  Elec       q    Type
REMARK                         _______ _______ _______ _____ _____    ______ ____
ROOT
ATOM      1  C   LIG    1       -1.244  -2.135   0.003  0.00  0.00    +0.114 C 
ENDROOT
BRANCH   1   2
ATOM      2  C   LIG    1       -0.555  -2.666  -1.256  0.00  0.00    -0.054 C 
ATOM      3  C   LIG    1       -0.616  -4.195  -1.264  0.00  0.00    -0.015 C 
ATOM      4  C   LIG    1        0.074  -4.722  -2.526  0.00  0.00    -0.003 C 
ATOM      5  C   LIG    1        1.513  -4.198  -2.565  0.00  0.00    -0.019 C 
ATOM      6  C   LIG    1        1.495  -2.669  -2.509  0.00  0.00    -0.082 C 
ATOM      7  N   LIG    1        0.846  -2.229  -1.268  0.00  0.00    +0.382 N 
ATOM      8  H   LIG    1        1.329  -2.630  -0.477  0.00  0.00    -0.085 HD
ATOM      9  H   LIG    1        0.884  -1.223  -1.208  0.00  0.00    -0.085 HD
ENDBRANCH   1   2
BRANCH   1  10
ATOM     10  C   LIG    1       -2.683  -2.582   0.014  0.00  0.00    -0.035 A 
ATOM     11  C   LIG    1       -3.529  -2.215  -1.016  0.00  0.00    +0.004 A 
ATOM     12  C   LIG    1       -4.849  -2.625  -1.005  0.00  0.00    +0.000 A 
ATOM     13  C   LIG    1       -5.323  -3.403   0.034  0.00  0.00    +0.000 A 
ATOM     14  C   LIG    1       -4.477  -3.771   1.063  0.00  0.00    +0.000 A 
ATOM     15  C   LIG    1       -3.156  -3.365   1.051  0.00  0.00    +0.004 A 
ENDBRANCH   1  10
BRANCH   1  16
ATOM     16  C   LIG    1       -1.185  -0.630   0.010  0.00  0.00    +0.313 C 
ATOM     17  O   LIG    1       -2.208   0.015   0.023  0.00  0.00    -0.250 OA
BRANCH  16  19
ATOM     18  C   LIG    1       -0.017   1.425   0.010  0.00  0.00    +0.280 C 
ATOM     19  O   LIG    1        0.002  -0.004   0.002  0.00  0.00    -0.468 OA
ENDBRANCH  16  19
ENDBRANCH   1  16
TORSDOF 4
