REMARK  Name = ZINC02455295
REMARK                            x       y       z     vdW  Elec       q    Type
REMARK                         _______ _______ _______ _____ _____    ______ ____
ROOT
ATOM      1  C   LIG    1       -1.187   1.624   0.017  0.00  0.00    +0.245 C 
ATOM      2  N   LIG    1       -0.011   0.966   0.007  0.00  0.00    -0.303 N 
ATOM      3  H   LIG    1        0.002  -0.004   0.002  0.00  0.00    +0.150 HD
ATOM      4  O   LIG    1       -1.204   2.839   0.023  0.00  0.00    -0.270 OA
ENDROOT
BRANCH   1   9
ATOM      5  C   LIG    1       -3.631  -1.228   0.011  0.00  0.00    +0.001 A 
ATOM      6  C   LIG    1       -4.837  -0.550   0.021  0.00  0.00    +0.001 A 
ATOM      7  C   LIG    1       -4.859   0.833   0.029  0.00  0.00    +0.013 A 
ATOM      8  C   LIG    1       -3.677   1.545   0.028  0.00  0.00    +0.067 A 
ATOM      9  C   LIG    1       -2.458   0.867   0.018  0.00  0.00    +0.048 A 
ATOM     10  C   LIG    1       -2.442  -0.529   0.005  0.00  0.00    +0.013 A 
BRANCH   8  11
ATOM     11  C   LIG    1       -3.703   3.052   0.036  0.00  0.00    +0.418 C 
ATOM     12  F   LIG    1       -3.058   3.536  -1.107  0.00  0.00    -0.166 F 
ATOM     13  F   LIG    1       -3.047   3.524   1.178  0.00  0.00    -0.166 F 
ATOM     14  F   LIG    1       -5.030   3.495   0.045  0.00  0.00    -0.166 F 
ENDBRANCH   8  11
ENDBRANCH   1   9
BRANCH   2  15
ATOM     15  C   LIG    1        1.248   1.716  -0.001  0.00  0.00    +0.201 C 
BRANCH  15  16
ATOM     16  C   LIG    1        2.406   0.752  -0.017  0.00  0.00    +0.243 C 
ATOM     17  N   LIG    1        3.671   1.218  -0.026  0.00  0.00    -0.252 N 
ATOM     18  H   LIG    1        3.835   2.174  -0.023  0.00  0.00    +0.169 HD
ATOM     19  O   LIG    1        2.201  -0.443  -0.021  0.00  0.00    -0.273 OA
BRANCH  17  20
ATOM     20  N   LIG    1        4.721   0.345  -0.041  0.00  0.00    -0.254 NA
ATOM     21  H   LIG    1        5.601   0.838  -0.047  0.00  0.00    +0.140 HD
ATOM     22  H   LIG    1        4.655  -0.286  -0.825  0.00  0.00    +0.140 HD
ENDBRANCH  17  20
ENDBRANCH  15  16
ENDBRANCH   2  15
TORSDOF 5
