REMARK  Name = ZINC02712323
REMARK                            x       y       z     vdW  Elec       q    Type
REMARK                         _______ _______ _______ _____ _____    ______ ____
ROOT
ATOM      1  N   LIG    1       -5.016  -7.718   0.239  0.00  0.00    -0.306 N 
ATOM      2  C   LIG    1       -5.594  -7.772   1.476  0.00  0.00    +0.090 A 
ATOM      3  C   LIG    1       -6.830  -8.259   1.671  0.00  0.00    +0.030 A 
ATOM      4  C   LIG    1       -7.598  -8.754   0.528  0.00  0.00    +0.030 A 
ATOM      5  C   LIG    1       -7.004  -8.699  -0.754  0.00  0.00    +0.050 A 
ATOM      6  C   LIG    1       -7.710  -9.162  -1.864  0.00  0.00    +0.014 A 
ATOM      7  C   LIG    1       -8.981  -9.668  -1.701  0.00  0.00    +0.004 A 
ATOM      8  C   LIG    1       -9.569  -9.723  -0.445  0.00  0.00    +0.046 A 
ATOM      9  C   LIG    1       -8.890  -9.272   0.671  0.00  0.00    +0.130 A 
ATOM     10  C   LIG    1       -5.650  -8.146  -0.870  0.00  0.00    +0.260 A 
ATOM     11  O   LIG    1       -5.104  -8.077  -1.957  0.00  0.00    -0.267 OA
ENDROOT
BRANCH   1  12
ATOM     12  C   LIG    1       -3.663  -7.171   0.114  0.00  0.00    +0.220 C 
BRANCH  12  15
ATOM     13  N   LIG    1       -2.611  -4.965  -0.266  0.00  0.00    -0.284 N 
ATOM     14  H   LIG    1       -1.751  -5.413  -0.297  0.00  0.00    +0.155 HD
ATOM     15  C   LIG    1       -3.741  -5.685  -0.120  0.00  0.00    +0.237 C 
ATOM     16  O   LIG    1       -4.822  -5.136  -0.176  0.00  0.00    -0.274 OA
BRANCH  13  20
ATOM     17  C   LIG    1       -2.811  -0.812  -0.584  0.00  0.00    +0.121 A 
ATOM     18  C   LIG    1       -3.729  -1.492   0.202  0.00  0.00    +0.047 A 
ATOM     19  C   LIG    1       -3.664  -2.867   0.308  0.00  0.00    +0.027 A 
ATOM     20  C   LIG    1       -2.678  -3.570  -0.373  0.00  0.00    +0.034 A 
ATOM     21  C   LIG    1       -1.760  -2.888  -1.160  0.00  0.00    +0.027 A 
ATOM     22  C   LIG    1       -1.829  -1.514  -1.270  0.00  0.00    +0.047 A 
BRANCH  17  23
ATOM     23  O   LIG    1       -2.876   0.542  -0.688  0.00  0.00    -0.492 OA
BRANCH  23  25
ATOM     24  C   LIG    1       -3.825   2.709  -0.194  0.00  0.00    +0.048 C 
ATOM     25  C   LIG    1       -3.911   1.200   0.044  0.00  0.00    +0.225 C 
ENDBRANCH  23  25
ENDBRANCH  17  23
ENDBRANCH  13  20
ENDBRANCH  12  15
ENDBRANCH   1  12
BRANCH   9  26
ATOM     26  O   LIG    1       -9.473  -9.330   1.897  0.00  0.00    -0.477 OA
BRANCH  26  27
ATOM     27  C   LIG    1      -10.836  -9.757   1.949  0.00  0.00    +0.278 C 
ATOM     28  C   LIG    1      -10.891 -11.285   1.972  0.00  0.00    +0.064 C 
BRANCH  27  29
ATOM     29  C   LIG    1      -11.487  -9.211   3.193  0.00  0.00    +0.348 C 
ATOM     30  O   LIG    1      -10.849  -8.527   3.958  0.00  0.00    -0.247 OA
BRANCH  29  31
ATOM     31  O   LIG    1      -12.775  -9.484   3.452  0.00  0.00    -0.462 OA
BRANCH  31  32
ATOM     32  C   LIG    1      -13.327  -8.934   4.650  0.00  0.00    +0.229 C 
ATOM     33  C   LIG    1      -14.794  -9.351   4.774  0.00  0.00    +0.048 C 
ENDBRANCH  31  32
ENDBRANCH  29  31
ENDBRANCH  27  29
ENDBRANCH  26  27
ENDBRANCH   9  26
TORSDOF 10
