REMARK  Name = ZINC02584032
REMARK                            x       y       z     vdW  Elec       q    Type
REMARK                         _______ _______ _______ _____ _____    ______ ____
ROOT
ATOM      1  C   LIG    1        1.500  -2.373   2.473  0.00  0.00    +0.171 A 
ATOM      2  C   LIG    1        1.607  -3.690   2.793  0.00  0.00    +0.078 A 
ATOM      3  N   LIG    1        2.341  -3.773   3.933  0.00  0.00    -0.299 N 
ATOM      4  C   LIG    1        2.726  -4.938   4.601  0.00  0.00    +0.060 A 
ATOM      5  C   LIG    1        3.996  -4.956   5.176  0.00  0.00    +0.030 A 
ATOM      6  C   LIG    1        4.451  -6.074   5.839  0.00  0.00    +0.048 A 
ATOM      7  C   LIG    1        3.643  -7.200   5.939  0.00  0.00    +0.121 A 
ATOM      8  C   LIG    1        2.382  -7.196   5.379  0.00  0.00    +0.060 A 
ATOM      9  C   LIG    1        1.903  -6.059   4.706  0.00  0.00    +0.064 A 
ATOM     10  C   LIG    1        0.540  -6.117   4.163  0.00  0.00    +0.249 C 
ATOM     11  N   LIG    1        0.163  -5.603   2.989  0.00  0.00    -0.289 N 
ATOM     12  C   LIG    1       -1.200  -5.652   2.428  0.00  0.00    +0.109 C 
ATOM     13  C   LIG    1       -1.029  -5.398   0.910  0.00  0.00    +0.021 C 
ATOM     14  C   LIG    1        0.139  -4.376   0.894  0.00  0.00    +0.030 C 
ATOM     15  O   LIG    1       -0.308  -6.674   4.832  0.00  0.00    -0.270 OA
ATOM     16  C   LIG    1        2.654  -2.498   4.303  0.00  0.00    +0.205 A 
ATOM     17  C   LIG    1        1.028  -4.865   2.052  0.00  0.00    +0.126 C 
ATOM     18  N   LIG    1        2.163  -1.669   3.428  0.00  0.00    -0.228 NA
ENDROOT
BRANCH   1  19
ATOM     19  C   LIG    1        0.801  -1.813   1.304  0.00  0.00    +0.360 C 
ATOM     20  O   LIG    1        1.306  -1.887   0.201  0.00  0.00    -0.243 OA
BRANCH  19  21
ATOM     21  O   LIG    1       -0.399  -1.219   1.458  0.00  0.00    -0.460 OA
BRANCH  21  23
ATOM     22  C   LIG    1       -2.364  -0.067   0.650  0.00  0.00    +0.048 C 
ATOM     23  C   LIG    1       -1.020  -0.698   0.281  0.00  0.00    +0.229 C 
ENDBRANCH  21  23
ENDBRANCH  19  21
ENDBRANCH   1  19
BRANCH   7  24
ATOM     24  O   LIG    1        4.094  -8.306   6.588  0.00  0.00    -0.495 OA
ATOM     25  C   LIG    1        5.410  -8.240   7.143  0.00  0.00    +0.277 C 
ENDBRANCH   7  24
TORSDOF 4
