REMARK  Name = ZINC03289414
REMARK                            x       y       z     vdW  Elec       q    Type
REMARK                         _______ _______ _______ _____ _____    ______ ____
ROOT
ATOM      1  C   LIG    1        0.948  -2.185   0.042  0.00  0.00    +0.139 C 
ATOM      2  N   LIG    1        2.004  -2.935   0.145  0.00  0.00    -0.188 NA
ENDROOT
BRANCH   1   7
ATOM      3  C   LIG    1        2.475   1.239  -0.055  0.00  0.00    +0.001 A 
ATOM      4  C   LIG    1        1.349   2.047  -0.042  0.00  0.00    +0.001 A 
ATOM      5  C   LIG    1        0.088   1.490  -0.001  0.00  0.00    +0.015 A 
ATOM      6  C   LIG    1       -0.061   0.102   0.026  0.00  0.00    +0.067 A 
ATOM      7  C   LIG    1        1.086  -0.721   0.013  0.00  0.00    +0.008 A 
ATOM      8  C   LIG    1        2.352  -0.134  -0.028  0.00  0.00    +0.010 A 
BRANCH   6   9
ATOM      9  C   LIG    1       -1.404  -0.499   0.070  0.00  0.00    +0.337 C 
ATOM     10  O   LIG    1       -2.389   0.215   0.199  0.00  0.00    -0.245 OA
BRANCH   9  11
ATOM     11  O   LIG    1       -1.535  -1.712  -0.023  0.00  0.00    -0.477 OA
ATOM     12  H   LIG    1       -0.780  -2.258  -0.122  0.00  0.00    +0.295 HD
ENDBRANCH   9  11
ENDBRANCH   6   9
ENDBRANCH   1   7
BRANCH   2  13
ATOM     13  N   LIG    1        1.883  -4.329   0.068  0.00  0.00    -0.218 N 
ATOM     14  H   LIG    1        1.005  -4.737   0.010  0.00  0.00    +0.176 HD
BRANCH  13  15
ATOM     15  C   LIG    1        2.987  -5.102   0.073  0.00  0.00    +0.150 C 
ATOM     16  S   LIG    1        2.849  -6.794  -0.152  0.00  0.00    -0.017 S 
BRANCH  15  17
ATOM     17  N   LIG    1        4.200  -4.544   0.256  0.00  0.00    -0.322 N 
ATOM     18  H   LIG    1        4.273  -3.597   0.456  0.00  0.00    +0.148 HD
BRANCH  17  19
ATOM     19  C   LIG    1        5.408  -5.366   0.153  0.00  0.00    +0.072 C 
ATOM     20  C   LIG    1        5.680  -6.044   1.497  0.00  0.00    +0.022 C 
ATOM     21  C   LIG    1        6.942  -6.902   1.389  0.00  0.00    +0.002 C 
ATOM     22  C   LIG    1        8.131  -6.016   1.015  0.00  0.00    +0.000 C 
ATOM     23  C   LIG    1        7.859  -5.338  -0.329  0.00  0.00    +0.002 C 
ATOM     24  C   LIG    1        6.598  -4.480  -0.222  0.00  0.00    +0.022 C 
ENDBRANCH  17  19
ENDBRANCH  15  17
ENDBRANCH  13  15
ENDBRANCH   2  13
TORSDOF 7
