REMARK  Name = ZINC02867405
REMARK                            x       y       z     vdW  Elec       q    Type
REMARK                         _______ _______ _______ _____ _____    ______ ____
ROOT
ATOM      1  C   LIG    1       -1.433  -0.534   0.013  0.00  0.00    +0.150 C 
ATOM      2  C   LIG    1       -2.062  -0.166   1.344  0.00  0.00    +0.240 C 
ATOM      3  N   LIG    1       -3.185   0.585   1.308  0.00  0.00    -0.241 N 
ATOM      4  H   LIG    1       -3.614   0.838   2.141  0.00  0.00    +0.159 HD
ATOM      5  C   LIG    1       -3.728   0.994   0.131  0.00  0.00    +0.278 C 
ATOM      6  N   LIG    1       -3.242   0.716  -1.054  0.00  0.00    -0.130 NA
ATOM      7  O   LIG    1       -1.579  -0.531   2.394  0.00  0.00    -0.274 OA
ATOM      8  C   LIG    1       -2.138  -0.014  -1.226  0.00  0.00    +0.260 C 
ATOM      9  O   LIG    1       -1.711  -0.256  -2.338  0.00  0.00    -0.272 OA
ENDROOT
BRANCH   1  10
ATOM     10  C   LIG    1       -1.376  -2.037  -0.075  0.00  0.00    -0.024 A 
ATOM     11  C   LIG    1       -0.152  -2.677  -0.142  0.00  0.00    +0.006 A 
ATOM     12  C   LIG    1       -0.093  -4.054  -0.223  0.00  0.00    +0.009 A 
ATOM     13  C   LIG    1       -1.271  -4.799  -0.238  0.00  0.00    -0.018 A 
ATOM     14  C   LIG    1       -2.502  -4.149  -0.170  0.00  0.00    +0.009 A 
ATOM     15  C   LIG    1       -2.548  -2.772  -0.084  0.00  0.00    +0.006 A 
BRANCH  13  16
ATOM     16  C   LIG    1       -1.215  -6.279  -0.325  0.00  0.00    -0.018 A 
ATOM     17  C   LIG    1        0.016  -6.929  -0.387  0.00  0.00    +0.008 A 
ATOM     18  C   LIG    1        0.063  -8.306  -0.468  0.00  0.00    +0.001 A 
ATOM     19  C   LIG    1       -1.109  -9.041  -0.488  0.00  0.00    +0.000 A 
ATOM     20  C   LIG    1       -2.334  -8.400  -0.427  0.00  0.00    +0.001 A 
ATOM     21  C   LIG    1       -2.392  -7.024  -0.340  0.00  0.00    +0.008 A 
ENDBRANCH  13  16
ENDBRANCH   1  10
BRANCH   1  23
ATOM     22  C   LIG    1       -0.019   1.526   0.010  0.00  0.00    +0.006 C 
ATOM     23  C   LIG    1        0.002  -0.004   0.002  0.00  0.00    +0.027 C 
ENDBRANCH   1  23
BRANCH   5  24
ATOM     24  O   LIG    1       -4.846   1.739   0.186  0.00  0.00    -0.483 OA
ATOM     25  H   LIG    1       -5.223   1.958   1.016  0.00  0.00    +0.295 HD
ENDBRANCH   5  24
TORSDOF 4
