REMARK  Name = ZINC02712349
REMARK                            x       y       z     vdW  Elec       q    Type
REMARK                         _______ _______ _______ _____ _____    ______ ____
ROOT
ATOM      1  C   LIG    1        2.721  -4.399   2.849  0.00  0.00    +0.130 A 
ATOM      2  C   LIG    1        3.670  -3.659   3.528  0.00  0.00    +0.046 A 
ATOM      3  C   LIG    1        4.820  -4.261   4.021  0.00  0.00    +0.004 A 
ATOM      4  C   LIG    1        5.040  -5.609   3.845  0.00  0.00    +0.014 A 
ATOM      5  C   LIG    1        4.098  -6.380   3.164  0.00  0.00    +0.050 A 
ATOM      6  C   LIG    1        4.282  -7.819   2.948  0.00  0.00    +0.260 A 
ATOM      7  O   LIG    1        5.278  -8.382   3.366  0.00  0.00    -0.267 OA
ATOM      8  N   LIG    1        3.329  -8.515   2.297  0.00  0.00    -0.306 N 
ATOM      9  C   LIG    1        2.197  -7.922   1.811  0.00  0.00    +0.090 A 
ATOM     10  C   LIG    1        1.952  -6.610   1.960  0.00  0.00    +0.030 A 
ATOM     11  C   LIG    1        2.923  -5.772   2.665  0.00  0.00    +0.030 A 
ENDROOT
BRANCH   1  12
ATOM     12  O   LIG    1        1.600  -3.801   2.370  0.00  0.00    -0.477 OA
BRANCH  12  13
ATOM     13  C   LIG    1        1.517  -2.380   2.497  0.00  0.00    +0.278 C 
ATOM     14  C   LIG    1        0.975  -2.023   3.883  0.00  0.00    +0.064 C 
BRANCH  13  15
ATOM     15  C   LIG    1        0.592  -1.834   1.440  0.00  0.00    +0.348 C 
ATOM     16  O   LIG    1       -0.011  -2.590   0.716  0.00  0.00    -0.247 OA
BRANCH  15  17
ATOM     17  O   LIG    1        0.439  -0.508   1.302  0.00  0.00    -0.462 OA
BRANCH  17  19
ATOM     18  C   LIG    1       -0.497   1.469   0.275  0.00  0.00    +0.048 C 
ATOM     19  C   LIG    1       -0.453  -0.060   0.280  0.00  0.00    +0.229 C 
ENDBRANCH  17  19
ENDBRANCH  15  17
ENDBRANCH  13  15
ENDBRANCH  12  13
ENDBRANCH   1  12
BRANCH   8  20
ATOM     20  C   LIG    1        3.518  -9.953   2.091  0.00  0.00    +0.220 C 
BRANCH  20  21
ATOM     21  C   LIG    1        4.248 -10.183   0.793  0.00  0.00    +0.233 C 
ATOM     22  N   LIG    1        4.534 -11.438   0.395  0.00  0.00    -0.310 N 
ATOM     23  H   LIG    1        4.270 -12.193   0.943  0.00  0.00    +0.149 HD
ATOM     24  O   LIG    1        4.577  -9.239   0.107  0.00  0.00    -0.274 OA
BRANCH  22  25
ATOM     25  C   LIG    1        5.244 -11.662  -0.867  0.00  0.00    +0.139 C 
BRANCH  25  26
ATOM     26  C   LIG    1        5.438 -13.141  -1.079  0.00  0.00    -0.030 A 
ATOM     27  C   LIG    1        6.571 -13.766  -0.592  0.00  0.00    +0.005 A 
ATOM     28  C   LIG    1        6.750 -15.123  -0.786  0.00  0.00    +0.000 A 
ATOM     29  C   LIG    1        5.795 -15.855  -1.466  0.00  0.00    +0.000 A 
ATOM     30  C   LIG    1        4.662 -15.231  -1.952  0.00  0.00    +0.000 A 
ATOM     31  C   LIG    1        4.481 -13.875  -1.754  0.00  0.00    +0.005 A 
ENDBRANCH  25  26
ENDBRANCH  22  25
ENDBRANCH  20  21
ENDBRANCH   8  20
TORSDOF 9
