REMARK  Name = ZINC02569901
REMARK                            x       y       z     vdW  Elec       q    Type
REMARK                         _______ _______ _______ _____ _____    ______ ____
ROOT
ATOM      1  C   LIG    1       -0.777   1.606  -3.730  0.00  0.00    +0.042 C 
ENDROOT
BRANCH   1   2
ATOM      2  N   LIG    1       -0.103   1.143  -4.956  0.00  0.00    +0.388 N 
ATOM      3  H   LIG    1       -0.595   1.521  -5.774  0.00  0.00    -0.089 HD
ATOM      4  H   LIG    1       -0.118   0.126  -5.000  0.00  0.00    -0.089 HD
ATOM      5  H   LIG    1        0.862   1.469  -4.969  0.00  0.00    -0.089 HD
ENDBRANCH   1   2
BRANCH   1   6
ATOM      6  P   LIG    1       -0.801   3.429  -3.720  0.00  0.00    +0.314 P 
ATOM      7  O   LIG    1        0.583   3.940  -3.609  0.00  0.00    -0.261 OA
BRANCH   6   8
ATOM      8  O   LIG    1       -1.667   3.947  -2.465  0.00  0.00    -0.325 OA
ATOM      9  H   LIG    1       -1.268   3.625  -1.642  0.00  0.00    +0.220 HD
ENDBRANCH   6   8
BRANCH   6  10
ATOM     10  O   LIG    1       -1.463   3.964  -5.086  0.00  0.00    -0.325 OA
ATOM     11  H   LIG    1       -0.941   3.652  -5.842  0.00  0.00    +0.220 HD
ENDBRANCH   6  10
ENDBRANCH   1   6
BRANCH   1  12
ATOM     12  C   LIG    1       -0.037   1.099  -2.490  0.00  0.00    -0.004 C 
BRANCH  12  13
ATOM     13  C   LIG    1       -0.753   1.593  -1.232  0.00  0.00    -0.001 C 
BRANCH  13  14
ATOM     14  C   LIG    1       -0.013   1.086   0.008  0.00  0.00    -0.000 C 
BRANCH  14  16
ATOM     15  C   LIG    1        0.011   1.072   2.506  0.00  0.00    +0.004 C 
ATOM     16  C   LIG    1       -0.729   1.579   1.267  0.00  0.00    -0.003 C 
ENDBRANCH  14  16
ENDBRANCH  13  14
ENDBRANCH  12  13
ENDBRANCH   1  12
TORSDOF 8
