REMARK  Name = ZINC03343726
REMARK                            x       y       z     vdW  Elec       q    Type
REMARK                         _______ _______ _______ _____ _____    ______ ____
ROOT
ATOM      1  N   LIG    1        1.252  -2.941   1.556  0.00  0.00    -0.174 NA
ATOM      2  C   LIG    1        2.526  -3.144   2.258  0.00  0.00    +0.126 C 
ATOM      3  C   LIG    1        2.522  -2.295   3.536  0.00  0.00    +0.126 C 
ATOM      4  N   LIG    1        1.267  -2.542   4.260  0.00  0.00    -0.174 NA
ATOM      5  C   LIG    1       -0.007  -2.338   3.557  0.00  0.00    +0.126 C 
ATOM      6  C   LIG    1       -0.004  -3.182   2.281  0.00  0.00    +0.126 C 
ENDROOT
BRANCH   1   7
ATOM      7  S   LIG    1        1.230  -2.442  -0.024  0.00  0.00    +0.061 S 
ATOM      8  O   LIG    1        2.475  -2.829  -0.589  0.00  0.00    -0.153 OA
ATOM      9  O   LIG    1       -0.015  -2.860  -0.565  0.00  0.00    -0.153 OA
BRANCH   7  15
ATOM     10  C   LIG    1       -0.017   1.378   0.010  0.00  0.00    +0.005 A 
ATOM     11  C   LIG    1        1.171   2.086   0.002  0.00  0.00    +0.038 A 
ATOM     12  C   LIG    1        2.379   1.410  -0.013  0.00  0.00    +0.125 A 
ATOM     13  F   LIG    1        3.540   2.101  -0.021  0.00  0.00    -0.205 F 
ATOM     14  C   LIG    1        2.396   0.025  -0.021  0.00  0.00    +0.066 A 
ATOM     15  C   LIG    1        1.208  -0.680  -0.013  0.00  0.00    +0.108 A 
ATOM     16  C   LIG    1        0.002  -0.004   0.002  0.00  0.00    +0.029 A 
ENDBRANCH   7  15
ENDBRANCH   1   7
BRANCH   4  17
ATOM     17  S   LIG    1        1.289  -3.040   5.839  0.00  0.00    +0.061 S 
ATOM     18  O   LIG    1        2.546  -3.667   6.050  0.00  0.00    -0.153 OA
ATOM     19  O   LIG    1        0.056  -3.709   6.070  0.00  0.00    -0.153 OA
BRANCH  17  20
ATOM     20  C   LIG    1        1.273  -1.592   6.842  0.00  0.00    +0.109 A 
ATOM     21  C   LIG    1        2.464  -1.002   7.221  0.00  0.00    +0.032 A 
ATOM     22  C   LIG    1        2.456   0.133   8.009  0.00  0.00    +0.051 A 
ATOM     23  C   LIG    1        1.252   0.684   8.422  0.00  0.00    +0.162 A 
ATOM     24  C   LIG    1        0.054   0.091   8.039  0.00  0.00    +0.164 A 
ATOM     25  O   LIG    1       -1.139   0.620   8.427  0.00  0.00    -0.485 OA
ATOM     26  C   LIG    1       -1.110   1.542   9.521  0.00  0.00    +0.270 C 
ATOM     27  C   LIG    1        0.034   2.537   9.281  0.00  0.00    +0.270 C 
ATOM     28  O   LIG    1        1.259   1.800   9.201  0.00  0.00    -0.485 OA
ATOM     29  C   LIG    1        0.069  -1.046   7.245  0.00  0.00    +0.078 A 
ENDBRANCH  17  20
ENDBRANCH   4  17
TORSDOF 4
