REMARK  Name = ZINC02391110
REMARK                            x       y       z     vdW  Elec       q    Type
REMARK                         _______ _______ _______ _____ _____    ______ ____
ROOT
ATOM      1  C   ILE A  1       -2.335   0.159   0.580  0.00  0.00    +0.202 C 
ATOM      2  N   PRO A  2       -3.019   1.121  -0.070  0.00  0.00    -0.291 N 
ATOM      3  CD  PRO A  2       -2.428   2.293  -0.733  0.00  0.00    +0.108 C 
ATOM      4  CG  PRO A  2       -3.591   3.124  -1.316  0.00  0.00    +0.021 C 
ATOM      5  CB  PRO A  2       -4.804   2.670  -0.462  0.00  0.00    +0.033 C 
ATOM      6  CA  PRO A  2       -4.482   1.169  -0.240  0.00  0.00    +0.162 C 
ATOM      7  O   ILE A  1       -2.932  -0.712   1.177  0.00  0.00    -0.277 OA
ENDROOT
BRANCH   6   8
ATOM      8  C   PRO A  2       -5.172   0.663   1.000  0.00  0.00    +0.234 C 
ATOM      9  N   ILE A  3       -6.382   0.078   0.908  0.00  0.00    -0.301 N 
ATOM     10  H   ILE A  3       -6.810  -0.017   0.042  0.00  0.00    +0.150 HD
ATOM     11  O   PRO A  2       -4.637   0.782   2.083  0.00  0.00    -0.274 OA
BRANCH   9  12
ATOM     12  CA  ILE A  3       -7.052  -0.414   2.114  0.00  0.00    +0.185 C 
BRANCH  12  13
ATOM     13  C   ILE A  3       -6.564  -1.805   2.428  0.00  0.00    +0.326 C 
ATOM     14  O   ILE A  3       -5.742  -2.331   1.717  0.00  0.00    -0.249 OA
BRANCH  13  15
ATOM     15  OXT ILE A  3       -7.044  -2.459   3.498  0.00  0.00    -0.479 OA
ATOM     16  HXT ILE A  3       -7.682  -2.051   4.049  0.00  0.00    +0.295 HD
ENDBRANCH  13  15
ENDBRANCH  12  13
BRANCH  12  17
ATOM     17  CB  ILE A  3       -8.564  -0.444   1.881  0.00  0.00    +0.017 C 
ATOM     18  CG2 ILE A  3       -8.892  -1.466   0.791  0.00  0.00    +0.010 C 
BRANCH  17  19
ATOM     19  CG1 ILE A  3       -9.272  -0.838   3.179  0.00  0.00    +0.002 C 
ATOM     20  CD1 ILE A  3      -10.787  -0.748   2.982  0.00  0.00    +0.004 C 
ENDBRANCH  17  19
ENDBRANCH  12  17
ENDBRANCH   9  12
ENDBRANCH   6   8
BRANCH   1  21
ATOM     21  CA  ILE A  1       -0.828   0.165   0.566  0.00  0.00    +0.016 C 
BRANCH  21  22
ATOM     22  N   ILE A  1       -0.336  -0.286   1.880  0.00  0.00    +0.386 N 
ATOM     23  H1  ILE A  1       -0.711   0.329   2.611  0.00  0.00    -0.089 HD
ATOM     24  H2  ILE A  1        0.682  -0.247   1.903  0.00  0.00    -0.089 HD
ATOM     25  H3  ILE A  1       -0.642  -1.241   2.059  0.00  0.00    -0.089 HD
ENDBRANCH  21  22
BRANCH  21  26
ATOM     26  CB  ILE A  1       -0.324  -0.763  -0.541  0.00  0.00    -0.020 C 
ATOM     27  CG2 ILE A  1       -0.863  -0.285  -1.891  0.00  0.00    +0.006 C 
BRANCH  26  29
ATOM     28  CD1 ILE A  1        1.712  -1.763  -1.588  0.00  0.00    +0.004 C 
ATOM     29  CG1 ILE A  1        1.205  -0.743  -0.566  0.00  0.00    -0.001 C 
ENDBRANCH  26  29
ENDBRANCH  21  26
ENDBRANCH   1  21
TORSDOF 10
