REMARK  Name = ZINC03002717
REMARK                            x       y       z     vdW  Elec       q    Type
REMARK                         _______ _______ _______ _____ _____    ______ ____
ROOT
ATOM      1  C   LIG    1        7.608   7.032  -2.114  0.00  0.00    +0.028 C 
ATOM      2  C   LIG    1        7.957   8.016  -1.247  0.00  0.00    +0.080 C 
ATOM      3  C   LIG    1        9.096   8.954  -1.298  0.00  0.00    +0.261 C 
ATOM      4  N   LIG    1        9.193   9.822  -0.304  0.00  0.00    -0.224 N 
ATOM      5  C   LIG    1        8.297   9.844   0.703  0.00  0.00    +0.286 C 
ATOM      6  O   LIG    1        8.266  10.579   1.671  0.00  0.00    -0.262 OA
ATOM      7  O   LIG    1        9.903   8.932  -2.208  0.00  0.00    -0.269 OA
ATOM      8  S   LIG    1        7.161   8.536   0.267  0.00  0.00    -0.026 S 
ENDROOT
BRANCH   1  12
ATOM      9  C   LIG    1        4.511   4.317  -1.105  0.00  0.00    +0.121 A 
ATOM     10  C   LIG    1        4.988   5.209  -0.151  0.00  0.00    +0.046 A 
ATOM     11  C   LIG    1        5.997   6.089  -0.472  0.00  0.00    +0.011 A 
ATOM     12  C   LIG    1        6.535   6.092  -1.765  0.00  0.00    -0.024 A 
ATOM     13  C   LIG    1        6.048   5.194  -2.723  0.00  0.00    +0.011 A 
ATOM     14  C   LIG    1        5.042   4.315  -2.389  0.00  0.00    +0.046 A 
BRANCH   9  15
ATOM     15  O   LIG    1        3.519   3.448  -0.782  0.00  0.00    -0.487 OA
BRANCH  15  16
ATOM     16  C   LIG    1        3.019   3.503   0.556  0.00  0.00    +0.264 C 
BRANCH  16  20
ATOM     17  C   LIG    1       -0.062   0.584   1.039  0.00  0.00    +0.000 A 
ATOM     18  C   LIG    1        1.253   0.251   1.304  0.00  0.00    +0.000 A 
ATOM     19  C   LIG    1        2.250   1.195   1.146  0.00  0.00    +0.007 A 
ATOM     20  C   LIG    1        1.932   2.474   0.728  0.00  0.00    -0.010 A 
ATOM     21  C   LIG    1        0.616   2.808   0.468  0.00  0.00    +0.007 A 
ATOM     22  C   LIG    1       -0.382   1.864   0.626  0.00  0.00    +0.000 A 
ENDBRANCH  16  20
ENDBRANCH  15  16
ENDBRANCH   9  15
ENDBRANCH   1  12
BRANCH   4  23
ATOM     23  C   LIG    1       10.301  10.780  -0.297  0.00  0.00    +0.152 C 
BRANCH  23  24
ATOM     24  C   LIG    1        9.886  12.034  -1.024  0.00  0.00    -0.029 A 
ATOM     25  C   LIG    1       10.106  12.149  -2.383  0.00  0.00    +0.008 A 
ATOM     26  C   LIG    1        9.721  13.296  -3.052  0.00  0.00    +0.038 A 
ATOM     27  C   LIG    1        9.124  14.334  -2.357  0.00  0.00    +0.123 A 
ATOM     28  F   LIG    1        8.752  15.458  -3.007  0.00  0.00    -0.205 F 
ATOM     29  C   LIG    1        8.909  14.219  -0.994  0.00  0.00    +0.038 A 
ATOM     30  C   LIG    1        9.290  13.069  -0.329  0.00  0.00    +0.008 A 
ENDBRANCH  23  24
ENDBRANCH   4  23
TORSDOF 6
