REMARK  Name = ZINC02518841
REMARK                            x       y       z     vdW  Elec       q    Type
REMARK                         _______ _______ _______ _____ _____    ______ ____
ROOT
ATOM      1  C   LIG    1       -1.287   3.110   0.032  0.00  0.00    +0.128 A 
ATOM      2  C   LIG    1       -1.234   1.744   0.017  0.00  0.00    +0.046 A 
ATOM      3  C   LIG    1       -0.013   1.076   0.008  0.00  0.00    +0.004 A 
ATOM      4  C   LIG    1        1.164   1.762   0.000  0.00  0.00    +0.009 A 
ATOM      5  C   LIG    1        1.152   3.167   0.008  0.00  0.00    -0.014 A 
ATOM      6  C   LIG    1        2.347   3.907   0.000  0.00  0.00    +0.008 A 
ATOM      7  C   LIG    1        2.297   5.267   0.007  0.00  0.00    +0.001 A 
ATOM      8  C   LIG    1        1.077   5.940   0.022  0.00  0.00    +0.001 A 
ATOM      9  C   LIG    1       -0.100   5.256   0.030  0.00  0.00    +0.012 A 
ATOM     10  C   LIG    1       -0.088   3.852   0.024  0.00  0.00    +0.024 A 
ENDROOT
BRANCH   1  11
ATOM     11  O   LIG    1       -2.486   3.747   0.046  0.00  0.00    -0.493 OA
BRANCH  11  12
ATOM     12  C   LIG    1       -3.656   2.927   0.053  0.00  0.00    +0.210 C 
BRANCH  12  13
ATOM     13  C   LIG    1       -4.901   3.816   0.069  0.00  0.00    -0.038 C 
BRANCH  13  15
ATOM     14  C   LIG    1       -5.191   3.696  -2.332  0.00  0.00    -0.096 C 
ATOM     15  N   LIG    1       -4.946   4.596  -1.185  0.00  0.00    +0.378 N 
ATOM     16  H   LIG    1       -4.044   5.067  -1.318  0.00  0.00    -0.082 HD
ATOM     17  C   LIG    1       -6.013   5.616  -1.108  0.00  0.00    -0.096 C 
ENDBRANCH  13  15
ENDBRANCH  12  13
ENDBRANCH  11  12
ENDBRANCH   1  11
TORSDOF 4
