REMARK  Name = ZINC02532865
REMARK                            x       y       z     vdW  Elec       q    Type
REMARK                         _______ _______ _______ _____ _____    ______ ____
ROOT
ATOM      1  C   LIG    1       -4.837  -1.118   0.041  0.00  0.00    +0.164 A 
ATOM      2  C   LIG    1       -5.558  -2.298   0.042  0.00  0.00    +0.064 A 
ATOM      3  C   LIG    1       -4.910  -3.525   0.029  0.00  0.00    +0.022 A 
ATOM      4 BR   LIG    1       -5.922  -5.122   0.029  0.00  0.00    -0.050 Br
ATOM      5  C   LIG    1       -3.544  -3.587   0.015  0.00  0.00    +0.027 A 
ATOM      6  C   LIG    1       -2.795  -2.407   0.015  0.00  0.00    +0.026 A 
ATOM      7  C   LIG    1       -1.363  -2.110  -0.002  0.00  0.00    +0.065 A 
ATOM      8  C   LIG    1       -1.259  -0.755   0.010  0.00  0.00    +0.213 A 
ATOM      9  O   LIG    1       -2.491  -0.205   0.024  0.00  0.00    -0.445 OA
ATOM     10  C   LIG    1       -3.443  -1.160   0.028  0.00  0.00    +0.177 A 
ENDROOT
BRANCH   1  12
ATOM     11  C   LIG    1       -6.912   0.042   0.068  0.00  0.00    +0.277 C 
ATOM     12  O   LIG    1       -5.484   0.077   0.054  0.00  0.00    -0.491 OA
ENDBRANCH   1  12
BRANCH   8  13
ATOM     13  C   LIG    1        0.002  -0.004   0.002  0.00  0.00    +0.373 C 
ATOM     14  O   LIG    1        1.063  -0.598  -0.011  0.00  0.00    -0.242 OA
BRANCH  13  15
ATOM     15  O   LIG    1       -0.016   1.344   0.009  0.00  0.00    -0.475 OA
ATOM     16  H   LIG    1       -0.834   1.802   0.020  0.00  0.00    +0.296 HD
ENDBRANCH  13  15
ENDBRANCH   8  13
TORSDOF 3
