REMARK  Name = ZINC03045392
REMARK                            x       y       z     vdW  Elec       q    Type
REMARK                         _______ _______ _______ _____ _____    ______ ____
ROOT
ATOM      1  C   LIG    1       -0.017   1.372   0.010  0.00  0.00    +0.001 A 
ATOM      2  C   LIG    1        1.161   2.099   0.002  0.00  0.00    +0.002 A 
ATOM      3  C   LIG    1        2.377   1.432  -0.013  0.00  0.00    +0.029 A 
ATOM      4  C   LIG    1        2.399   0.066  -0.020  0.00  0.00    +0.121 A 
ATOM      5  C   LIG    1        1.225  -0.698  -0.013  0.00  0.00    +0.065 A 
ATOM      6  C   LIG    1        1.491  -2.142  -0.024  0.00  0.00    +0.269 C 
ATOM      7  N   LIG    1        2.769  -2.551  -0.039  0.00  0.00    -0.153 N 
ATOM      8  O   LIG    1        0.579  -2.946  -0.020  0.00  0.00    -0.268 OA
ATOM      9  S   LIG    1        3.686  -1.151  -0.040  0.00  0.00    +0.079 S 
ATOM     10  O   LIG    1        4.343  -1.066  -1.297  0.00  0.00    -0.150 OA
ATOM     11  O   LIG    1        4.367  -1.080   1.206  0.00  0.00    -0.150 OA
ATOM     12  C   LIG    1        0.002  -0.004   0.002  0.00  0.00    +0.015 A 
ENDROOT
BRANCH   7  13
ATOM     13  C   LIG    1        3.258  -3.932  -0.051  0.00  0.00    +0.243 C 
ATOM     14 CL   LIG    1        3.443  -4.489  -1.755  0.00  0.00    -0.103 Cl
ENDBRANCH   7  13
TORSDOF 1
