REMARK  Name = ZINC03130150
REMARK                            x       y       z     vdW  Elec       q    Type
REMARK                         _______ _______ _______ _____ _____    ______ ____
ROOT
ATOM      1  N   LIG    1        3.510   1.339  -2.177  0.00  0.00    -0.202 N 
ATOM      2  C   LIG    1        2.742   2.340  -1.712  0.00  0.00    +0.258 C 
ATOM      3  C   LIG    1        1.466   1.768  -1.225  0.00  0.00    +0.050 A 
ATOM      4  C   LIG    1        0.323   2.306  -0.654  0.00  0.00    +0.014 A 
ATOM      5  C   LIG    1       -0.727   1.477  -0.299  0.00  0.00    +0.012 A 
ATOM      6  C   LIG    1       -0.641   0.101  -0.512  0.00  0.00    +0.023 A 
ATOM      7  C   LIG    1        0.509  -0.450  -1.088  0.00  0.00    +0.025 A 
ATOM      8  C   LIG    1        1.560   0.378  -1.444  0.00  0.00    +0.050 A 
ATOM      9  O   LIG    1        3.044   3.516  -1.694  0.00  0.00    -0.269 OA
ATOM     10  C   LIG    1        2.886   0.153  -2.055  0.00  0.00    +0.258 C 
ATOM     11  O   LIG    1        3.338  -0.923  -2.392  0.00  0.00    -0.269 OA
ENDROOT
BRANCH   1  20
ATOM     12  C   LIG    1        8.191   1.352  -0.287  0.00  0.00    +0.001 A 
ATOM     13  C   LIG    1        6.926   1.182   0.271  0.00  0.00    +0.001 A 
ATOM     14  C   LIG    1        5.807   1.229  -0.503  0.00  0.00    +0.010 A 
ATOM     15  C   LIG    1        5.926   1.453  -1.884  0.00  0.00    +0.004 A 
ATOM     16  C   LIG    1        7.212   1.626  -2.452  0.00  0.00    -0.016 A 
ATOM     17  C   LIG    1        7.332   1.851  -3.834  0.00  0.00    +0.008 A 
ATOM     18  C   LIG    1        6.218   1.900  -4.614  0.00  0.00    +0.002 A 
ATOM     19  C   LIG    1        4.950   1.725  -4.068  0.00  0.00    +0.024 A 
ATOM     20  C   LIG    1        4.789   1.508  -2.717  0.00  0.00    +0.052 A 
ATOM     21  C   LIG    1        8.344   1.571  -1.621  0.00  0.00    +0.008 A 
ENDBRANCH   1  20
BRANCH   6  22
ATOM     22  C   LIG    1       -1.768  -0.777  -0.130  0.00  0.00    +0.193 C 
ATOM     23  O   LIG    1       -2.814  -0.291   0.253  0.00  0.00    -0.287 OA
BRANCH  22  24
ATOM     24  C   LIG    1       -1.622  -2.242  -0.212  0.00  0.00    +0.022 A 
ATOM     25  C   LIG    1       -0.402  -2.845   0.112  0.00  0.00    +0.015 A 
ATOM     26  C   LIG    1       -0.272  -4.213   0.039  0.00  0.00    +0.047 A 
ATOM     27  C   LIG    1       -1.348  -4.995  -0.368  0.00  0.00    +0.128 A 
ATOM     28  C   LIG    1       -2.561  -4.400  -0.697  0.00  0.00    +0.047 A 
ATOM     29  C   LIG    1       -2.701  -3.033  -0.621  0.00  0.00    +0.015 A 
BRANCH  27  30
ATOM     30  O   LIG    1       -1.213  -6.343  -0.445  0.00  0.00    -0.456 OA
BRANCH  30  31
ATOM     31  C   LIG    1       -0.859  -6.881  -1.639  0.00  0.00    +0.128 A 
ATOM     32  C   LIG    1       -0.631  -6.053  -2.732  0.00  0.00    +0.047 A 
ATOM     33  C   LIG    1       -0.266  -6.595  -3.944  0.00  0.00    +0.018 A 
ATOM     34  C   LIG    1       -0.136  -7.981  -4.077  0.00  0.00    +0.059 A 
ATOM     35  C   LIG    1       -0.371  -8.810  -2.977  0.00  0.00    +0.018 A 
ATOM     36  C   LIG    1       -0.730  -8.260  -1.767  0.00  0.00    +0.047 A 
BRANCH  34  37
ATOM     37  C   LIG    1        0.249  -8.566  -5.375  0.00  0.00    +0.337 C 
ATOM     38  O   LIG    1        0.363  -9.770  -5.489  0.00  0.00    -0.245 OA
BRANCH  37  39
ATOM     39  O   LIG    1        0.476  -7.764  -6.434  0.00  0.00    -0.477 OA
ATOM     40  H   LIG    1        0.388  -6.836  -6.347  0.00  0.00    +0.295 HD
ENDBRANCH  37  39
ENDBRANCH  34  37
ENDBRANCH  30  31
ENDBRANCH  27  30
ENDBRANCH  22  24
ENDBRANCH   6  22
TORSDOF 7
