REMARK  Name = ZINC02572485
REMARK                            x       y       z     vdW  Elec       q    Type
REMARK                         _______ _______ _______ _____ _____    ______ ____
ROOT
ATOM      1  C   LIG    1        3.515   3.361   0.004  0.00  0.00    +0.163 A 
ATOM      2  C   LIG    1        3.538   1.996  -0.004  0.00  0.00    +0.062 A 
ATOM      3  C   LIG    1        2.344   1.283  -0.166  0.00  0.00    +0.044 A 
ATOM      4  C   LIG    1        1.121   1.981  -0.320  0.00  0.00    +0.080 A 
ATOM      5  N   LIG    1       -0.010   1.273  -0.473  0.00  0.00    -0.235 NA
ATOM      6  C   LIG    1        0.022  -0.038  -0.479  0.00  0.00    +0.223 A 
ATOM      7  N   LIG    1        1.140  -0.732  -0.339  0.00  0.00    -0.220 NA
ATOM      8  C   LIG    1        1.120   3.381  -0.307  0.00  0.00    +0.078 A 
ATOM      9  C   LIG    1        2.313  -0.132  -0.181  0.00  0.00    +0.134 A 
ATOM     10  C   LIG    1        2.308   4.058  -0.147  0.00  0.00    +0.164 A 
ENDROOT
BRANCH   9  11
ATOM     11  N   LIG    1        3.472  -0.868  -0.036  0.00  0.00    -0.299 N 
ATOM     12  H   LIG    1        4.331  -0.419  -0.003  0.00  0.00    +0.154 HD
BRANCH  11  13
ATOM     13  C   LIG    1        3.407  -2.261   0.062  0.00  0.00    +0.033 A 
ATOM     14  C   LIG    1        4.433  -3.043  -0.453  0.00  0.00    +0.023 A 
ATOM     15  C   LIG    1        4.367  -4.419  -0.353  0.00  0.00    +0.003 A 
ATOM     16  C   LIG    1        3.281  -5.019   0.258  0.00  0.00    +0.015 A 
ATOM     17  C   LIG    1        2.258  -4.242   0.773  0.00  0.00    +0.020 A 
ATOM     18 BR   LIG    1        0.776  -5.067   1.609  0.00  0.00    -0.050 Br
ATOM     19  C   LIG    1        2.321  -2.865   0.681  0.00  0.00    +0.038 A 
ENDBRANCH  11  13
ENDBRANCH   9  11
BRANCH   1  20
ATOM     20  O   LIG    1        4.676   4.053   0.161  0.00  0.00    -0.489 OA
BRANCH  20  22
ATOM     21  C   LIG    1        7.066   4.229   0.474  0.00  0.00    +0.048 C 
ATOM     22  C   LIG    1        5.872   3.286   0.310  0.00  0.00    +0.226 C 
ENDBRANCH  20  22
ENDBRANCH   1  20
BRANCH  10  23
ATOM     23  O   LIG    1        2.311   5.417  -0.135  0.00  0.00    -0.489 OA
BRANCH  23  24
ATOM     24  C   LIG    1        1.050   6.069  -0.293  0.00  0.00    +0.226 C 
ATOM     25  C   LIG    1        1.251   7.585  -0.253  0.00  0.00    +0.048 C 
ENDBRANCH  23  24
ENDBRANCH  10  23
TORSDOF 6
