REMARK  Name = ZINC02689651
REMARK                            x       y       z     vdW  Elec       q    Type
REMARK                         _______ _______ _______ _____ _____    ______ ____
ROOT
ATOM      1  C   LIG    1        5.972   2.310   0.247  0.00  0.00    +0.145 C 
ATOM      2  C   LIG    1        4.691   1.518   0.262  0.00  0.00    +0.288 C 
ATOM      3  N   LIG    1        3.565   2.106  -0.019  0.00  0.00    -0.046 NA
ATOM      4  C   LIG    1        2.384   1.413  -0.013  0.00  0.00    +0.183 A 
ATOM      5  C   LIG    1        1.165   2.092   0.002  0.00  0.00    +0.057 A 
ATOM      6  C   LIG    1       -0.017   1.381   0.010  0.00  0.00    +0.024 A 
ATOM      7  C   LIG    1        0.002  -0.004   0.002  0.00  0.00    +0.042 A 
ATOM      8 CL   LIG    1       -1.491  -0.890   0.012  0.00  0.00    -0.084 Cl
ATOM      9  C   LIG    1        1.209  -0.685  -0.014  0.00  0.00    +0.032 A 
ATOM     10  C   LIG    1        2.393   0.017  -0.022  0.00  0.00    +0.052 A 
ATOM     11  C   LIG    1        3.719  -0.705  -0.042  0.00  0.00    +0.233 C 
ATOM     12  N   LIG    1        4.721   0.182   0.569  0.00  0.00    -0.203 N 
ENDROOT
BRANCH  11  13
ATOM     13  C   LIG    1        4.110  -1.015  -1.464  0.00  0.00    -0.000 A 
ATOM     14  C   LIG    1        4.672  -0.032  -2.256  0.00  0.00    +0.008 A 
ATOM     15  C   LIG    1        5.035  -0.318  -3.559  0.00  0.00    +0.000 A 
ATOM     16  C   LIG    1        4.828  -1.584  -4.072  0.00  0.00    +0.000 A 
ATOM     17  C   LIG    1        4.262  -2.567  -3.281  0.00  0.00    +0.000 A 
ATOM     18  C   LIG    1        3.902  -2.282  -1.977  0.00  0.00    +0.008 A 
ENDBRANCH  11  13
BRANCH  12  19
ATOM     19  C   LIG    1        5.731  -0.350   1.487  0.00  0.00    +0.347 C 
BRANCH  19  20
ATOM     20  C   LIG    1        6.951  -0.765   0.706  0.00  0.00    +0.347 C 
ATOM     21  O   LIG    1        6.974  -0.630  -0.494  0.00  0.00    -0.247 OA
BRANCH  20  22
ATOM     22  O   LIG    1        8.011  -1.286   1.344  0.00  0.00    -0.465 OA
ATOM     23  C   LIG    1        9.151  -1.663   0.528  0.00  0.00    +0.280 C 
ENDBRANCH  20  22
ENDBRANCH  19  20
ENDBRANCH  12  19
TORSDOF 4
