REMARK  Name = ZINC02872412
REMARK                            x       y       z     vdW  Elec       q    Type
REMARK                         _______ _______ _______ _____ _____    ______ ____
ROOT
ATOM      1  C   LIG    1        1.856  -6.469   2.771  0.00  0.00    +0.135 C 
ATOM      2  S   LIG    1        2.528  -5.428   3.952  0.00  0.00    -0.019 S 
ENDROOT
BRANCH   1   3
ATOM      3  N   LIG    1        1.135  -5.957   1.754  0.00  0.00    -0.297 N 
ATOM      4  H   LIG    1        0.688  -6.550   1.130  0.00  0.00    +0.154 HD
BRANCH   3   8
ATOM      5  C   LIG    1        0.831  -1.825   1.285  0.00  0.00    +0.121 A 
ATOM      6  C   LIG    1        2.049  -2.397   1.620  0.00  0.00    +0.047 A 
ATOM      7  C   LIG    1        2.151  -3.765   1.775  0.00  0.00    +0.027 A 
ATOM      8  C   LIG    1        1.033  -4.569   1.597  0.00  0.00    +0.033 A 
ATOM      9  C   LIG    1       -0.187  -3.996   1.261  0.00  0.00    +0.027 A 
ATOM     10  C   LIG    1       -0.288  -2.627   1.111  0.00  0.00    +0.047 A 
BRANCH   5  11
ATOM     11  O   LIG    1        0.731  -0.478   1.132  0.00  0.00    -0.492 OA
BRANCH  11  13
ATOM     12  C   LIG    1        1.617   1.771   1.112  0.00  0.00    +0.048 C 
ATOM     13  C   LIG    1        1.923   0.287   1.325  0.00  0.00    +0.225 C 
ENDBRANCH  11  13
ENDBRANCH   5  11
ENDBRANCH   3   8
ENDBRANCH   1   3
BRANCH   1  14
ATOM     14  N   LIG    1        2.048  -7.800   2.859  0.00  0.00    -0.326 N 
ATOM     15  H   LIG    1        1.667  -8.390   2.190  0.00  0.00    +0.148 HD
BRANCH  14  16
ATOM     16  C   LIG    1        2.831  -8.356   3.965  0.00  0.00    +0.105 C 
BRANCH  16  17
ATOM     17  C   LIG    1        2.895  -9.879   3.829  0.00  0.00    +0.040 C 
BRANCH  17  18
ATOM     18  C   LIG    1        3.713 -10.459   4.985  0.00  0.00    +0.124 C 
BRANCH  18  19
ATOM     19  N   LIG    1        3.775 -11.917   4.855  0.00  0.00    -0.338 N 
ATOM     20  C   LIG    1        2.888 -12.818   5.381  0.00  0.00    +0.104 A 
ATOM     21  C   LIG    1        3.318 -14.043   5.023  0.00  0.00    +0.101 A 
ATOM     22  N   LIG    1        4.436 -13.894   4.298  0.00  0.00    -0.352 N 
ATOM     23  H   LIG    1        4.955 -14.617   3.912  0.00  0.00    +0.166 HD
ATOM     24  C   LIG    1        4.713 -12.624   4.189  0.00  0.00    +0.173 A 
ENDBRANCH  18  19
ENDBRANCH  17  18
ENDBRANCH  16  17
ENDBRANCH  14  16
ENDBRANCH   1  14
TORSDOF 9
