REMARK  Name = ZINC02712333
REMARK                            x       y       z     vdW  Elec       q    Type
REMARK                         _______ _______ _______ _____ _____    ______ ____
ROOT
ATOM      1  C   LIG    1        1.474  -4.516   2.769  0.00  0.00    +0.130 A 
ATOM      2  C   LIG    1        1.632  -3.639   3.825  0.00  0.00    +0.046 A 
ATOM      3  C   LIG    1        1.803  -4.111   5.119  0.00  0.00    +0.004 A 
ATOM      4  C   LIG    1        1.818  -5.463   5.380  0.00  0.00    +0.014 A 
ATOM      5  C   LIG    1        1.660  -6.370   4.332  0.00  0.00    +0.050 A 
ATOM      6  C   LIG    1        1.668  -7.821   4.554  0.00  0.00    +0.260 A 
ATOM      7  O   LIG    1        1.815  -8.272   5.675  0.00  0.00    -0.267 OA
ATOM      8  N   LIG    1        1.493  -8.648   3.504  0.00  0.00    -0.306 N 
ATOM      9  C   LIG    1        1.325  -8.184   2.230  0.00  0.00    +0.090 A 
ATOM     10  C   LIG    1        1.311  -6.873   1.938  0.00  0.00    +0.030 A 
ATOM     11  C   LIG    1        1.480  -5.895   3.014  0.00  0.00    +0.030 A 
ENDROOT
BRANCH   1  12
ATOM     12  O   LIG    1        1.308  -4.046   1.505  0.00  0.00    -0.477 OA
BRANCH  12  13
ATOM     13  C   LIG    1        1.184  -2.630   1.351  0.00  0.00    +0.278 C 
ATOM     14  C   LIG    1        2.577  -2.001   1.283  0.00  0.00    +0.064 C 
BRANCH  13  15
ATOM     15  C   LIG    1        0.433  -2.327   0.080  0.00  0.00    +0.348 C 
ATOM     16  O   LIG    1        0.123  -3.224  -0.667  0.00  0.00    -0.247 OA
BRANCH  15  17
ATOM     17  O   LIG    1        0.109  -1.060  -0.222  0.00  0.00    -0.462 OA
BRANCH  17  19
ATOM     18  C   LIG    1       -0.881   0.649  -1.614  0.00  0.00    +0.048 C 
ATOM     19  C   LIG    1       -0.603  -0.845  -1.442  0.00  0.00    +0.229 C 
ENDBRANCH  17  19
ENDBRANCH  15  17
ENDBRANCH  13  15
ENDBRANCH  12  13
ENDBRANCH   1  12
BRANCH   8  20
ATOM     20  C   LIG    1        1.496 -10.095   3.735  0.00  0.00    +0.220 C 
BRANCH  20  21
ATOM     21  C   LIG    1        2.904 -10.619   3.619  0.00  0.00    +0.237 C 
ATOM     22  N   LIG    1        3.151 -11.932   3.794  0.00  0.00    -0.284 N 
ATOM     23  H   LIG    1        2.415 -12.551   3.920  0.00  0.00    +0.155 HD
ATOM     24  O   LIG    1        3.816  -9.859   3.368  0.00  0.00    -0.274 OA
BRANCH  22  25
ATOM     25  C   LIG    1        4.471 -12.403   3.796  0.00  0.00    +0.037 A 
ATOM     26  C   LIG    1        4.758 -13.664   3.292  0.00  0.00    +0.027 A 
ATOM     27  C   LIG    1        6.059 -14.129   3.293  0.00  0.00    +0.051 A 
ATOM     28  C   LIG    1        7.081 -13.338   3.797  0.00  0.00    +0.162 A 
ATOM     29  C   LIG    1        6.797 -12.074   4.300  0.00  0.00    +0.164 A 
ATOM     30  O   LIG    1        7.787 -11.280   4.790  0.00  0.00    -0.485 OA
ATOM     31  C   LIG    1        9.024 -11.922   5.117  0.00  0.00    +0.270 C 
ATOM     32  C   LIG    1        9.404 -12.853   3.957  0.00  0.00    +0.270 C 
ATOM     33  O   LIG    1        8.357 -13.815   3.793  0.00  0.00    -0.485 OA
ATOM     34  C   LIG    1        5.491 -11.606   4.295  0.00  0.00    +0.072 A 
ENDBRANCH  22  25
ENDBRANCH  20  21
ENDBRANCH   8  20
TORSDOF 8
