REMARK  Name = ZINC03029861
REMARK                            x       y       z     vdW  Elec       q    Type
REMARK                         _______ _______ _______ _____ _____    ______ ____
ROOT
ATOM      1  H   LIG    1       -0.748   3.452  -5.907  0.00  0.00    +0.189 HD
ATOM      2  N   LIG    1        0.142   3.496  -6.291  0.00  0.00    -0.279 NA
ATOM      3  C   LIG    1        1.190   3.335  -5.532  0.00  0.00    +0.158 C 
ATOM      4  N   LIG    1        2.522   3.363  -5.890  0.00  0.00    -0.261 N 
ATOM      5  H   LIG    1        2.768   3.518  -6.816  0.00  0.00    +0.157 HD
ATOM      6  C   LIG    1        3.467   3.179  -4.984  0.00  0.00    +0.256 C 
ATOM      7  C   LIG    1        3.026   2.948  -3.595  0.00  0.00    +0.078 C 
ATOM      8  C   LIG    1        3.770   2.733  -2.480  0.00  0.00    +0.028 C 
ATOM      9  O   LIG    1        4.647   3.199  -5.281  0.00  0.00    -0.269 OA
ATOM     10  S   LIG    1        1.250   3.019  -3.775  0.00  0.00    -0.049 S 
ENDROOT
BRANCH   8  11
ATOM     11  C   LIG    1        3.114   2.361  -1.220  0.00  0.00    -0.020 A 
ATOM     12  C   LIG    1        3.797   2.496  -0.006  0.00  0.00    +0.012 A 
ATOM     13  C   LIG    1        3.179   2.146   1.175  0.00  0.00    +0.050 A 
ATOM     14  C   LIG    1        1.877   1.663   1.164  0.00  0.00    +0.158 A 
ATOM     15  C   LIG    1        1.191   1.520  -0.041  0.00  0.00    +0.159 A 
ATOM     16  C   LIG    1        1.803   1.869  -1.230  0.00  0.00    +0.057 A 
BRANCH  14  17
ATOM     17  O   LIG    1        1.271   1.325   2.332  0.00  0.00    -0.503 OA
ATOM     18  H   LIG    1        1.405   0.403   2.592  0.00  0.00    +0.292 HD
ENDBRANCH  14  17
BRANCH  15  19
ATOM     19  O   LIG    1       -0.082   1.042  -0.047  0.00  0.00    -0.503 OA
ATOM     20  H   LIG    1       -0.141   0.081  -0.130  0.00  0.00    +0.292 HD
ENDBRANCH  15  19
ENDBRANCH   8  11
TORSDOF 3
