REMARK  Name = ZINC02558855
REMARK                            x       y       z     vdW  Elec       q    Type
REMARK                         _______ _______ _______ _____ _____    ______ ____
ROOT
ATOM      1  C   LIG    1        0.519   3.032   5.247  0.00  0.00    +0.034 C 
ENDROOT
BRANCH   1   2
ATOM      2  C   LIG    1        0.782   3.918   6.437  0.00  0.00    -0.075 C 
ATOM      3  C   LIG    1       -0.360   4.357   7.317  0.00  0.00    +0.039 C 
ATOM      4  C   LIG    1        2.003   4.306   6.707  0.00  0.00    -0.017 C 
BRANCH   4   5
ATOM      5  C   LIG    1        2.256   5.267   7.841  0.00  0.00    +0.096 C 
BRANCH   5   6
ATOM      6  S   LIG    1        2.885   6.833   7.178  0.00  0.00    -0.145 S 
BRANCH   6   7
ATOM      7  C   LIG    1        3.134   7.864   8.650  0.00  0.00    +0.189 C 
BRANCH   7   8
ATOM      8  C   LIG    1        3.663   9.213   8.235  0.00  0.00    +0.315 C 
ATOM      9  O   LIG    1        3.854   9.456   7.055  0.00  0.00    -0.250 OA
BRANCH   8  10
ATOM     10  O   LIG    1        3.899  10.061   9.078  0.00  0.00    -0.480 OA
ATOM     11  H   LIG    1        3.752   9.874   9.984  0.00  0.00    +0.295 HD
ENDBRANCH   8  10
ENDBRANCH   7   8
ENDBRANCH   6   7
ENDBRANCH   5   6
ENDBRANCH   4   5
ENDBRANCH   1   2
BRANCH   1  12
ATOM     12  C   LIG    1        0.495   1.569   5.695  0.00  0.00    +0.031 C 
BRANCH  12  15
ATOM     13  C   LIG    1        1.048  -0.303   4.230  0.00  0.00    -0.076 C 
ATOM     14  C   LIG    1        2.299  -0.496   5.047  0.00  0.00    +0.039 C 
ATOM     15  C   LIG    1        0.231   0.683   4.505  0.00  0.00    -0.028 C 
BRANCH  13  16
ATOM     16  C   LIG    1        0.735  -1.246   3.096  0.00  0.00    +0.034 C 
BRANCH  16  17
ATOM     17  C   LIG    1        1.458  -0.778   1.831  0.00  0.00    +0.031 C 
BRANCH  17  21
ATOM     18  C   LIG    1        0.385   0.219  -0.576  0.00  0.00    +0.038 C 
ATOM     19  C   LIG    1        0.646  -1.257  -0.422  0.00  0.00    -0.080 C 
ATOM     20  C   LIG    1        0.334  -2.199  -1.556  0.00  0.00    +0.038 C 
ATOM     21  C   LIG    1        1.145  -1.721   0.697  0.00  0.00    -0.028 C 
ENDBRANCH  17  21
ENDBRANCH  16  17
ENDBRANCH  13  16
ENDBRANCH  12  15
ENDBRANCH   1  12
TORSDOF 11
