REMARK  Name = ZINC03630929
REMARK                            x       y       z     vdW  Elec       q    Type
REMARK                         _______ _______ _______ _____ _____    ______ ____
ROOT
ATOM      1  O   LIG    1       -2.054   1.005  -1.282  0.00  0.00    -0.489 OA
ENDROOT
BRANCH   1   2
ATOM      2  C   LIG    1       -2.848   1.353  -2.329  0.00  0.00    +0.121 A 
ATOM      3  C   LIG    1       -2.382   2.247  -3.284  0.00  0.00    +0.046 A 
ATOM      4  C   LIG    1       -3.182   2.597  -4.351  0.00  0.00    +0.012 A 
ATOM      5  C   LIG    1       -4.464   2.062  -4.464  0.00  0.00    -0.018 A 
ATOM      6  C   LIG    1       -4.931   1.170  -3.501  0.00  0.00    +0.012 A 
ATOM      7  C   LIG    1       -4.124   0.819  -2.439  0.00  0.00    +0.046 A 
BRANCH   5   8
ATOM      8  C   LIG    1       -5.330   2.442  -5.607  0.00  0.00    -0.018 A 
ATOM      9  C   LIG    1       -6.611   1.904  -5.724  0.00  0.00    +0.008 A 
ATOM     10  C   LIG    1       -7.414   2.265  -6.787  0.00  0.00    +0.001 A 
ATOM     11  C   LIG    1       -6.946   3.151  -7.741  0.00  0.00    +0.000 A 
ATOM     12  C   LIG    1       -5.675   3.684  -7.632  0.00  0.00    +0.001 A 
ATOM     13  C   LIG    1       -4.865   3.334  -6.571  0.00  0.00    +0.008 A 
ENDBRANCH   5   8
ENDBRANCH   1   2
BRANCH   1  14
ATOM     14  C   LIG    1       -0.753   1.593  -1.232  0.00  0.00    +0.258 C 
BRANCH  14  15
ATOM     15  C   LIG    1       -0.013   1.086   0.008  0.00  0.00    +0.135 C 
BRANCH  15  16
ATOM     16  O   LIG    1       -0.682   1.547   1.184  0.00  0.00    -0.390 OA
ATOM     17  H   LIG    1       -0.732   2.510   1.256  0.00  0.00    +0.210 HD
ENDBRANCH  15  16
BRANCH  15  18
ATOM     18  C   LIG    1        1.423   1.615  -0.003  0.00  0.00    -0.047 C 
BRANCH  18  19
ATOM     19  N   LIG    1        2.164   1.027   1.129  0.00  0.00    +0.382 N 
ATOM     20  H   LIG    1        2.168   0.004   1.035  0.00  0.00    -0.085 HD
ATOM     21  H   LIG    1        1.702   1.288   2.008  0.00  0.00    -0.085 HD
BRANCH  19  23
ATOM     22  C   LIG    1        3.612   2.859   1.882  0.00  0.00    -0.014 C 
ATOM     23  C   LIG    1        3.554   1.520   1.143  0.00  0.00    -0.078 C 
ATOM     24  C   LIG    1        4.441   0.502   1.861  0.00  0.00    -0.014 C 
ENDBRANCH  19  23
ENDBRANCH  18  19
ENDBRANCH  15  18
ENDBRANCH  14  15
ENDBRANCH   1  14
TORSDOF 8
