REMARK  Name = ZINC02516053
REMARK                            x       y       z     vdW  Elec       q    Type
REMARK                         _______ _______ _______ _____ _____    ______ ____
ROOT
ATOM      1  C   LIG    1        0.847  -1.998  -1.206  0.00  0.00    -0.004 A 
ATOM      2  C   LIG    1        2.002  -2.576  -0.715  0.00  0.00    +0.053 A 
ATOM      3  C   LIG    1        2.122  -3.956  -0.668  0.00  0.00    +0.134 A 
ATOM      4  C   LIG    1        1.080  -4.758  -1.114  0.00  0.00    +0.058 A 
ATOM      5  I   LIG    1        1.260  -6.844  -1.043  0.00  0.00    -0.040 I 
ATOM      6  C   LIG    1       -0.075  -4.180  -1.604  0.00  0.00    +0.064 A 
ATOM      7  C   LIG    1       -0.196  -2.799  -1.646  0.00  0.00    +0.124 A 
ENDROOT
BRANCH   3   8
ATOM      8  O   LIG    1        3.259  -4.525  -0.185  0.00  0.00    -0.494 OA
ATOM      9  C   LIG    1        4.290  -3.639   0.256  0.00  0.00    +0.277 C 
ENDBRANCH   3   8
BRANCH   7  10
ATOM     10  O   LIG    1       -1.335  -2.230  -2.123  0.00  0.00    -0.495 OA
ATOM     11  C   LIG    1       -2.368  -3.115  -2.560  0.00  0.00    +0.277 C 
ENDBRANCH   7  10
BRANCH   1  12
ATOM     12  C   LIG    1        0.718  -0.497  -1.257  0.00  0.00    +0.022 C 
BRANCH  12  14
ATOM     13  C   LIG    1       -0.019   1.526   0.010  0.00  0.00    -0.014 C 
ATOM     14  C   LIG    1        0.002  -0.004   0.002  0.00  0.00    -0.074 C 
BRANCH  14  15
ATOM     15  N   LIG    1       -1.376  -0.512   0.012  0.00  0.00    +0.380 N 
ATOM     16  H   LIG    1       -1.848  -0.187   0.843  0.00  0.00    -0.090 HD
ATOM     17  H   LIG    1       -1.362  -1.521   0.007  0.00  0.00    -0.090 HD
ATOM     18  H   LIG    1       -1.864  -0.178  -0.805  0.00  0.00    -0.090 HD
ENDBRANCH  14  15
ENDBRANCH  12  14
ENDBRANCH   1  12
TORSDOF 5
