REMARK  Name = ZINC02579845
REMARK                            x       y       z     vdW  Elec       q    Type
REMARK                         _______ _______ _______ _____ _____    ______ ____
ROOT
ATOM      1  C   LIG    1       -0.869   1.669  -3.604  0.00  0.00    +0.097 A 
ATOM      2  C   LIG    1       -0.511   1.423  -4.923  0.00  0.00    +0.023 A 
ATOM      3  C   LIG    1       -1.280   1.948  -5.920  0.00  0.00    +0.020 A 
ATOM      4  C   LIG    1       -2.391   2.711  -5.575  0.00  0.00    +0.064 A 
ATOM      5  S   LIG    1       -2.337   2.668  -3.791  0.00  0.00    -0.079 S 
ENDROOT
BRANCH   1   6
ATOM      6  C   LIG    1       -0.209   1.218  -2.368  0.00  0.00    +0.346 C 
ATOM      7  O   LIG    1        0.791   0.531  -2.430  0.00  0.00    -0.244 OA
BRANCH   6   8
ATOM      8  O   LIG    1       -0.715   1.567  -1.168  0.00  0.00    -0.461 OA
BRANCH   8  10
ATOM      9  C   LIG    1       -0.729   1.579   1.267  0.00  0.00    +0.048 C 
ATOM     10  C   LIG    1       -0.013   1.086   0.008  0.00  0.00    +0.229 C 
ENDBRANCH   8  10
ENDBRANCH   6   8
ENDBRANCH   1   6
BRANCH   4  11
ATOM     11  C   LIG    1       -3.359   3.374  -6.449  0.00  0.00    +0.272 C 
ATOM     12  O   LIG    1       -3.243   3.293  -7.654  0.00  0.00    -0.282 OA
BRANCH  11  13
ATOM     13  C   LIG    1       -4.500   4.158  -5.853  0.00  0.00    +0.456 C 
ATOM     14  F   LIG    1       -3.991   5.195  -5.063  0.00  0.00    -0.163 F 
ATOM     15  F   LIG    1       -5.284   3.311  -5.061  0.00  0.00    -0.163 F 
ATOM     16  F   LIG    1       -5.284   4.695  -6.880  0.00  0.00    -0.163 F 
ENDBRANCH  11  13
ENDBRANCH   4  11
TORSDOF 5
