REMARK  Name = ZINC02530708
REMARK                            x       y       z     vdW  Elec       q    Type
REMARK                         _______ _______ _______ _____ _____    ______ ____
ROOT
ATOM      1  C   LIG    1       -0.016   1.359   0.009  0.00  0.00    +0.134 A 
ATOM      2  C   LIG    1        1.158   2.037   0.002  0.00  0.00    +0.201 A 
ATOM      3  F   LIG    1        1.170   3.388   0.009  0.00  0.00    -0.198 F 
ATOM      4  C   LIG    1        2.365   1.311  -0.013  0.00  0.00    +0.255 A 
ATOM      5  N   LIG    1        2.334  -0.013  -0.020  0.00  0.00    -0.155 NA
ATOM      6  C   LIG    1        1.173  -0.667  -0.013  0.00  0.00    +0.352 A 
ATOM      7  O   LIG    1        1.172  -1.887  -0.019  0.00  0.00    -0.244 OA
ATOM      8  N   LIG    1        0.002  -0.004   0.002  0.00  0.00    -0.297 N 
ENDROOT
BRANCH   4   9
ATOM      9  O   LIG    1        3.550   1.963  -0.021  0.00  0.00    -0.490 OA
ATOM     10  H   LIG    1        3.570   2.899  -0.016  0.00  0.00    +0.294 HD
ENDBRANCH   4   9
BRANCH   8  11
ATOM     11  C   LIG    1       -1.258  -0.751   0.010  0.00  0.00    +0.121 C 
BRANCH  11  12
ATOM     12  CA  LIG    1       -1.711  -1.003  -1.430  0.00  0.00    +0.056 C 
BRANCH  12  13
ATOM     13  N   LIG    1       -1.792   0.276  -2.148  0.00  0.00    +0.388 N 
ATOM     14  H1  LIG    1       -2.457   0.879  -1.688  0.00  0.00    -0.089 HD
ATOM     15  H2  LIG    1       -2.091   0.110  -3.098  0.00  0.00    -0.089 HD
ATOM     16  H3  LIG    1       -0.885   0.717  -2.154  0.00  0.00    -0.089 HD
ENDBRANCH  12  13
BRANCH  12  17
ATOM     17  C   LIG    1       -3.066  -1.661  -1.422  0.00  0.00    +0.292 C 
ATOM     18  O   LIG    1       -4.047  -1.043  -1.800  0.00  0.00    -0.253 OA
BRANCH  17  19
ATOM     19  OXT LIG    1       -3.182  -2.813  -1.038  0.00  0.00    -0.482 OA
ATOM     20  HXT LIG    1       -2.429  -3.288  -0.748  0.00  0.00    +0.295 HD
ENDBRANCH  17  19
ENDBRANCH  12  17
ENDBRANCH  11  12
ENDBRANCH   8  11
TORSDOF 6
