REMARK  Name = ZINC03363856
REMARK                            x       y       z     vdW  Elec       q    Type
REMARK                         _______ _______ _______ _____ _____    ______ ____
ROOT
ATOM      1  C   LIG    1        0.816  -2.217   2.247  0.00  0.00    +0.234 C 
ATOM      2  N   LIG    1       -0.315  -2.817   1.825  0.00  0.00    -0.315 N 
ATOM      3  H   LIG    1       -1.083  -2.281   1.571  0.00  0.00    +0.149 HD
ATOM      4  O   LIG    1        1.776  -2.887   2.564  0.00  0.00    -0.274 OA
ENDROOT
BRANCH   1   5
ATOM      5  C   LIG    1        0.887  -0.714   2.326  0.00  0.00    +0.162 C 
BRANCH   5   6
ATOM      6  N   LIG    1        2.210  -0.312   2.810  0.00  0.00    -0.297 N 
ATOM      7  H   LIG    1        2.972  -0.899   2.682  0.00  0.00    +0.150 HD
ATOM      8  C   LIG    1        2.369   0.873   3.433  0.00  0.00    +0.280 C 
ATOM      9  O   LIG    1        1.413   1.609   3.593  0.00  0.00    -0.267 OA
BRANCH   8  10
ATOM     10  C   LIG    1        3.694   1.275   3.917  0.00  0.00    +0.189 A 
ATOM     11  C   LIG    1        3.992   2.439   4.565  0.00  0.00    +0.054 A 
ATOM     12  C   LIG    1        5.367   2.405   4.843  0.00  0.00    +0.042 A 
ATOM     13  C   LIG    1        5.843   1.237   4.357  0.00  0.00    +0.196 A 
ATOM     14  O   LIG    1        4.830   0.556   3.805  0.00  0.00    -0.458 OA
ENDBRANCH   8  10
ENDBRANCH   5   6
BRANCH   5  16
ATOM     15  C   LIG    1        0.721   1.408   1.018  0.00  0.00    +0.009 C 
ATOM     16  C   LIG    1        0.649  -0.118   0.937  0.00  0.00    +0.012 C 
ATOM     17  C   LIG    1        1.721  -0.629  -0.027  0.00  0.00    +0.009 C 
ENDBRANCH   5  16
ENDBRANCH   1   5
BRANCH   2  18
ATOM     18  C   LIG    1       -0.384  -4.278   1.748  0.00  0.00    +0.096 C 
BRANCH  18  19
ATOM     19  C   LIG    1       -1.804  -4.702   1.369  0.00  0.00    +0.016 C 
BRANCH  19  20
ATOM     20  N   LIG    1       -2.756  -4.155   2.345  0.00  0.00    +0.387 N 
ATOM     21  H   LIG    1       -2.746  -3.147   2.293  0.00  0.00    -0.081 HD
ATOM     22  C   LIG    1       -2.365  -4.575   3.696  0.00  0.00    -0.078 C 
ATOM     23  C   LIG    1       -3.305  -3.941   4.724  0.00  0.00    -0.019 C 
ATOM     24  C   LIG    1       -4.740  -4.393   4.442  0.00  0.00    -0.004 C 
ATOM     25  C   LIG    1       -5.111  -4.015   3.005  0.00  0.00    -0.019 C 
ATOM     26  C   LIG    1       -4.104  -4.646   2.041  0.00  0.00    -0.078 C 
ENDBRANCH  19  20
BRANCH  19  27
ATOM     27  C   LIG    1       -1.896  -6.207   1.368  0.00  0.00    +0.093 A 
ATOM     28  C   LIG    1       -2.005  -6.987   0.278  0.00  0.00    +0.043 A 
ATOM     29  C   LIG    1       -2.061  -8.324   0.736  0.00  0.00    +0.041 A 
ATOM     30  C   LIG    1       -1.982  -8.280   2.078  0.00  0.00    +0.195 A 
ATOM     31  O   LIG    1       -1.876  -6.995   2.455  0.00  0.00    -0.469 OA
ENDBRANCH  19  27
ENDBRANCH  18  19
ENDBRANCH   2  18
TORSDOF 8
