REMARK  Name = ZINC03130265
REMARK                            x       y       z     vdW  Elec       q    Type
REMARK                         _______ _______ _______ _____ _____    ______ ____
ROOT
ATOM      1  C   LIG    1       -3.732   3.632   0.057  0.00  0.00    +0.133 C 
ENDROOT
BRANCH   1  11
ATOM      2  C   LIG    1        1.182   1.777   0.000  0.00  0.00    +0.001 A 
ATOM      3  C   LIG    1       -0.013   1.076   0.008  0.00  0.00    +0.002 A 
ATOM      4  C   LIG    1       -1.223   1.743   0.017  0.00  0.00    +0.024 A 
ATOM      5  C   LIG    1       -1.255   3.132   0.031  0.00  0.00    +0.048 A 
ATOM      6  C   LIG    1       -0.043   3.841   0.023  0.00  0.00    +0.048 A 
ATOM      7  C   LIG    1       -0.393   5.273   0.033  0.00  0.00    +0.250 C 
ATOM      8  C   LIG    1       -1.892   5.302   0.047  0.00  0.00    +0.291 C 
ATOM      9  O   LIG    1       -2.590   6.294   0.059  0.00  0.00    -0.266 OA
ATOM     10  O   LIG    1        0.366   6.221   0.030  0.00  0.00    -0.282 OA
ATOM     11  N   LIG    1       -2.321   4.028   0.045  0.00  0.00    -0.263 N 
ATOM     12  C   LIG    1        1.173   3.157   0.007  0.00  0.00    +0.014 A 
ENDBRANCH   1  11
BRANCH   1  13
ATOM     13  C   LIG    1       -4.209   3.488   1.504  0.00  0.00    +0.133 C 
BRANCH  13  14
ATOM     14  N   LIG    1       -5.619   3.093   1.516  0.00  0.00    -0.263 N 
ATOM     15  C   LIG    1       -6.064   1.773   1.514  0.00  0.00    +0.048 A 
ATOM     16  C   LIG    1       -5.369   0.570   1.503  0.00  0.00    +0.024 A 
ATOM     17  C   LIG    1       -6.056  -0.629   1.503  0.00  0.00    +0.002 A 
ATOM     18  C   LIG    1       -7.441  -0.651   1.517  0.00  0.00    +0.001 A 
ATOM     19  C   LIG    1       -8.151   0.532   1.530  0.00  0.00    +0.014 A 
ATOM     20  C   LIG    1       -7.468   1.748   1.529  0.00  0.00    +0.048 A 
ATOM     21  C   LIG    1       -7.914   3.154   1.540  0.00  0.00    +0.250 C 
ATOM     22  O   LIG    1       -9.054   3.568   1.554  0.00  0.00    -0.282 OA
ATOM     23  C   LIG    1       -6.648   3.958   1.536  0.00  0.00    +0.291 C 
ATOM     24  O   LIG    1       -6.567   5.168   1.546  0.00  0.00    -0.266 OA
ENDBRANCH  13  14
ENDBRANCH   1  13
TORSDOF 3
