REMARK  Name = ZINC02570895
REMARK                            x       y       z     vdW  Elec       q    Type
REMARK                         _______ _______ _______ _____ _____    ______ ____
ROOT
ATOM      1  C   LIG    1        0.070  -4.252  -0.021  0.00  0.00    +0.075 A 
ATOM      2  C   LIG    1        0.078  -5.056  -1.126  0.00  0.00    +0.062 A 
ATOM      3  C   LIG    1        0.084  -6.381  -0.691  0.00  0.00    +0.166 A 
ATOM      4  N   LIG    1        0.081  -6.392   0.618  0.00  0.00    -0.162 NA
ATOM      5  N   LIG    1        0.077  -5.067   1.074  0.00  0.00    -0.232 N 
ENDROOT
BRANCH   1  10
ATOM      6  C   LIG    1        0.041   1.503   0.011  0.00  0.00    +0.044 C 
ATOM      7  C   LIG    1        0.048  -0.004   0.002  0.00  0.00    -0.050 A 
ATOM      8  C   LIG    1       -0.465  -0.689  -1.084  0.00  0.00    +0.004 A 
ATOM      9  C   LIG    1       -0.461  -2.069  -1.098  0.00  0.00    +0.010 A 
ATOM     10  C   LIG    1        0.063  -2.773  -0.013  0.00  0.00    +0.000 A 
ATOM     11  C   LIG    1        0.579  -2.075   1.079  0.00  0.00    +0.010 A 
ATOM     12  C   LIG    1        0.574  -0.696   1.079  0.00  0.00    +0.004 A 
ENDBRANCH   1  10
BRANCH   5  13
ATOM     13  C   LIG    1        0.078  -4.654   2.412  0.00  0.00    +0.066 A 
ATOM     14  C   LIG    1       -0.788  -3.652   2.832  0.00  0.00    +0.030 A 
ATOM     15  C   LIG    1       -0.784  -3.247   4.152  0.00  0.00    +0.030 A 
ATOM     16  C   LIG    1        0.080  -3.837   5.056  0.00  0.00    +0.105 A 
ATOM     17  C   LIG    1        0.943  -4.834   4.641  0.00  0.00    +0.030 A 
ATOM     18  C   LIG    1        0.941  -5.248   3.324  0.00  0.00    +0.030 A 
BRANCH  16  19
ATOM     19  S   LIG    1        0.082  -3.316   6.739  0.00  0.00    +0.056 S 
ATOM     20  O   LIG    1       -0.434  -1.991   6.755  0.00  0.00    -0.153 OA
ATOM     21  O   LIG    1        1.361  -3.641   7.263  0.00  0.00    -0.153 OA
BRANCH  19  22
ATOM     22  N   LIG    1       -1.014  -4.260   7.545  0.00  0.00    -0.204 NA
ATOM     23  H   LIG    1       -1.162  -4.128   8.495  0.00  0.00    +0.144 HD
ATOM     24  H   LIG    1       -1.508  -4.944   7.067  0.00  0.00    +0.144 HD
ENDBRANCH  19  22
ENDBRANCH  16  19
ENDBRANCH   5  13
BRANCH   3  25
ATOM     25  C   LIG    1        0.093  -7.598  -1.580  0.00  0.00    +0.436 C 
ATOM     26  F   LIG    1       -0.566  -7.305  -2.779  0.00  0.00    -0.164 F 
ATOM     27  F   LIG    1       -0.562  -8.652  -0.934  0.00  0.00    -0.164 F 
ATOM     28  F   LIG    1        1.414  -7.968  -1.852  0.00  0.00    -0.164 F 
ENDBRANCH   3  25
TORSDOF 5
