REMARK  Name = ZINC02568376
REMARK                            x       y       z     vdW  Elec       q    Type
REMARK                         _______ _______ _______ _____ _____    ______ ____
ROOT
ATOM      1  C   LIG    1       -0.018   1.503   0.010  0.00  0.00    +0.090 C 
ATOM      2  C   LIG    1        0.002  -0.004   0.002  0.00  0.00    +0.152 A 
ATOM      3  N   LIG    1        0.008  -0.771  -1.060  0.00  0.00    -0.132 NA
ATOM      4  N   LIG    1        0.026  -2.011  -0.713  0.00  0.00    -0.128 NA
ATOM      5  C   LIG    1        0.033  -2.095   0.607  0.00  0.00    +0.178 A 
ATOM      6  C   LIG    1        0.051  -3.171   1.515  0.00  0.00    +0.052 A 
ATOM      7  C   LIG    1        0.069  -2.912   2.849  0.00  0.00    +0.034 A 
ATOM      8  C   LIG    1        0.055  -1.579   3.311  0.00  0.00    +0.092 A 
ATOM      9  N   LIG    1        0.033  -0.574   2.465  0.00  0.00    -0.163 NA
ATOM     10  N   LIG    1        0.023  -0.807   1.088  0.00  0.00    -0.197 N 
ENDROOT
BRANCH   8  11
ATOM     11  C   LIG    1        0.066  -1.309   4.770  0.00  0.00    +0.003 A 
ATOM     12  C   LIG    1        0.095  -2.367   5.677  0.00  0.00    +0.010 A 
ATOM     13  C   LIG    1        0.105  -2.110   7.033  0.00  0.00    +0.001 A 
ATOM     14  C   LIG    1        0.086  -0.805   7.492  0.00  0.00    +0.012 A 
ATOM     15  C   LIG    1        0.058   0.248   6.597  0.00  0.00    +0.055 A 
ATOM     16  C   LIG    1        0.053   0.003   5.239  0.00  0.00    +0.022 A 
BRANCH  15  17
ATOM     17  C   LIG    1        0.037   1.667   7.105  0.00  0.00    +0.417 C 
ATOM     18  F   LIG    1       -1.122   2.308   6.654  0.00  0.00    -0.166 F 
ATOM     19  F   LIG    1        1.162   2.349   6.629  0.00  0.00    -0.166 F 
ATOM     20  F   LIG    1        0.052   1.662   8.504  0.00  0.00    -0.166 F 
ENDBRANCH  15  17
ENDBRANCH   8  11
TORSDOF 2
