REMARK  Name = ZINC03138910
REMARK                            x       y       z     vdW  Elec       q    Type
REMARK                         _______ _______ _______ _____ _____    ______ ____
ROOT
ATOM      1  N   LIG    1       -0.011   0.966   0.007  0.00  0.00    -0.297 N 
ATOM      2  H   LIG    1        0.002   0.018  -0.200  0.00  0.00    +0.154 HD
ENDROOT
BRANCH   1   3
ATOM      3  C   LIG    1       -1.226   1.660   0.034  0.00  0.00    +0.033 A 
ATOM      4  C   LIG    1       -1.475   2.588   1.036  0.00  0.00    +0.024 A 
ATOM      5  C   LIG    1       -2.672   3.277   1.056  0.00  0.00    +0.017 A 
ATOM      6  C   LIG    1       -3.627   3.034   0.085  0.00  0.00    +0.018 A 
ATOM      7 BR   LIG    1       -5.269   3.973   0.119  0.00  0.00    -0.050 Br
ATOM      8  C   LIG    1       -3.384   2.105  -0.911  0.00  0.00    +0.017 A 
ATOM      9  C   LIG    1       -2.186   1.418  -0.940  0.00  0.00    +0.024 A 
ENDBRANCH   1   3
BRANCH   1  10
ATOM     10  C   LIG    1        1.142   1.615   0.265  0.00  0.00    +0.137 C 
ATOM     11  S   LIG    1        1.137   3.312   0.487  0.00  0.00    -0.018 S 
BRANCH  10  13
ATOM     12  C   LIG    1        3.551   1.633   0.629  0.00  0.00    +0.130 C 
ATOM     13  N   LIG    1        2.298   0.927   0.348  0.00  0.00    -0.319 N 
ATOM     14  C   LIG    1        2.302  -0.525   0.159  0.00  0.00    +0.130 C 
ENDBRANCH  10  13
ENDBRANCH   1  10
TORSDOF 3
