REMARK  Name = ZINC02539209
REMARK                            x       y       z     vdW  Elec       q    Type
REMARK                         _______ _______ _______ _____ _____    ______ ____
ROOT
ATOM      1  CA  TRP A  1        4.035  -0.071  -2.601  0.00  0.00    +0.189 C 
ENDROOT
BRANCH   1   3
ATOM      2  C   UNK A  0        1.952  -0.085  -1.337  0.00  0.00    +0.401 C 
ATOM      3  N   TRP A  1        2.641  -0.485  -2.424  0.00  0.00    -0.268 N 
ATOM      4  H   TRP A  1        2.213  -1.047  -3.089  0.00  0.00    +0.153 HD
ATOM      5  O   UNK A  0        2.488   0.619  -0.503  0.00  0.00    -0.226 OA
BRANCH   2   6
ATOM      6  O   UNK A  0        0.671  -0.465  -1.174  0.00  0.00    -0.445 OA
BRANCH   6   8
ATOM      7  C   UNK A  0       -0.019   1.526   0.010  0.00  0.00    +0.055 C 
ATOM      8  C   UNK A  0        0.002  -0.004   0.002  0.00  0.00    +0.107 C 
ATOM      9  C   UNK A  0       -1.433  -0.534   0.013  0.00  0.00    +0.055 C 
ATOM     10  C   UNK A  0        0.742  -0.511   1.242  0.00  0.00    +0.055 C 
ENDBRANCH   6   8
ENDBRANCH   2   6
ENDBRANCH   1   3
BRANCH   1  11
ATOM     11  C   TRP A  1        4.077   1.287  -3.253  0.00  0.00    +0.326 C 
ATOM     12  O   TRP A  1        5.001   2.047  -3.018  0.00  0.00    -0.249 OA
BRANCH  11  13
ATOM     13  OXT TRP A  1        3.187   1.625  -4.015  0.00  0.00    -0.479 OA
ATOM     14  HXT TRP A  1        2.477   1.041  -4.195  0.00  0.00    +0.295 HD
ENDBRANCH  11  13
ENDBRANCH   1  11
BRANCH   1  15
ATOM     15  CB  TRP A  1        4.759  -1.086  -3.489  0.00  0.00    +0.071 C 
BRANCH  15  16
ATOM     16  CG  TRP A  1        4.824  -2.415  -2.783  0.00  0.00    -0.020 A 
ATOM     17  CD1 TRP A  1        5.840  -2.873  -2.034  0.00  0.00    +0.087 A 
ATOM     18  NE1 TRP A  1        5.542  -4.119  -1.555  0.00  0.00    -0.360 N 
ATOM     19  CE2 TRP A  1        4.295  -4.504  -1.994  0.00  0.00    +0.047 A 
ATOM     20  CZ2 TRP A  1        3.525  -5.647  -1.809  0.00  0.00    +0.026 A 
ATOM     21  CH2 TRP A  1        2.275  -5.731  -2.382  0.00  0.00    +0.002 A 
ATOM     22  CZ3 TRP A  1        1.781  -4.691  -3.158  0.00  0.00    +0.001 A 
ATOM     23  CE3 TRP A  1        2.523  -3.561  -3.357  0.00  0.00    +0.010 A 
ATOM     24  HE1 TRP A  1        6.123  -4.652  -0.989  0.00  0.00    +0.165 HD
ATOM     25  CD2 TRP A  1        3.788  -3.451  -2.778  0.00  0.00    +0.003 A 
ENDBRANCH  15  16
ENDBRANCH   1  15
TORSDOF 7
