REMARK  Name = ZINC02573195
REMARK                            x       y       z     vdW  Elec       q    Type
REMARK                         _______ _______ _______ _____ _____    ______ ____
ROOT
ATOM      1  C   LIG    1        1.143   1.519  -2.471  0.00  0.00    +0.090 C 
ATOM      2  C   LIG    1        1.837   1.827  -1.169  0.00  0.00    +0.144 A 
ATOM      3  C   LIG    1        1.224   1.533  -0.001  0.00  0.00    +0.169 A 
ATOM      4  C   LIG    1        1.890   1.835   1.219  0.00  0.00    +0.067 A 
ATOM      5  C   LIG    1        3.177   2.424   1.151  0.00  0.00    +0.057 A 
ATOM      6  C   LIG    1        3.715   2.684  -0.057  0.00  0.00    +0.196 A 
ATOM      7  S   LIG    1        1.159   1.491   2.728  0.00  0.00    -0.048 S 
ATOM      8  O   LIG    1        3.054   2.389  -1.184  0.00  0.00    -0.464 OA
ENDROOT
BRANCH   3   9
ATOM      9  O   LIG    1       -0.011   0.963   0.007  0.00  0.00    -0.503 OA
ATOM     10  H   LIG    1        0.002  -0.004   0.002  0.00  0.00    +0.292 HD
ENDBRANCH   3   9
TORSDOF 1
