REMARK  Name = ZINC02873162
REMARK                            x       y       z     vdW  Elec       q    Type
REMARK                         _______ _______ _______ _____ _____    ______ ____
ROOT
ATOM      1  C   LIG    1        3.680  -0.677  -0.037  0.00  0.00    +0.059 A 
ATOM      2  C   LIG    1        4.000  -1.766  -0.853  0.00  0.00    +0.060 A 
ATOM      3  C   LIG    1        5.387  -2.136  -0.517  0.00  0.00    +0.011 A 
ATOM      4  C   LIG    1        6.257  -3.122  -0.977  0.00  0.00    +0.011 A 
ATOM      5  C   LIG    1        7.527  -3.212  -0.449  0.00  0.00    +0.001 A 
ATOM      6  C   LIG    1        7.939  -2.327   0.536  0.00  0.00    +0.002 A 
ATOM      7  C   LIG    1        7.088  -1.347   1.000  0.00  0.00    +0.026 A 
ATOM      8  C   LIG    1        5.802  -1.239   0.479  0.00  0.00    +0.048 A 
ATOM      9  N   LIG    1        4.755  -0.375   0.740  0.00  0.00    -0.354 N 
ATOM     10  H   LIG    1        4.783   0.346   1.388  0.00  0.00    +0.166 HD
ENDROOT
BRANCH   1  14
ATOM     11  C   LIG    1       -0.038   1.368  -0.003  0.00  0.00    +0.000 A 
ATOM     12  C   LIG    1        1.144   2.088  -0.008  0.00  0.00    +0.001 A 
ATOM     13  C   LIG    1        2.356   1.431  -0.018  0.00  0.00    +0.010 A 
ATOM     14  C   LIG    1        2.389   0.033  -0.025  0.00  0.00    -0.001 A 
ATOM     15  C   LIG    1        1.191  -0.688  -0.021  0.00  0.00    +0.010 A 
ATOM     16  C   LIG    1       -0.013  -0.016  -0.010  0.00  0.00    +0.001 A 
ENDBRANCH   1  14
BRANCH   2  17
ATOM     17  C   LIG    1        3.161  -2.388  -1.808  0.00  0.00    +0.250 C 
ATOM     18  O   LIG    1        2.516  -3.372  -1.501  0.00  0.00    -0.282 OA
BRANCH  17  19
ATOM     19  C   LIG    1        3.069  -1.837  -3.190  0.00  0.00    +0.287 C 
ATOM     20  N   LIG    1        2.191  -2.361  -4.067  0.00  0.00    -0.295 N 
ATOM     21  C   LIG    1        1.264  -3.470  -3.793  0.00  0.00    +0.108 C 
ATOM     22  C   LIG    1        0.478  -3.742  -5.093  0.00  0.00    +0.020 C 
ATOM     23  C   LIG    1        1.403  -3.149  -6.189  0.00  0.00    +0.020 C 
ATOM     24  C   LIG    1        1.996  -1.915  -5.459  0.00  0.00    +0.108 C 
ATOM     25  O   LIG    1        3.784  -0.915  -3.525  0.00  0.00    -0.266 OA
ENDBRANCH  17  19
ENDBRANCH   2  17
TORSDOF 3
