REMARK  Name = ZINC02568290
REMARK                            x       y       z     vdW  Elec       q    Type
REMARK                         _______ _______ _______ _____ _____    ______ ____
ROOT
ATOM      1  C   LIG    1        2.626  -1.601   3.577  0.00  0.00    +0.001 A 
ATOM      2  C   LIG    1        3.638  -0.676   3.348  0.00  0.00    +0.001 A 
ATOM      3  C   LIG    1        3.914  -0.268   2.070  0.00  0.00    +0.017 A 
ATOM      4  C   LIG    1        3.181  -0.783   1.021  0.00  0.00    +0.041 A 
ATOM      5  C   LIG    1        2.147  -1.725   1.225  0.00  0.00    +0.031 A 
ATOM      6  C   LIG    1        1.516  -2.125  -0.024  0.00  0.00    +0.138 A 
ATOM      7  N   LIG    1        1.932  -1.613  -1.145  0.00  0.00    -0.194 NA
ATOM      8  S   LIG    1        3.173  -0.566  -0.737  0.00  0.00    +0.014 S 
ATOM      9  C   LIG    1        1.893  -2.120   2.555  0.00  0.00    +0.012 A 
ENDROOT
BRANCH   6  10
ATOM     10  N   LIG    1        0.472  -3.051  -0.018  0.00  0.00    -0.318 N 
ATOM     11  C   LIG    1       -0.927  -2.613   0.102  0.00  0.00    +0.087 C 
ATOM     12  C   LIG    1       -1.741  -3.275  -1.015  0.00  0.00    -0.063 C 
ATOM     13  N   LIG    1       -1.555  -4.731  -0.959  0.00  0.00    +0.381 N 
ATOM     14  H   LIG    1       -2.148  -5.172  -1.645  0.00  0.00    -0.086 HD
ATOM     15  H   LIG    1       -1.802  -5.065  -0.039  0.00  0.00    -0.086 HD
ATOM     16  C   LIG    1       -0.153  -5.067  -1.239  0.00  0.00    -0.063 C 
ATOM     17  C   LIG    1        0.739  -4.493  -0.138  0.00  0.00    +0.087 C 
ENDBRANCH   6  10
TORSDOF 1
