REMARK  Name = ZINC03093383
REMARK                            x       y       z     vdW  Elec       q    Type
REMARK                         _______ _______ _______ _____ _____    ______ ____
ROOT
ATOM      1  C   LIG    1       -1.350   3.814  -0.529  0.00  0.00    +0.121 A 
ATOM      2  C   LIG    1       -0.016   3.462  -0.677  0.00  0.00    +0.046 A 
ATOM      3  C   LIG    1        0.371   2.146  -0.515  0.00  0.00    +0.008 A 
ATOM      4  C   LIG    1       -0.569   1.180  -0.205  0.00  0.00    -0.035 A 
ATOM      5  C   LIG    1       -1.900   1.528  -0.062  0.00  0.00    +0.008 A 
ATOM      6  C   LIG    1       -2.291   2.844  -0.217  0.00  0.00    +0.046 A 
ENDROOT
BRANCH   1   7
ATOM      7  O   LIG    1       -1.733   5.109  -0.688  0.00  0.00    -0.492 OA
BRANCH   7   8
ATOM      8  C   LIG    1       -3.122   5.399  -0.520  0.00  0.00    +0.229 C 
BRANCH   8   9
ATOM      9  C   LIG    1       -3.360   6.895  -0.737  0.00  0.00    +0.041 C 
BRANCH   9  10
ATOM     10  C   LIG    1       -4.848   7.206  -0.557  0.00  0.00    +0.003 C 
BRANCH  10  11
ATOM     11  C   LIG    1       -5.086   8.701  -0.773  0.00  0.00    -0.000 C 
BRANCH  11  13
ATOM     12  C   LIG    1       -6.811  10.508  -0.810  0.00  0.00    +0.004 C 
ATOM     13  C   LIG    1       -6.573   9.012  -0.593  0.00  0.00    -0.003 C 
ENDBRANCH  11  13
ENDBRANCH  10  11
ENDBRANCH   9  10
ENDBRANCH   8   9
ENDBRANCH   7   8
ENDBRANCH   1   7
BRANCH   4  14
ATOM     14  C   LIG    1       -0.144  -0.255  -0.030  0.00  0.00    +0.115 C 
BRANCH  14  15
ATOM     15  C   LIG    1       -0.863  -1.118  -1.034  0.00  0.00    +0.218 C 
ATOM     16  N   LIG    1       -0.263  -1.440  -2.197  0.00  0.00    -0.329 N 
ATOM     17  H   LIG    1       -0.752  -1.932  -2.875  0.00  0.00    +0.145 HD
ATOM     18  H   LIG    1        0.658  -1.180  -2.357  0.00  0.00    +0.145 HD
ATOM     19  O   LIG    1       -1.981  -1.524  -0.796  0.00  0.00    -0.275 OA
ENDBRANCH  14  15
BRANCH  14  20
ATOM     20  C   LIG    1       -0.493  -0.721   1.385  0.00  0.00    +0.137 C 
BRANCH  20  21
ATOM     21  C   LIG    1        0.061  -2.103   1.610  0.00  0.00    +0.306 C 
ATOM     22  O   LIG    1        0.745  -2.626   0.762  0.00  0.00    -0.251 OA
BRANCH  21  23
ATOM     23  O   LIG    1       -0.204  -2.755   2.753  0.00  0.00    -0.481 OA
ATOM     24  H   LIG    1       -0.734  -2.350   3.412  0.00  0.00    +0.295 HD
ENDBRANCH  21  23
ENDBRANCH  20  21
ENDBRANCH  14  20
ENDBRANCH   4  14
TORSDOF 11
