REMARK  Name = ZINC02570158
REMARK                            x       y       z     vdW  Elec       q    Type
REMARK                         _______ _______ _______ _____ _____    ______ ____
ROOT
ATOM      1  C   LIG    1        0.777   4.705  -4.954  0.00  0.00    -0.002 A 
ATOM      2  C   LIG    1        0.124   4.021  -3.950  0.00  0.00    +0.018 A 
ATOM      3  C   LIG    1       -0.355   2.740  -4.152  0.00  0.00    +0.035 A 
ATOM      4  C   LIG    1       -0.130   2.130  -5.391  0.00  0.00    +0.131 A 
ATOM      5  O   LIG    1       -0.565   0.861  -5.617  0.00  0.00    -0.491 OA
ATOM      6  C   LIG    1       -0.585   0.007  -4.470  0.00  0.00    +0.241 C 
ATOM      7  C   LIG    1       -1.510   0.613  -3.414  0.00  0.00    +0.105 C 
ATOM      8  C   LIG    1       -1.324  -0.125  -2.112  0.00  0.00    +0.005 A 
ATOM      9  C   LIG    1       -1.816  -1.343  -1.695  0.00  0.00    +0.011 A 
ATOM     10  C   LIG    1       -1.468  -1.759  -0.415  0.00  0.00    +0.046 A 
ATOM     11  C   LIG    1       -0.663  -0.981   0.399  0.00  0.00    +0.124 A 
ATOM     12  C   LIG    1       -0.164   0.248  -0.020  0.00  0.00    +0.040 A 
ATOM     13  C   LIG    1       -0.511   0.676  -1.301  0.00  0.00    +0.132 A 
ATOM     14  O   LIG    1       -0.155   1.814  -1.933  0.00  0.00    -0.483 OA
ATOM     15  C   LIG    1        0.524   2.813  -6.405  0.00  0.00    +0.091 A 
ATOM     16  C   LIG    1       -1.058   2.037  -3.032  0.00  0.00    +0.218 C 
ATOM     17  C   LIG    1        0.980   4.105  -6.189  0.00  0.00    +0.124 A 
ENDROOT
BRANCH  11  18
ATOM     18  O   LIG    1       -0.351  -1.431   1.643  0.00  0.00    -0.506 OA
ATOM     19  H   LIG    1       -0.978  -1.159   2.328  0.00  0.00    +0.292 HD
ENDBRANCH  11  18
BRANCH  17  20
ATOM     20  O   LIG    1        1.622   4.778  -7.179  0.00  0.00    -0.506 OA
ATOM     21  H   LIG    1        1.035   5.293  -7.749  0.00  0.00    +0.292 HD
ENDBRANCH  17  20
BRANCH   1  22
ATOM     22  C   LIG    1        1.271   6.107  -4.710  0.00  0.00    +0.066 C 
BRANCH  22  26
ATOM     23  C   LIG    1        2.272   7.360  -2.390  0.00  0.00    +0.038 C 
ATOM     24  C   LIG    1        3.202   6.601  -3.300  0.00  0.00    -0.079 C 
ATOM     25  C   LIG    1        4.656   6.447  -2.933  0.00  0.00    +0.038 C 
ATOM     26  C   LIG    1        2.748   6.075  -4.410  0.00  0.00    -0.023 C 
ENDBRANCH  22  26
ENDBRANCH   1  22
BRANCH  12  27
ATOM     27  C   LIG    1        0.710   1.087   0.877  0.00  0.00    +0.069 C 
BRANCH  27  28
ATOM     28  C   LIG    1        2.155   0.720   0.654  0.00  0.00    -0.023 C 
ATOM     29  C   LIG    1        3.006   1.629   0.248  0.00  0.00    -0.079 C 
ATOM     30  C   LIG    1        2.521   3.012  -0.102  0.00  0.00    +0.038 C 
ATOM     31  C   LIG    1        4.470   1.292   0.130  0.00  0.00    +0.038 C 
ENDBRANCH  27  28
ENDBRANCH  12  27
TORSDOF 6
