REMARK  Name = ZINC02516907
REMARK                            x       y       z     vdW  Elec       q    Type
REMARK                         _______ _______ _______ _____ _____    ______ ____
ROOT
ATOM      1  C   LIG    1        3.999   2.926   0.266  0.00  0.00    +0.044 C 
ATOM      2  C   LIG    1        2.762   3.431   0.170  0.00  0.00    +0.062 C 
ATOM      3  C   LIG    1        1.578   2.558   0.268  0.00  0.00    +0.191 C 
ATOM      4  C   LIG    1        1.753   1.110   0.474  0.00  0.00    +0.077 A 
ATOM      5  C   LIG    1        0.650   0.261   0.570  0.00  0.00    +0.129 A 
ATOM      6  C   LIG    1        0.844  -1.110   0.766  0.00  0.00    +0.050 A 
ATOM      7  C   LIG    1        2.113  -1.628   0.865  0.00  0.00    +0.050 A 
ATOM      8  C   LIG    1        3.230  -0.792   0.772  0.00  0.00    +0.129 A 
ATOM      9  C   LIG    1        3.055   0.579   0.576  0.00  0.00    +0.078 A 
ATOM     10  O   LIG    1        0.462   3.031   0.178  0.00  0.00    -0.287 OA
ATOM     11  C   LIG    1        4.214   1.482   0.474  0.00  0.00    +0.197 C 
ATOM     12  O   LIG    1        5.343   1.039   0.560  0.00  0.00    -0.287 OA
ENDROOT
BRANCH   5  13
ATOM     13  O   LIG    1       -0.605   0.762   0.468  0.00  0.00    -0.506 OA
ATOM     14  H   LIG    1       -0.992   1.029   1.313  0.00  0.00    +0.292 HD
ENDBRANCH   5  13
BRANCH   8  15
ATOM     15  O   LIG    1        4.478  -1.311   0.871  0.00  0.00    -0.506 OA
ATOM     16  H   LIG    1        4.859  -1.585   0.025  0.00  0.00    +0.292 HD
ENDBRANCH   8  15
BRANCH   1  17
ATOM     17  C   LIG    1        5.188   3.846   0.162  0.00  0.00    +0.214 C 
BRANCH  17  18
ATOM     18  O   LIG    1        6.075   3.375  -0.886  0.00  0.00    -0.456 OA
BRANCH  18  19
ATOM     19  C   LIG    1        6.796   4.301  -1.537  0.00  0.00    +0.308 C 
ATOM     20  O   LIG    1        6.690   5.468  -1.240  0.00  0.00    -0.251 OA
BRANCH  19  21
ATOM     21  C   LIG    1        7.739   3.886  -2.637  0.00  0.00    +0.123 C 
BRANCH  21  23
ATOM     22  C   LIG    1        9.318   5.755  -2.133  0.00  0.00    +0.008 C 
ATOM     23  C   LIG    1        8.432   5.125  -3.209  0.00  0.00    -0.007 C 
ATOM     24  C   LIG    1        9.294   4.720  -4.406  0.00  0.00    +0.008 C 
ENDBRANCH  21  23
ENDBRANCH  19  21
ENDBRANCH  18  19
ENDBRANCH  17  18
BRANCH  17  25
ATOM     25  C   LIG    1        5.938   3.864   1.496  0.00  0.00    +0.076 C 
BRANCH  25  26
ATOM     26  C   LIG    1        7.053   4.876   1.432  0.00  0.00    -0.024 C 
ATOM     27  C   LIG    1        7.095   5.859   2.296  0.00  0.00    -0.079 C 
ATOM     28  C   LIG    1        8.137   6.939   2.158  0.00  0.00    +0.038 C 
ATOM     29  C   LIG    1        6.102   5.910   3.428  0.00  0.00    +0.038 C 
ENDBRANCH  25  26
ENDBRANCH  17  25
ENDBRANCH   1  17
TORSDOF 9
