REMARK  Name = ZINC02575699
REMARK                            x       y       z     vdW  Elec       q    Type
REMARK                         _______ _______ _______ _____ _____    ______ ____
ROOT
ATOM      1  C   LIG    1        1.825  -1.800  -0.453  0.00  0.00    +0.048 C 
ATOM      2  C   LIG    1        1.328  -0.400  -0.201  0.00  0.00    +0.008 A 
ATOM      3  C   LIG    1        2.068   0.749  -0.178  0.00  0.00    +0.078 A 
ATOM      4  N   LIG    1        1.201   1.772   0.087  0.00  0.00    -0.230 N 
ATOM      5  N   LIG    1        0.009   1.311   0.221  0.00  0.00    -0.161 NA
ATOM      6  C   LIG    1        0.000   0.002   0.061  0.00  0.00    +0.152 A 
ENDROOT
BRANCH   4   7
ATOM      7  C   LIG    1        1.558   3.121   0.195  0.00  0.00    +0.084 A 
ATOM      8  C   LIG    1        2.629   3.495   0.996  0.00  0.00    +0.031 A 
ATOM      9  C   LIG    1        2.983   4.826   1.097  0.00  0.00    +0.022 A 
ATOM     10  C   LIG    1        2.265   5.789   0.409  0.00  0.00    +0.042 A 
ATOM     11 CL   LIG    1        2.709   7.462   0.543  0.00  0.00    -0.083 Cl
ATOM     12  C   LIG    1        1.194   5.421  -0.386  0.00  0.00    +0.042 A 
ATOM     13  C   LIG    1        0.839   4.090  -0.495  0.00  0.00    +0.068 A 
ATOM     14 CL   LIG    1       -0.505   3.628  -1.493  0.00  0.00    -0.081 Cl
ENDBRANCH   4   7
BRANCH   3  15
ATOM     15  C   LIG    1        3.526   0.864  -0.398  0.00  0.00    +0.001 A 
ATOM     16  C   LIG    1        4.412   0.108   0.369  0.00  0.00    +0.011 A 
ATOM     17  C   LIG    1        5.771   0.214   0.155  0.00  0.00    +0.015 A 
ATOM     18  C   LIG    1        6.256   1.079  -0.810  0.00  0.00    +0.013 A 
ATOM     19  I   LIG    1        8.322   1.242  -1.122  0.00  0.00    -0.044 I 
ATOM     20  C   LIG    1        5.383   1.837  -1.571  0.00  0.00    +0.015 A 
ATOM     21  C   LIG    1        4.021   1.734  -1.370  0.00  0.00    +0.011 A 
ENDBRANCH   3  15
BRANCH   6  22
ATOM     22  C   LIG    1       -1.181  -0.881   0.142  0.00  0.00    +0.278 C 
ATOM     23  N   LIG    1       -2.396  -0.359   0.401  0.00  0.00    -0.243 N 
ATOM     24  H   LIG    1       -2.495   0.597   0.534  0.00  0.00    +0.170 HD
ATOM     25  O   LIG    1       -1.057  -2.079  -0.026  0.00  0.00    -0.267 OA
BRANCH  23  26
ATOM     26  N   LIG    1       -3.489  -1.176   0.475  0.00  0.00    -0.222 NA
ATOM     27  C   LIG    1       -4.456  -0.859  -0.586  0.00  0.00    +0.133 C 
ATOM     28  C   LIG    1       -5.634  -1.834  -0.502  0.00  0.00    +0.177 C 
ATOM     29  O   LIG    1       -6.216  -1.760   0.802  0.00  0.00    -0.377 OA
ATOM     30  C   LIG    1       -5.302  -2.063   1.859  0.00  0.00    +0.177 C 
ATOM     31  C   LIG    1       -4.121  -1.091   1.800  0.00  0.00    +0.133 C 
ENDBRANCH  23  26
ENDBRANCH   6  22
TORSDOF 4
