REMARK  Name = ZINC02391832
REMARK                            x       y       z     vdW  Elec       q    Type
REMARK                         _______ _______ _______ _____ _____    ______ ____
ROOT
ATOM      1  C   LIG    1        1.201   3.591  -0.002  0.00  0.00    -0.010 C 
ATOM      2  N   LIG    1       -0.094   4.136   0.426  0.00  0.00    +0.386 N 
ATOM      3  H   LIG    1       -0.247   3.914   1.417  0.00  0.00    -0.085 HD
ATOM      4  H   LIG    1       -0.093   5.155   0.300  0.00  0.00    -0.085 HD
ATOM      5  C   LIG    1       -1.179   3.546  -0.380  0.00  0.00    -0.077 C 
ATOM      6  C   LIG    1       -1.351   2.083   0.032  0.00  0.00    +0.016 C 
ATOM      7  C   LIG    1       -0.017   1.383   0.010  0.00  0.00    -0.047 A 
ATOM      8  C   LIG    1        0.002  -0.004   0.002  0.00  0.00    +0.004 A 
ATOM      9  C   LIG    1        1.203  -0.685  -0.009  0.00  0.00    +0.000 A 
ATOM     10  C   LIG    1        2.393   0.019  -0.013  0.00  0.00    +0.000 A 
ATOM     11  C   LIG    1        2.375   1.399  -0.007  0.00  0.00    +0.002 A 
ATOM     12  C   LIG    1        1.169   2.085   0.002  0.00  0.00    -0.054 A 
ENDROOT
BRANCH   1  16
ATOM     13  C   LIG    1        4.242   4.944   2.679  0.00  0.00    +0.120 A 
ATOM     14  C   LIG    1        4.487   4.903   1.314  0.00  0.00    +0.046 A 
ATOM     15  C   LIG    1        3.502   4.465   0.450  0.00  0.00    +0.006 A 
ATOM     16  C   LIG    1        2.273   4.068   0.944  0.00  0.00    -0.057 A 
ATOM     17  C   LIG    1        2.025   4.113   2.303  0.00  0.00    +0.006 A 
ATOM     18  C   LIG    1        3.008   4.545   3.172  0.00  0.00    +0.046 A 
BRANCH  13  20
ATOM     19  C   LIG    1        4.886   5.391   4.923  0.00  0.00    +0.277 C 
ATOM     20  O   LIG    1        5.208   5.376   3.531  0.00  0.00    -0.495 OA
ENDBRANCH  13  20
ENDBRANCH   1  16
TORSDOF 2
