REMARK  Name = ZINC02391775
REMARK                            x       y       z     vdW  Elec       q    Type
REMARK                         _______ _______ _______ _____ _____    ______ ____
ROOT
ATOM      1  C   LIG    1       -1.191  -0.806   0.984  0.00  0.00    +0.150 C 
ATOM      2  N   LIG    1       -0.021   0.072   0.902  0.00  0.00    -0.333 N 
ATOM      3  C   LIG    1        1.280  -0.303   1.046  0.00  0.00    +0.200 A 
ATOM      4  N   LIG    1        2.064   0.726   0.913  0.00  0.00    -0.236 NA
ATOM      5  C   LIG    1        1.320   1.840   0.674  0.00  0.00    +0.090 A 
ATOM      6  C   LIG    1        1.651   3.171   0.461  0.00  0.00    +0.043 A 
ATOM      7  C   LIG    1        0.638   4.103   0.237  0.00  0.00    +0.043 A 
ATOM      8  C   LIG    1        0.921   5.474   0.014  0.00  0.00    +0.134 A 
ATOM      9  N   LIG    1       -0.096   6.300  -0.192  0.00  0.00    -0.220 NA
ATOM     10  C   LIG    1       -1.348   5.869  -0.193  0.00  0.00    +0.223 A 
ATOM     11  N   LIG    1       -1.672   4.615   0.007  0.00  0.00    -0.235 NA
ATOM     12  C   LIG    1       -0.721   3.691   0.227  0.00  0.00    +0.078 A 
ATOM     13  C   LIG    1       -1.042   2.348   0.438  0.00  0.00    +0.056 A 
ATOM     14  C   LIG    1       -0.034   1.434   0.663  0.00  0.00    +0.070 A 
ENDROOT
BRANCH   8  15
ATOM     15  N   LIG    1        2.221   5.937   0.011  0.00  0.00    -0.299 N 
ATOM     16  H   LIG    1        2.959   5.311   0.080  0.00  0.00    +0.154 HD
BRANCH  15  17
ATOM     17  C   LIG    1        2.474   7.308  -0.090  0.00  0.00    +0.033 A 
ATOM     18  C   LIG    1        1.618   8.221   0.513  0.00  0.00    +0.023 A 
ATOM     19  C   LIG    1        1.870   9.574   0.412  0.00  0.00    +0.003 A 
ATOM     20  C   LIG    1        2.974  10.023  -0.290  0.00  0.00    +0.015 A 
ATOM     21  C   LIG    1        3.829   9.117  -0.892  0.00  0.00    +0.020 A 
ATOM     22 BR   LIG    1        5.338   9.735  -1.851  0.00  0.00    -0.050 Br
ATOM     23  C   LIG    1        3.585   7.760  -0.789  0.00  0.00    +0.038 A 
ENDBRANCH  15  17
ENDBRANCH   8  15
TORSDOF 2
