REMARK  Name = ZINC03137566
REMARK                            x       y       z     vdW  Elec       q    Type
REMARK                         _______ _______ _______ _____ _____    ______ ____
ROOT
ATOM      1  C   LIG    1        0.718  -0.497  -1.257  0.00  0.00    +0.145 C 
ATOM      2  C   LIG    1       -0.127  -0.120  -2.460  0.00  0.00    +0.240 C 
ATOM      3  O   LIG    1       -1.272  -0.500  -2.573  0.00  0.00    -0.274 OA
ATOM      4  N   LIG    1        0.454   0.659  -3.399  0.00  0.00    -0.237 N 
ATOM      5  H   LIG    1       -0.057   0.921  -4.181  0.00  0.00    +0.159 HD
ATOM      6  C   LIG    1        1.719   1.079  -3.272  0.00  0.00    +0.332 C 
ATOM      7  O   LIG    1        2.173   1.778  -4.158  0.00  0.00    -0.250 OA
ATOM      8  N   LIG    1        2.520   0.786  -2.243  0.00  0.00    -0.131 NA
ATOM      9  C   LIG    1        2.135   0.044  -1.237  0.00  0.00    +0.200 C 
ENDROOT
BRANCH   1  10
ATOM     10  C   LIG    1        0.790  -2.001  -1.193  0.00  0.00    -0.024 A 
ATOM     11  C   LIG    1        0.247  -2.674  -0.114  0.00  0.00    +0.005 A 
ATOM     12  C   LIG    1        0.313  -4.053  -0.055  0.00  0.00    +0.000 A 
ATOM     13  C   LIG    1        0.921  -4.761  -1.075  0.00  0.00    +0.000 A 
ATOM     14  C   LIG    1        1.463  -4.088  -2.155  0.00  0.00    +0.000 A 
ATOM     15  C   LIG    1        1.393  -2.709  -2.216  0.00  0.00    +0.005 A 
ENDBRANCH   1  10
BRANCH   1  17
ATOM     16  C   LIG    1       -0.019   1.526   0.010  0.00  0.00    +0.006 C 
ATOM     17  C   LIG    1        0.002  -0.004   0.002  0.00  0.00    +0.027 C 
ENDBRANCH   1  17
BRANCH   9  18
ATOM     18  O   LIG    1        2.966  -0.230  -0.219  0.00  0.00    -0.496 OA
ATOM     19  H   LIG    1        2.674  -0.763   0.494  0.00  0.00    +0.293 HD
ENDBRANCH   9  18
TORSDOF 3
