REMARK  Name = ZINC03588816
REMARK                            x       y       z     vdW  Elec       q    Type
REMARK                         _______ _______ _______ _____ _____    ______ ____
ROOT
ATOM      1  C   LIG    1       -0.013   1.076   0.008  0.00  0.00    +0.001 A 
ATOM      2  C   LIG    1        1.183   1.781   0.000  0.00  0.00    +0.004 A 
ATOM      3  C   LIG    1        1.184   3.159   0.007  0.00  0.00    +0.050 A 
ATOM      4  C   LIG    1       -0.022   3.850   0.022  0.00  0.00    +0.171 A 
ATOM      5  C   LIG    1       -1.228   3.133   0.030  0.00  0.00    +0.084 A 
ATOM      6  C   LIG    1       -2.305   4.133   0.045  0.00  0.00    +0.260 A 
ATOM      7  N   LIG    1       -1.743   5.308   0.046  0.00  0.00    -0.039 NA
ATOM      8  O   LIG    1       -0.337   5.162   0.032  0.00  0.00    -0.351 OA
ATOM      9  C   LIG    1       -1.208   1.738   0.017  0.00  0.00    +0.017 A 
ENDROOT
BRANCH   6  10
ATOM     10  O   LIG    1       -3.638   3.880   0.057  0.00  0.00    -0.490 OA
ATOM     11  H   LIG    1       -3.946   2.995   0.055  0.00  0.00    +0.294 HD
ENDBRANCH   6  10
TORSDOF 1
