REMARK  Name = ZINC03453546
REMARK                            x       y       z     vdW  Elec       q    Type
REMARK                         _______ _______ _______ _____ _____    ______ ____
ROOT
ATOM      1  C   LIG    1        5.337  -1.615   1.574  0.00  0.00    +0.131 A 
ATOM      2  C   LIG    1        5.778  -1.867   2.899  0.00  0.00    +0.040 A 
ATOM      3  C   LIG    1        5.040  -1.460   4.014  0.00  0.00    +0.013 A 
ATOM      4  C   LIG    1        5.510  -1.729   5.267  0.00  0.00    +0.001 A 
ATOM      5  C   LIG    1        6.714  -2.403   5.449  0.00  0.00    +0.002 A 
ATOM      6  C   LIG    1        7.458  -2.813   4.382  0.00  0.00    +0.028 A 
ATOM      7  C   LIG    1        7.004  -2.553   3.081  0.00  0.00    +0.077 A 
ATOM      8  N   LIG    1        7.697  -2.936   2.001  0.00  0.00    -0.227 NA
ATOM      9  C   LIG    1        7.242  -2.676   0.786  0.00  0.00    +0.169 A 
ATOM     10  N   LIG    1        6.090  -2.037   0.571  0.00  0.00    -0.212 NA
ENDROOT
BRANCH   9  11
ATOM     11  C   LIG    1        8.036  -3.114  -0.377  0.00  0.00    +0.056 A 
ATOM     12  C   LIG    1        9.231  -3.787  -0.403  0.00  0.00    +0.019 A 
ATOM     13  C   LIG    1        9.791  -4.093  -1.621  0.00  0.00    +0.008 A 
ATOM     14  C   LIG    1        9.147  -3.720  -2.759  0.00  0.00    +0.046 A 
ATOM     15  S   LIG    1        7.689  -2.913  -2.116  0.00  0.00    -0.094 S 
ENDBRANCH   9  11
BRANCH   1  16
ATOM     16  N   LIG    1        4.152  -0.952   1.338  0.00  0.00    -0.324 N 
ATOM     17  H   LIG    1        3.610  -0.648   2.082  0.00  0.00    +0.148 HD
BRANCH  16  18
ATOM     18  C   LIG    1        3.711  -0.707  -0.038  0.00  0.00    +0.138 C 
BRANCH  18  22
ATOM     19  C   LIG    1       -0.017   1.378   0.010  0.00  0.00    +0.000 A 
ATOM     20  C   LIG    1        1.171   2.086   0.002  0.00  0.00    +0.000 A 
ATOM     21  C   LIG    1        2.377   1.411  -0.013  0.00  0.00    +0.005 A 
ATOM     22  C   LIG    1        2.396   0.029  -0.020  0.00  0.00    -0.030 A 
ATOM     23  C   LIG    1        1.208  -0.679  -0.012  0.00  0.00    +0.005 A 
ATOM     24  C   LIG    1        0.002  -0.004   0.002  0.00  0.00    +0.000 A 
ENDBRANCH  18  22
ENDBRANCH  16  18
ENDBRANCH   1  16
TORSDOF 4
