REMARK  Name = ZINC02391117
REMARK                            x       y       z     vdW  Elec       q    Type
REMARK                         _______ _______ _______ _____ _____    ______ ____
ROOT
ATOM      1  C   LIG    1       -2.663  -4.067   0.006  0.00  0.00    +0.164 C 
ATOM      2  C   LIG    1       -3.900  -4.708   0.008  0.00  0.00    +0.040 C 
ATOM      3  C   LIG    1       -3.930  -6.099   0.001  0.00  0.00    +0.044 C 
ATOM      4  C   LIG    1       -5.000  -7.109   0.001  0.00  0.00    -0.022 A 
ATOM      5  C   LIG    1       -6.391  -7.035   0.007  0.00  0.00    +0.006 A 
ATOM      6  C   LIG    1       -7.138  -8.193   0.004  0.00  0.00    +0.000 A 
ATOM      7  C   LIG    1       -6.510  -9.430  -0.006  0.00  0.00    +0.002 A 
ATOM      8  C   LIG    1       -5.135  -9.517  -0.012  0.00  0.00    +0.023 A 
ATOM      9  C   LIG    1       -4.363  -8.359  -0.009  0.00  0.00    +0.031 A 
ATOM     10  N   LIG    1       -2.995  -8.153  -0.014  0.00  0.00    -0.339 N 
ATOM     11  H   LIG    1       -2.329  -8.858  -0.022  0.00  0.00    +0.146 HD
ATOM     12  C   LIG    1       -2.713  -6.805  -0.008  0.00  0.00    +0.092 C 
ATOM     13  C   LIG    1       -1.520  -6.082  -0.010  0.00  0.00    +0.104 C 
ATOM     14  N   LIG    1       -1.532  -4.769  -0.009  0.00  0.00    -0.302 NA
ATOM     15  H   LIG    1       -0.687  -4.294  -0.014  0.00  0.00    +0.123 HD
ENDROOT
BRANCH   1  16
ATOM     16  C   LIG    1       -2.606  -2.590   0.013  0.00  0.00    +0.324 C 
ATOM     17  O   LIG    1       -3.633  -1.943   0.026  0.00  0.00    -0.249 OA
BRANCH  16  18
ATOM     18  O   LIG    1       -1.414  -1.962   0.005  0.00  0.00    -0.464 OA
BRANCH  18  19
ATOM     19  C   LIG    1       -1.433  -0.534   0.013  0.00  0.00    +0.232 C 
BRANCH  19  21
ATOM     20  C   LIG    1       -0.019   1.526   0.010  0.00  0.00    +0.007 C 
ATOM     21  C   LIG    1        0.002  -0.004   0.002  0.00  0.00    +0.038 C 
ENDBRANCH  19  21
ENDBRANCH  18  19
ENDBRANCH  16  18
ENDBRANCH   1  16
TORSDOF 4
