REMARK  Name = ZINC02564446
REMARK                            x       y       z     vdW  Elec       q    Type
REMARK                         _______ _______ _______ _____ _____    ______ ____
ROOT
ATOM      1  C   LIG    1       -0.019   1.526   0.010  0.00  0.00    -0.013 C 
ATOM      2  C   LIG    1        0.002  -0.004   0.002  0.00  0.00    -0.069 C 
ENDROOT
BRANCH   2   3
ATOM      3  N   LIG    1        0.690  -0.478  -1.207  0.00  0.00    +0.388 N 
ATOM      4  H   LIG    1        0.776  -1.482  -1.172  0.00  0.00    -0.084 HD
ATOM      5  H   LIG    1        1.608  -0.063  -1.256  0.00  0.00    -0.084 HD
BRANCH   3   6
ATOM      6  C   LIG    1       -0.086  -0.093  -2.394  0.00  0.00    +0.009 C 
BRANCH   6   7
ATOM      7  C   LIG    1        0.603  -0.568  -3.605  0.00  0.00    -0.125 C 
ATOM      8  C   LIG    1        1.153  -0.947  -4.571  0.00  0.00    +0.002 C 
ENDBRANCH   6   7
ENDBRANCH   3   6
ENDBRANCH   2   3
BRANCH   2   9
ATOM      9  C   LIG    1        0.742  -0.511   1.242  0.00  0.00    +0.019 C 
BRANCH   9  10
ATOM     10  C   LIG    1        0.657  -2.014   1.298  0.00  0.00    -0.049 A 
ATOM     11  C   LIG    1       -0.396  -2.623   1.955  0.00  0.00    +0.003 A 
ATOM     12  C   LIG    1       -0.474  -4.002   2.007  0.00  0.00    +0.000 A 
ATOM     13  C   LIG    1        0.500  -4.773   1.401  0.00  0.00    +0.000 A 
ATOM     14  C   LIG    1        1.552  -4.164   0.742  0.00  0.00    +0.000 A 
ATOM     15  C   LIG    1        1.628  -2.785   0.687  0.00  0.00    +0.003 A 
ENDBRANCH   9  10
ENDBRANCH   2   9
TORSDOF 5
