REMARK  Name = ZINC02572930
REMARK                            x       y       z     vdW  Elec       q    Type
REMARK                         _______ _______ _______ _____ _____    ______ ____
ROOT
ATOM      1  C   LIG    1        4.160   2.067  -3.467  0.00  0.00    +0.188 C 
ENDROOT
BRANCH   1   2
ATOM      2  O   LIG    1        3.745   1.951  -2.105  0.00  0.00    -0.376 OA
BRANCH   2   3
ATOM      3  C   LIG    1        4.146   0.732  -1.476  0.00  0.00    +0.179 C 
BRANCH   3   4
ATOM      4  C   LIG    1        3.650   0.717  -0.029  0.00  0.00    +0.145 C 
BRANCH   4   8
ATOM      5  C   LIG    1       -0.016   1.339   0.009  0.00  0.00    +0.073 C 
ATOM      6  C   LIG    1        0.002  -0.004   0.002  0.00  0.00    +0.073 C 
ATOM      7  C   LIG    1        1.424  -0.412  -0.014  0.00  0.00    +0.246 C 
ATOM      8  N   LIG    1        2.185   0.697  -0.015  0.00  0.00    -0.233 N 
ATOM      9  O   LIG    1        1.835  -1.555  -0.024  0.00  0.00    -0.270 OA
ATOM     10  C   LIG    1        1.394   1.786  -0.002  0.00  0.00    +0.246 C 
ATOM     11  O   LIG    1        1.774   2.939   0.001  0.00  0.00    -0.270 OA
ENDBRANCH   4   8
ENDBRANCH   3   4
ENDBRANCH   2   3
ENDBRANCH   1   2
BRANCH   1  12
ATOM     12  C   LIG    1        3.679   3.403  -4.036  0.00  0.00    +0.188 C 
BRANCH  12  13
ATOM     13  O   LIG    1        4.330   4.474  -3.350  0.00  0.00    -0.376 OA
BRANCH  13  14
ATOM     14  C   LIG    1        3.950   5.774  -3.807  0.00  0.00    +0.179 C 
BRANCH  14  15
ATOM     15  C   LIG    1        4.704   6.837  -3.007  0.00  0.00    +0.145 C 
BRANCH  15  16
ATOM     16  N   LIG    1        6.138   6.733  -3.287  0.00  0.00    -0.233 N 
ATOM     17  C   LIG    1        7.010   5.975  -2.597  0.00  0.00    +0.246 C 
ATOM     18  C   LIG    1        8.352   6.145  -3.196  0.00  0.00    +0.073 C 
ATOM     19  C   LIG    1        8.216   7.009  -4.216  0.00  0.00    +0.073 C 
ATOM     20  O   LIG    1        6.741   5.270  -1.646  0.00  0.00    -0.270 OA
ATOM     21  C   LIG    1        6.786   7.385  -4.269  0.00  0.00    +0.246 C 
ATOM     22  O   LIG    1        6.282   8.150  -5.065  0.00  0.00    -0.270 OA
ENDBRANCH  15  16
ENDBRANCH  14  15
ENDBRANCH  13  14
ENDBRANCH  12  13
ENDBRANCH   1  12
TORSDOF 9
