REMARK  Name = ZINC02548486
REMARK                            x       y       z     vdW  Elec       q    Type
REMARK                         _______ _______ _______ _____ _____    ______ ____
ROOT
ATOM      1  C   LIG    1        2.496   1.041  -0.013  0.00  0.00    +0.202 C 
ENDROOT
BRANCH   1   2
ATOM      2  C   LIG    1        1.118   1.621  -0.207  0.00  0.00    -0.007 A 
ATOM      3  C   LIG    1        0.013   0.790  -0.212  0.00  0.00    +0.010 A 
ATOM      4  C   LIG    1       -1.250   1.321  -0.395  0.00  0.00    +0.039 A 
ATOM      5  C   LIG    1       -1.409   2.686  -0.562  0.00  0.00    +0.123 A 
ATOM      6  F   LIG    1       -2.644   3.206  -0.737  0.00  0.00    -0.205 F 
ATOM      7  C   LIG    1       -0.302   3.517  -0.557  0.00  0.00    +0.039 A 
ATOM      8  C   LIG    1        0.961   2.984  -0.379  0.00  0.00    +0.010 A 
ENDBRANCH   1   2
BRANCH   1   9
ATOM      9  C   LIG    1        2.881   1.125   1.465  0.00  0.00    +0.031 C 
BRANCH   9  10
ATOM     10  C   LIG    1        4.224   0.425   1.683  0.00  0.00    -0.075 C 
BRANCH  10  12
ATOM     11  C   LIG    1        3.659  -0.266   3.934  0.00  0.00    -0.095 C 
ATOM     12  N   LIG    1        4.593   0.505   3.102  0.00  0.00    +0.385 N 
ATOM     13  H   LIG    1        4.529   1.559   3.409  0.00  0.00    -0.081 HD
BRANCH  12  14
ATOM     14  C   LIG    1        5.977   0.057   3.312  0.00  0.00    +0.043 C 
BRANCH  14  15
ATOM     15  C   LIG    1        6.401   0.381   4.721  0.00  0.00    +0.288 C 
ATOM     16  O   LIG    1        5.630   0.928   5.474  0.00  0.00    -0.253 OA
BRANCH  15  17
ATOM     17  O   LIG    1        7.636   0.061   5.141  0.00  0.00    -0.482 OA
ATOM     18  H   LIG    1        8.233  -0.363   4.557  0.00  0.00    +0.295 HD
ENDBRANCH  15  17
ENDBRANCH  14  15
ENDBRANCH  12  14
ENDBRANCH  10  12
ENDBRANCH   9  10
ENDBRANCH   1   9
BRANCH   1  19
ATOM     19  O   LIG    1        3.438   1.780  -0.793  0.00  0.00    -0.484 OA
BRANCH  19  20
ATOM     20  C   LIG    1        3.573   1.424  -2.097  0.00  0.00    +0.121 A 
ATOM     21  C   LIG    1        2.739   0.457  -2.641  0.00  0.00    +0.046 A 
ATOM     22  C   LIG    1        2.870   0.097  -3.966  0.00  0.00    +0.012 A 
ATOM     23  C   LIG    1        3.848   0.698  -4.757  0.00  0.00    -0.018 A 
ATOM     24  C   LIG    1        4.687   1.665  -4.206  0.00  0.00    +0.012 A 
ATOM     25  C   LIG    1        4.548   2.025  -2.882  0.00  0.00    +0.046 A 
BRANCH  23  26
ATOM     26  C   LIG    1        3.995   0.309  -6.181  0.00  0.00    -0.018 A 
ATOM     27  C   LIG    1        4.969   0.913  -6.973  0.00  0.00    +0.008 A 
ATOM     28  C   LIG    1        5.105   0.544  -8.296  0.00  0.00    +0.001 A 
ATOM     29  C   LIG    1        4.270  -0.416  -8.838  0.00  0.00    +0.000 A 
ATOM     30  C   LIG    1        3.298  -1.015  -8.057  0.00  0.00    +0.001 A 
ATOM     31  C   LIG    1        3.157  -0.657  -6.732  0.00  0.00    +0.008 A 
ENDBRANCH  23  26
ENDBRANCH  19  20
ENDBRANCH   1  19
TORSDOF 10
