REMARK  Name = ZINC02568834
REMARK                            x       y       z     vdW  Elec       q    Type
REMARK                         _______ _______ _______ _____ _____    ______ ____
ROOT
ATOM      1  C   LIG    1        1.153   3.983   0.012  0.00  0.00    +0.002 A 
ATOM      2  C   LIG    1       -0.024   4.673   0.026  0.00  0.00    +0.010 A 
ATOM      3  C   LIG    1       -1.240   3.978   0.034  0.00  0.00    +0.002 A 
ATOM      4  C   LIG    1       -2.595   4.388   0.049  0.00  0.00    +0.042 A 
ATOM      5  CA  LIG    1       -3.367   3.269   0.051  0.00  0.00    +0.125 A 
ATOM      6  N   LIG    1       -2.549   2.155   0.037  0.00  0.00    -0.348 N 
ATOM      7  H   LIG    1       -2.851   1.233   0.036  0.00  0.00    +0.166 HD
ATOM      8  C   LIG    1       -1.238   2.569   0.022  0.00  0.00    +0.061 A 
ATOM      9  C   LIG    1       -0.024   1.887   0.012  0.00  0.00    +0.042 A 
ATOM     10 BR   LIG    1        0.002  -0.004   0.002  0.00  0.00    -0.048 Br
ATOM     11  C   LIG    1        1.159   2.594   0.005  0.00  0.00    +0.017 A 
ENDROOT
BRANCH   5  12
ATOM     12  C   LIG    1       -4.835   3.248   0.065  0.00  0.00    +0.353 C 
ATOM     13  O   LIG    1       -5.458   4.292   0.076  0.00  0.00    -0.243 OA
BRANCH  12  14
ATOM     14  OXT LIG    1       -5.492   2.070   0.065  0.00  0.00    -0.476 OA
ATOM     15  HXT LIG    1       -5.012   1.266   0.056  0.00  0.00    +0.295 HD
ENDBRANCH  12  14
ENDBRANCH   5  12
TORSDOF 2
