REMARK  Name = ZINC02412589
REMARK                            x       y       z     vdW  Elec       q    Type
REMARK                         _______ _______ _______ _____ _____    ______ ____
ROOT
ATOM      1  C   LIG    1       -7.186  -3.210   0.638  0.00  0.00    +0.138 A 
ATOM      2  C   LIG    1       -7.462  -3.467   1.997  0.00  0.00    +0.050 A 
ATOM      3  C   LIG    1       -6.602  -2.719   2.740  0.00  0.00    +0.050 A 
ATOM      4  C   LIG    1       -5.770  -1.979   1.785  0.00  0.00    +0.130 A 
ATOM      5  O   LIG    1       -6.184  -2.321   0.544  0.00  0.00    -0.455 OA
ENDROOT
BRANCH   4   6
ATOM      6  C   LIG    1       -4.754  -1.090   2.096  0.00  0.00    +0.066 C 
ATOM      7  C   LIG    1       -4.040  -0.451   1.069  0.00  0.00    +0.080 C 
ATOM      8  C   LIG    1       -2.920   0.531   1.167  0.00  0.00    +0.259 C 
ATOM      9  N   LIG    1       -2.430   0.973   0.019  0.00  0.00    -0.244 N 
ATOM     10  C   LIG    1       -2.943   0.540  -1.150  0.00  0.00    +0.121 C 
ATOM     11  S   LIG    1       -2.475   0.977  -2.738  0.00  0.00    -0.027 S 
ATOM     12  O   LIG    1       -2.484   0.904   2.237  0.00  0.00    -0.269 OA
ATOM     13  S   LIG    1       -4.224  -0.596  -0.651  0.00  0.00    -0.061 S 
BRANCH   9  14
ATOM     14  C   LIG    1       -1.329   1.940   0.019  0.00  0.00    +0.235 C 
BRANCH  14  15
ATOM     15  C   LIG    1       -0.014   1.204   0.009  0.00  0.00    +0.323 C 
ATOM     16  O   LIG    1        0.002  -0.004   0.002  0.00  0.00    -0.249 OA
BRANCH  15  17
ATOM     17  O   LIG    1        1.139   1.891   0.001  0.00  0.00    -0.480 OA
ATOM     18  H   LIG    1        1.126   2.828   0.006  0.00  0.00    +0.295 HD
ENDBRANCH  15  17
ENDBRANCH  14  15
ENDBRANCH   9  14
ENDBRANCH   4   6
BRANCH   1  23
ATOM     19  C   LIG    1       -8.725  -5.766  -1.627  0.00  0.00    +0.001 A 
ATOM     20  C   LIG    1       -9.216  -4.959  -2.642  0.00  0.00    +0.002 A 
ATOM     21  C   LIG    1       -9.047  -3.583  -2.591  0.00  0.00    +0.033 A 
ATOM     22  C   LIG    1       -8.389  -3.005  -1.530  0.00  0.00    +0.132 A 
ATOM     23  C   LIG    1       -7.888  -3.814  -0.495  0.00  0.00    +0.047 A 
ATOM     24  C   LIG    1       -8.060  -5.208  -0.559  0.00  0.00    +0.014 A 
BRANCH  22  25
ATOM     25  N   LIG    1       -8.210  -1.537  -1.478  0.00  0.00    +0.007 N 
ATOM     26  O   LIG    1       -8.681  -0.781  -2.448  0.00  0.00    -0.130 OA
BRANCH  25  27
ATOM     27  O   LIG    1       -7.580  -0.986  -0.461  0.00  0.00    -0.396 OA
ATOM     28  H   LIG    1       -7.245  -1.523   0.230  0.00  0.00    +0.329 HD
ENDBRANCH  25  27
ENDBRANCH  22  25
ENDBRANCH   1  23
TORSDOF 7
