REMARK  Name = ZINC03604280
REMARK                            x       y       z     vdW  Elec       q    Type
REMARK                         _______ _______ _______ _____ _____    ______ ____
ROOT
ATOM      1  C   LIG    1        1.246   2.096   0.001  0.00  0.00    +0.156 C 
ATOM      2  O   LIG    1        2.304   1.504  -0.012  0.00  0.00    -0.293 OA
ENDROOT
BRANCH   1   3
ATOM      3  C   LIG    1       -0.016   1.344   0.009  0.00  0.00    +0.049 C 
ATOM      4  C   LIG    1        0.002  -0.004   0.002  0.00  0.00    +0.046 C 
BRANCH   4   5
ATOM      5  C   LIG    1       -1.261  -0.756   0.010  0.00  0.00    +0.251 C 
ATOM      6  O   LIG    1       -1.244  -1.968   0.003  0.00  0.00    -0.296 OA
ENDBRANCH   4   5
ENDBRANCH   1   3
BRANCH   1   7
ATOM      7  C   LIG    1        1.226   3.603   0.010  0.00  0.00    +0.079 C 
BRANCH   7   8
ATOM      8  C   LIG    1        2.661   4.133  -0.001  0.00  0.00    +0.008 C 
BRANCH   8   9
ATOM      9  C   LIG    1        2.641   5.662   0.007  0.00  0.00    +0.000 C 
BRANCH   9  11
ATOM     10  C   LIG    1        4.055   7.722   0.005  0.00  0.00    +0.004 C 
ATOM     11  C   LIG    1        4.076   6.192  -0.004  0.00  0.00    -0.003 C 
ENDBRANCH   9  11
ENDBRANCH   8   9
ENDBRANCH   7   8
ENDBRANCH   1   7
TORSDOF 6
