REMARK  Name = ZINC03079342
REMARK                            x       y       z     vdW  Elec       q    Type
REMARK                         _______ _______ _______ _____ _____    ______ ____
ROOT
ATOM      1  C   LIG    1        2.011  -0.731  -1.203  0.00  0.00    +0.216 C 
ENDROOT
BRANCH   1   2
ATOM      2  C   LIG    1        0.485  -0.800  -1.125  0.00  0.00    -0.034 C 
BRANCH   2   4
ATOM      3  C   LIG    1        0.538   1.327  -0.016  0.00  0.00    -0.093 C 
ATOM      4  N   LIG    1        0.021  -0.047   0.048  0.00  0.00    +0.377 N 
ATOM      5  C   LIG    1       -1.448  -0.016   0.060  0.00  0.00    -0.093 C 
ATOM      6  C   LIG    1        0.507  -0.697   1.272  0.00  0.00    -0.093 C 
ENDBRANCH   2   4
ENDBRANCH   1   2
BRANCH   1   7
ATOM      7  O   LIG    1        2.578  -1.454  -0.108  0.00  0.00    -0.452 OA
BRANCH   7   8
ATOM      8  C   LIG    1        3.921  -1.492  -0.030  0.00  0.00    +0.398 C 
ATOM      9  N   LIG    1        4.519  -2.157   0.978  0.00  0.00    -0.295 N 
ATOM     10  H   LIG    1        5.487  -2.184   1.034  0.00  0.00    +0.148 HD
ATOM     11  H   LIG    1        3.982  -2.608   1.647  0.00  0.00    +0.148 HD
ATOM     12  O   LIG    1        4.595  -0.926  -0.869  0.00  0.00    -0.227 OA
ENDBRANCH   7   8
ENDBRANCH   1   7
TORSDOF 4
