REMARK  Name = ZINC02493368
REMARK                            x       y       z     vdW  Elec       q    Type
REMARK                         _______ _______ _______ _____ _____    ______ ____
ROOT
ATOM      1  C   LIG    1        2.426   4.108   0.001  0.00  0.00    +0.231 C 
ENDROOT
BRANCH   1   2
ATOM      2  O   LIG    1        1.160   3.445   0.010  0.00  0.00    -0.492 OA
BRANCH   2   7
ATOM      3  C   LIG    1        1.226  -2.187  -0.021  0.00  0.00    +0.044 C 
ATOM      4  C   LIG    1        1.208  -0.680  -0.013  0.00  0.00    -0.050 A 
ATOM      5  C   LIG    1        0.002  -0.004   0.002  0.00  0.00    +0.007 A 
ATOM      6  C   LIG    1       -0.017   1.377   0.010  0.00  0.00    +0.046 A 
ATOM      7  C   LIG    1        1.176   2.086   0.002  0.00  0.00    +0.121 A 
ATOM      8  C   LIG    1        2.385   1.405  -0.013  0.00  0.00    +0.046 A 
ATOM      9  C   LIG    1        2.398   0.024  -0.021  0.00  0.00    +0.007 A 
ENDBRANCH   2   7
ENDBRANCH   1   2
BRANCH   1  10
ATOM     10  C   LIG    1        2.208   5.623   0.012  0.00  0.00    +0.062 C 
BRANCH  10  11
ATOM     11  C   LIG    1        3.563   6.333   0.003  0.00  0.00    +0.126 C 
BRANCH  11  12
ATOM     12  N   LIG    1        3.354   7.783   0.013  0.00  0.00    -0.338 N 
ATOM     13  C   LIG    1        3.233   8.594  -1.083  0.00  0.00    +0.104 A 
ATOM     14  C   LIG    1        3.051   9.847  -0.623  0.00  0.00    +0.101 A 
ATOM     15  N   LIG    1        3.070   9.802   0.717  0.00  0.00    -0.352 N 
ATOM     16  H   LIG    1        2.959  10.611   1.340  0.00  0.00    +0.166 HD
ATOM     17  C   LIG    1        3.251   8.570   1.106  0.00  0.00    +0.173 A 
ENDBRANCH  11  12
ENDBRANCH  10  11
ENDBRANCH   1  10
TORSDOF 5
