REMARK  Name = ZINC03132327
REMARK                            x       y       z     vdW  Elec       q    Type
REMARK                         _______ _______ _______ _____ _____    ______ ____
ROOT
ATOM      1  C   LIG    1       10.058  -2.350  -0.522  0.00  0.00    +0.046 C 
ATOM      2  C   LIG    1        8.726  -1.660  -0.379  0.00  0.00    -0.020 A 
ATOM      3  C   LIG    1        7.560  -2.343  -0.679  0.00  0.00    +0.006 A 
ATOM      4  C   LIG    1        6.338  -1.720  -0.546  0.00  0.00    +0.012 A 
ATOM      5  C   LIG    1        6.278  -0.390  -0.117  0.00  0.00    +0.028 A 
ATOM      6  C   LIG    1        7.460   0.294   0.184  0.00  0.00    +0.044 A 
ATOM      7  C   LIG    1        8.675  -0.345   0.052  0.00  0.00    +0.125 A 
ENDROOT
BRANCH   5   8
ATOM      8  C   LIG    1        4.975   0.286   0.021  0.00  0.00    +0.233 C 
ATOM      9  O   LIG    1        4.930   1.464   0.310  0.00  0.00    -0.283 OA
BRANCH   8  10
ATOM     10  C   LIG    1        3.712  -0.478  -0.193  0.00  0.00    +0.233 C 
ATOM     11  O   LIG    1        3.356  -0.760  -1.318  0.00  0.00    -0.283 OA
BRANCH  10  12
ATOM     12  C   LIG    1        2.896  -0.891   0.964  0.00  0.00    +0.026 A 
ATOM     13  C   LIG    1        1.657  -1.510   0.764  0.00  0.00    +0.012 A 
ATOM     14  C   LIG    1        0.899  -1.893   1.850  0.00  0.00    +0.001 A 
ATOM     15  C   LIG    1        1.361  -1.667   3.136  0.00  0.00    +0.000 A 
ATOM     16  C   LIG    1        2.586  -1.055   3.341  0.00  0.00    +0.001 A 
ATOM     17  C   LIG    1        3.355  -0.666   2.265  0.00  0.00    +0.012 A 
ENDBRANCH  10  12
ENDBRANCH   8  10
ENDBRANCH   5   8
BRANCH   7  18
ATOM     18  N   LIG    1        9.927   0.377   0.370  0.00  0.00    +0.006 N 
ATOM     19  O   LIG    1        9.895   1.566   0.633  0.00  0.00    -0.130 OA
BRANCH  18  20
ATOM     20  O   LIG    1       10.990  -0.218   0.369  0.00  0.00    -0.396 OA
ATOM     21  H   LIG    1       11.015  -1.133   0.167  0.00  0.00    +0.329 HD
ENDBRANCH  18  20
ENDBRANCH   7  18
TORSDOF 5
