REMARK  Name = ZINC02565899
REMARK                            x       y       z     vdW  Elec       q    Type
REMARK                         _______ _______ _______ _____ _____    ______ ____
ROOT
ATOM      1  C   LIG    1       -1.980   2.441   3.466  0.00  0.00    +0.014 C 
ATOM      2  C   LIG    1       -2.323   1.217   2.873  0.00  0.00    +0.023 C 
ATOM      3  C   LIG    1       -1.651   0.812   1.740  0.00  0.00    +0.085 C 
ATOM      4  N   LIG    1       -0.698   1.558   1.213  0.00  0.00    -0.302 NA
ATOM      5  C   LIG    1       -0.340   2.714   1.741  0.00  0.00    +0.085 C 
ATOM      6  C   LIG    1       -0.961   3.200   2.871  0.00  0.00    +0.023 C 
ENDROOT
BRANCH   1   8
ATOM      7  C   LIG    1       -2.325   4.092   5.229  0.00  0.00    +0.004 C 
ATOM      8  C   LIG    1       -2.669   2.916   4.677  0.00  0.00    -0.023 C 
BRANCH   7  12
ATOM      9  C   LIG    1       -4.313   5.462   8.720  0.00  0.00    +0.030 A 
ATOM     10  C   LIG    1       -3.305   6.232   8.148  0.00  0.00    +0.024 A 
ATOM     11  C   LIG    1       -2.658   5.791   7.016  0.00  0.00    +0.010 A 
ATOM     12  C   LIG    1       -3.015   4.567   6.440  0.00  0.00    -0.025 A 
ATOM     13  C   LIG    1       -4.032   3.799   7.014  0.00  0.00    +0.010 A 
ATOM     14  C   LIG    1       -4.671   4.244   8.150  0.00  0.00    +0.024 A 
BRANCH   9  15
ATOM     15  N   LIG    1       -4.966   5.912   9.867  0.00  0.00    -0.330 N 
BRANCH  15  17
ATOM     16  C   LIG    1       -5.419   4.149  11.501  0.00  0.00    +0.024 C 
ATOM     17  C   LIG    1       -6.027   5.102  10.470  0.00  0.00    +0.102 C 
ENDBRANCH  15  17
BRANCH  15  18
ATOM     18  C   LIG    1       -4.590   7.194  10.468  0.00  0.00    +0.102 C 
ATOM     19  C   LIG    1       -5.438   8.311   9.857  0.00  0.00    +0.024 C 
ENDBRANCH  15  18
ENDBRANCH   9  15
ENDBRANCH   7  12
ENDBRANCH   1   8
BRANCH   4  20
ATOM     20  C   LIG    1       -0.013   1.086   0.008  0.00  0.00    +0.082 C 
BRANCH  20  21
ATOM     21  C   LIG    1       -0.753   1.593  -1.232  0.00  0.00    -0.003 C 
BRANCH  21  22
ATOM     22  C   LIG    1       -0.037   1.099  -2.490  0.00  0.00    -0.074 C 
BRANCH  22  23
ATOM     23  N   LIG    1       -0.747   1.586  -3.680  0.00  0.00    +0.380 N 
BRANCH  23  24
ATOM     24  C   LIG    1       -0.767   3.055  -3.672  0.00  0.00    -0.079 C 
ATOM     25  C   LIG    1        0.668   3.584  -3.683  0.00  0.00    -0.016 C 
ENDBRANCH  23  24
BRANCH  23  26
ATOM     26  C   LIG    1       -2.125   1.077  -3.670  0.00  0.00    -0.079 C 
ATOM     27  C   LIG    1       -2.104  -0.452  -3.678  0.00  0.00    -0.016 C 
ENDBRANCH  23  26
BRANCH  23  28
ATOM     28  C   LIG    1       -0.059   1.112  -4.889  0.00  0.00    -0.079 C 
ATOM     29  C   LIG    1       -0.799   1.619  -6.129  0.00  0.00    -0.016 C 
ENDBRANCH  23  28
ENDBRANCH  22  23
ENDBRANCH  21  22
ENDBRANCH  20  21
ENDBRANCH   4  20
TORSDOF 12
