REMARK  Name = ZINC02712286
REMARK                            x       y       z     vdW  Elec       q    Type
REMARK                         _______ _______ _______ _____ _____    ______ ____
ROOT
ATOM      1  N   LIG    1        4.749  -0.020  -0.053  0.00  0.00    -0.306 N 
ATOM      2  C   LIG    1        4.827   1.340  -0.152  0.00  0.00    +0.090 A 
ATOM      3  C   LIG    1        3.736   2.121  -0.204  0.00  0.00    +0.030 A 
ATOM      4  C   LIG    1        2.408   1.506  -0.154  0.00  0.00    +0.030 A 
ATOM      5  C   LIG    1        2.323   0.099  -0.052  0.00  0.00    +0.050 A 
ATOM      6  C   LIG    1        1.073  -0.517  -0.003  0.00  0.00    +0.014 A 
ATOM      7  C   LIG    1       -0.069   0.252  -0.055  0.00  0.00    +0.004 A 
ATOM      8  C   LIG    1        0.009   1.634  -0.155  0.00  0.00    +0.046 A 
ATOM      9  C   LIG    1        1.236   2.269  -0.205  0.00  0.00    +0.130 A 
ATOM     10  C   LIG    1        3.571  -0.672  -0.001  0.00  0.00    +0.260 A 
ATOM     11  O   LIG    1        3.541  -1.886   0.087  0.00  0.00    -0.267 OA
ENDROOT
BRANCH   1  12
ATOM     12  C   LIG    1        5.990  -0.798  -0.001  0.00  0.00    +0.220 C 
BRANCH  12  15
ATOM     13  N   LIG    1        7.531  -1.888  -1.599  0.00  0.00    -0.284 N 
ATOM     14  H   LIG    1        8.100  -2.117  -0.848  0.00  0.00    +0.155 HD
ATOM     15  C   LIG    1        6.410  -1.167  -1.401  0.00  0.00    +0.237 C 
ATOM     16  O   LIG    1        5.739  -0.815  -2.348  0.00  0.00    -0.274 OA
BRANCH  13  20
ATOM     17  C   LIG    1        8.554  -3.131  -5.442  0.00  0.00    -0.047 A 
ATOM     18  C   LIG    1        7.941  -1.907  -5.254  0.00  0.00    +0.005 A 
ATOM     19  C   LIG    1        7.600  -1.492  -3.981  0.00  0.00    +0.023 A 
ATOM     20  C   LIG    1        7.874  -2.306  -2.890  0.00  0.00    +0.033 A 
ATOM     21  C   LIG    1        8.495  -3.533  -3.082  0.00  0.00    +0.023 A 
ATOM     22  C   LIG    1        8.828  -3.945  -4.358  0.00  0.00    +0.005 A 
BRANCH  17  23
ATOM     23  C   LIG    1        8.923  -3.582  -6.832  0.00  0.00    +0.035 C 
BRANCH  23  24
ATOM     24  C   LIG    1       10.340  -3.109  -7.162  0.00  0.00    +0.004 C 
BRANCH  24  26
ATOM     25  C   LIG    1       12.133  -3.093  -8.902  0.00  0.00    +0.004 C 
ATOM     26  C   LIG    1       10.715  -3.566  -8.573  0.00  0.00    -0.003 C 
ENDBRANCH  24  26
ENDBRANCH  23  24
ENDBRANCH  17  23
ENDBRANCH  13  20
ENDBRANCH  12  15
ENDBRANCH   1  12
BRANCH   9  27
ATOM     27  O   LIG    1        1.303   3.623  -0.304  0.00  0.00    -0.477 OA
BRANCH  27  28
ATOM     28  C   LIG    1        0.068   4.339  -0.253  0.00  0.00    +0.278 C 
ATOM     29  C   LIG    1       -0.331   4.564   1.207  0.00  0.00    +0.064 C 
BRANCH  28  30
ATOM     30  C   LIG    1        0.230   5.670  -0.941  0.00  0.00    +0.348 C 
ATOM     31  O   LIG    1        1.295   5.974  -1.425  0.00  0.00    -0.247 OA
BRANCH  30  32
ATOM     32  O   LIG    1       -0.808   6.518  -1.016  0.00  0.00    -0.462 OA
BRANCH  32  33
ATOM     33  C   LIG    1       -0.579   7.782  -1.692  0.00  0.00    +0.229 C 
ATOM     34  C   LIG    1       -1.866   8.609  -1.677  0.00  0.00    +0.048 C 
ENDBRANCH  32  33
ENDBRANCH  30  32
ENDBRANCH  28  30
ENDBRANCH  27  28
ENDBRANCH   9  27
TORSDOF 11
