REMARK  Name = ZINC02955579
REMARK                            x       y       z     vdW  Elec       q    Type
REMARK                         _______ _______ _______ _____ _____    ______ ____
ROOT
ATOM      1  C   UNK A  1       -0.015   1.334  -0.102  0.00  0.00    +0.036 C 
ATOM      2  C   UNK A  1        1.277   1.679   0.101  0.00  0.00    +0.097 C 
ENDROOT
BRANCH   1   5
ATOM      3  C   UNK A  1       -3.134   3.254  -0.909  0.00  0.00    +0.002 A 
ATOM      4  C   UNK A  1       -2.274   2.353  -0.317  0.00  0.00    +0.008 A 
ATOM      5  C   UNK A  1       -0.941   2.288  -0.733  0.00  0.00    -0.022 A 
ATOM      6  C   UNK A  1       -0.493   3.129  -1.756  0.00  0.00    +0.023 A 
ATOM      7  C   UNK A  1       -1.367   4.021  -2.343  0.00  0.00    +0.018 A 
ATOM      8 BR   UNK A  1       -0.765   5.160  -3.727  0.00  0.00    -0.050 Br
ATOM      9  C   UNK A  1       -2.684   4.084  -1.920  0.00  0.00    +0.015 A 
ENDBRANCH   1   5
BRANCH   2  10
ATOM     10  N   UNK A  1        2.192   0.725   0.556  0.00  0.00    -0.275 N 
ATOM     11  H   UNK A  1        1.910  -0.195   0.684  0.00  0.00    +0.155 HD
ATOM     12  C   UNK A  0        3.465   1.082   0.818  0.00  0.00    +0.284 C 
ATOM     13  O   UNK A  0        3.799   2.250   0.731  0.00  0.00    -0.266 OA
BRANCH  12  14
ATOM     14  C   UNK A  0        4.447   0.066   1.206  0.00  0.00    +0.189 A 
ATOM     15  C   UNK A  0        5.762   0.290   1.497  0.00  0.00    +0.054 A 
ATOM     16  C   UNK A  0        6.323  -0.956   1.816  0.00  0.00    +0.042 A 
ATOM     17  C   UNK A  0        5.338  -1.875   1.708  0.00  0.00    +0.196 A 
ATOM     18  O   UNK A  0        4.208  -1.255   1.345  0.00  0.00    -0.458 OA
ENDBRANCH  12  14
ENDBRANCH   2  10
BRANCH   2  19
ATOM     19  C   UNK A  1        1.720   3.057  -0.157  0.00  0.00    +0.259 C 
ATOM     20  N   GLY A  2        1.432   4.033   0.727  0.00  0.00    -0.300 N 
ATOM     21  H   GLY A  2        1.003   3.815   1.569  0.00  0.00    +0.150 HD
ATOM     22  O   UNK A  1        2.345   3.316  -1.167  0.00  0.00    -0.269 OA
BRANCH  20  23
ATOM     23  CA  GLY A  2        1.768   5.425   0.416  0.00  0.00    +0.225 C 
BRANCH  23  24
ATOM     24  C   GLY A  2        1.345   6.311   1.559  0.00  0.00    +0.322 C 
ATOM     25  O   GLY A  2        0.818   5.830   2.534  0.00  0.00    -0.249 OA
BRANCH  24  26
ATOM     26  OXT GLY A  2        1.555   7.636   1.494  0.00  0.00    -0.480 OA
ATOM     27  HXT GLY A  2        1.964   8.009   0.739  0.00  0.00    +0.295 HD
ENDBRANCH  24  26
ENDBRANCH  23  24
ENDBRANCH  20  23
ENDBRANCH   2  19
TORSDOF 7
