REMARK  Name = ZINC02581100
REMARK                            x       y       z     vdW  Elec       q    Type
REMARK                         _______ _______ _______ _____ _____    ______ ____
ROOT
ATOM      1  C   LIG    1       -0.018   1.503   0.010  0.00  0.00    +0.044 C 
ATOM      2  C   LIG    1        0.002  -0.004   0.002  0.00  0.00    -0.045 A 
ATOM      3  C   LIG    1        0.006  -0.682  -1.199  0.00  0.00    +0.031 A 
ATOM      4  C   LIG    1        0.025  -2.074  -1.208  0.00  0.00    +0.063 A 
ATOM      5  C   LIG    1        0.041  -2.777   0.007  0.00  0.00    +0.064 A 
ATOM      6  N   LIG    1        0.060  -4.162  -0.005  0.00  0.00    -0.352 N 
ATOM      7  H   LIG    1        0.071  -4.659   0.828  0.00  0.00    +0.166 HD
ATOM      8  C   LIG    1        0.063  -4.824  -1.208  0.00  0.00    +0.063 A 
ATOM      9  C   LIG    1        0.048  -4.101  -2.411  0.00  0.00    +0.109 A 
ATOM     10  C   LIG    1        0.036  -2.079   1.209  0.00  0.00    +0.031 A 
ATOM     11  N   LIG    1        0.028  -2.767  -2.404  0.00  0.00    -0.358 N 
ATOM     12  H   LIG    1        0.018  -2.280  -3.243  0.00  0.00    +0.165 HD
ATOM     13  C   LIG    1        0.023  -0.700   1.202  0.00  0.00    -0.045 A 
ATOM     14  C   LIG    1        0.025   0.056   2.506  0.00  0.00    +0.044 C 
ENDROOT
BRANCH   8  15
ATOM     15  C   LIG    1        0.083  -6.235  -1.235  0.00  0.00    +0.004 C 
ATOM     16  C   LIG    1        0.093  -6.957  -0.031  0.00  0.00    +0.064 C 
ATOM     17  C   LIG    1        0.112  -8.340  -0.060  0.00  0.00    +0.226 C 
ATOM     18  C   LIG    1        0.121  -9.040  -1.359  0.00  0.00    +0.225 C 
ATOM     19  C   LIG    1        0.111  -8.291  -2.558  0.00  0.00    +0.055 C 
ATOM     20  O   LIG    1        0.138 -10.259  -1.398  0.00  0.00    -0.284 OA
ATOM     21  O   LIG    1        0.121  -9.035   1.077  0.00  0.00    -0.284 OA
ATOM     22  C   LIG    1        0.086  -6.939  -2.516  0.00  0.00    +0.014 C 
ENDBRANCH   8  15
TORSDOF 1
