REMARK  Name = ZINC03157622
REMARK                            x       y       z     vdW  Elec       q    Type
REMARK                         _______ _______ _______ _____ _____    ______ ____
ROOT
ATOM      1  C   LIG    1       -0.070   5.312   0.029  0.00  0.00    +0.026 C 
ATOM      2  C   LIG    1        1.111   6.018   0.126  0.00  0.00    +0.101 C 
ATOM      3  C   LIG    1        2.421   5.334   0.120  0.00  0.00    +0.256 C 
ATOM      4  N   LIG    1        3.534   6.090   0.212  0.00  0.00    -0.238 N 
ATOM      5  H   LIG    1        4.525   5.614   0.202  0.00  0.00    +0.159 HD
ATOM      6  C   LIG    1        3.468   7.425   0.318  0.00  0.00    +0.278 C 
ATOM      7  N   LIG    1        2.318   8.111   0.336  0.00  0.00    -0.127 NA
ATOM      8  O   LIG    1        2.494   4.123   0.029  0.00  0.00    -0.270 OA
ATOM      9  C   LIG    1        1.123   7.490   0.245  0.00  0.00    +0.276 C 
ATOM     10  O   LIG    1        0.086   8.125   0.262  0.00  0.00    -0.268 OA
ENDROOT
BRANCH   1  13
ATOM     11  C   LIG    1        0.773   2.084  -1.675  0.00  0.00    +0.003 A 
ATOM     12  C   LIG    1        0.758   3.426  -1.362  0.00  0.00    +0.008 A 
ATOM     13  C   LIG    1       -0.047   3.887  -0.311  0.00  0.00    -0.022 A 
ATOM     14  C   LIG    1       -0.830   2.976   0.411  0.00  0.00    +0.040 A 
ATOM     15  C   LIG    1       -0.807   1.639   0.080  0.00  0.00    +0.122 A 
ATOM     16  C   LIG    1       -0.004   1.192  -0.956  0.00  0.00    +0.032 A 
BRANCH  15  17
ATOM     17  N   LIG    1       -1.637   0.676   0.838  0.00  0.00    +0.006 N 
ATOM     18  O   LIG    1       -1.614  -0.507   0.550  0.00  0.00    -0.130 OA
BRANCH  17  19
ATOM     19  O   LIG    1       -2.344   1.068   1.750  0.00  0.00    -0.396 OA
ATOM     20  H   LIG    1       -2.362   1.978   1.971  0.00  0.00    +0.329 HD
ENDBRANCH  17  19
ENDBRANCH  15  17
ENDBRANCH   1  13
BRANCH   6  21
ATOM     21  O   LIG    1        4.509   8.046   0.404  0.00  0.00    -0.483 OA
ATOM     22  H   LIG    1        5.328   7.591   0.394  0.00  0.00    +0.295 HD
ENDBRANCH   6  21
TORSDOF 4
