REMARK  Name = ZINC02555734
REMARK                            x       y       z     vdW  Elec       q    Type
REMARK                         _______ _______ _______ _____ _____    ______ ____
ROOT
ATOM      1  C   LIG    1        2.353   0.985   0.089  0.00  0.00    +0.156 C 
ATOM      2  C   LIG    1        1.188   1.658  -0.226  0.00  0.00    +0.094 C 
ENDROOT
BRANCH   1   3
ATOM      3  C   LIG    1        2.378  -0.481   0.081  0.00  0.00    +0.347 C 
ATOM      4  O   LIG    1        1.349  -1.106  -0.095  0.00  0.00    -0.245 OA
BRANCH   3   5
ATOM      5  O   LIG    1        3.541  -1.137   0.270  0.00  0.00    -0.461 OA
BRANCH   5   7
ATOM      6  C   LIG    1        4.895  -3.150   0.478  0.00  0.00    +0.048 C 
ATOM      7  C   LIG    1        3.490  -2.588   0.249  0.00  0.00    +0.229 C 
ENDBRANCH   5   7
ENDBRANCH   3   5
ENDBRANCH   1   3
BRANCH   1   8
ATOM      8  C   LIG    1        3.565   1.737   0.431  0.00  0.00    +0.347 C 
ATOM      9  O   LIG    1        3.544   2.953   0.438  0.00  0.00    -0.245 OA
BRANCH   8  10
ATOM     10  O   LIG    1        4.702   1.080   0.738  0.00  0.00    -0.461 OA
BRANCH  10  11
ATOM     11  C   LIG    1        5.862   1.889   1.067  0.00  0.00    +0.229 C 
ATOM     12  C   LIG    1        7.047   0.975   1.385  0.00  0.00    +0.048 C 
ENDBRANCH  10  11
ENDBRANCH   8  10
ENDBRANCH   1   8
BRANCH   2  13
ATOM     13  N   LIG    1        0.118   0.977  -0.685  0.00  0.00    -0.320 N 
ATOM     14  H   LIG    1        0.194   0.029  -0.881  0.00  0.00    +0.152 HD
BRANCH  13  15
ATOM     15  C   LIG    1       -1.098   1.636  -0.886  0.00  0.00    +0.031 A 
ATOM     16  C   LIG    1       -1.210   2.991  -0.601  0.00  0.00    +0.023 A 
ATOM     17  C   LIG    1       -2.411   3.642  -0.806  0.00  0.00    +0.005 A 
ATOM     18  C   LIG    1       -3.505   2.942  -1.282  0.00  0.00    -0.050 A 
ATOM     19  C   LIG    1       -4.816   3.654  -1.498  0.00  0.00    +0.044 C 
ATOM     20  C   LIG    1       -3.398   1.592  -1.561  0.00  0.00    +0.005 A 
ATOM     21  C   LIG    1       -2.199   0.937  -1.365  0.00  0.00    +0.023 A 
ENDBRANCH  13  15
ENDBRANCH   2  13
TORSDOF 8
