REMARK  Name = ZINC02848713
REMARK                            x       y       z     vdW  Elec       q    Type
REMARK                         _______ _______ _______ _____ _____    ______ ____
ROOT
ATOM      1  C   LIG    1        6.084   6.287  -0.025  0.00  0.00    -0.005 A 
ATOM      2  C   LIG    1        7.305   5.605  -0.046  0.00  0.00    +0.010 A 
ATOM      3  C   LIG    1        8.478   6.304  -0.054  0.00  0.00    +0.010 A 
ATOM      4  C   LIG    1        8.459   7.703  -0.041  0.00  0.00    -0.005 A 
ATOM      5  C   LIG    1        7.238   8.385  -0.021  0.00  0.00    +0.010 A 
ATOM      6  C   LIG    1        6.065   7.686  -0.017  0.00  0.00    +0.010 A 
ENDROOT
BRANCH   1   8
ATOM      7  N   LIG    1        4.837   4.235  -0.023  0.00  0.00    -0.187 NA
ATOM      8  C   LIG    1        4.819   5.533  -0.016  0.00  0.00    +0.138 C 
BRANCH   7  10
ATOM      9  C   LIG    1        3.652   2.170  -0.022  0.00  0.00    +0.267 C 
ATOM     10  N   LIG    1        3.634   3.518  -0.015  0.00  0.00    -0.203 N 
ATOM     11  H   LIG    1        2.787   3.991  -0.004  0.00  0.00    +0.178 HD
ATOM     12  O   LIG    1        4.714   1.576  -0.035  0.00  0.00    -0.268 OA
BRANCH   9  15
ATOM     13  C   LIG    1       -0.017   1.381   0.010  0.00  0.00    +0.001 A 
ATOM     14  C   LIG    1        1.164   2.092   0.002  0.00  0.00    +0.017 A 
ATOM     15  C   LIG    1        2.385   1.415  -0.013  0.00  0.00    +0.080 A 
ATOM     16  C   LIG    1        2.400   0.013  -0.021  0.00  0.00    +0.129 A 
ATOM     17  C   LIG    1        1.203  -0.686  -0.013  0.00  0.00    +0.046 A 
ATOM     18  C   LIG    1        0.002  -0.004   0.002  0.00  0.00    +0.004 A 
BRANCH  16  19
ATOM     19  O   LIG    1        3.580  -0.656  -0.036  0.00  0.00    -0.506 OA
ATOM     20  H   LIG    1        3.931  -0.855   0.843  0.00  0.00    +0.292 HD
ENDBRANCH  16  19
ENDBRANCH   9  15
ENDBRANCH   7  10
ENDBRANCH   1   8
BRANCH   4  21
ATOM     21  C   LIG    1        9.724   8.457  -0.049  0.00  0.00    +0.138 C 
ATOM     22  N   LIG    1        9.706   9.755  -0.037  0.00  0.00    -0.187 NA
BRANCH  22  23
ATOM     23  N   LIG    1       10.910  10.472  -0.044  0.00  0.00    -0.203 N 
ATOM     24  H   LIG    1       11.756   9.999  -0.058  0.00  0.00    +0.178 HD
ATOM     25  C   LIG    1       10.891  11.820  -0.032  0.00  0.00    +0.267 C 
ATOM     26  O   LIG    1        9.830  12.413  -0.015  0.00  0.00    -0.268 OA
BRANCH  25  27
ATOM     27  C   LIG    1       12.158  12.575  -0.040  0.00  0.00    +0.080 A 
ATOM     28  C   LIG    1       12.144  13.977  -0.021  0.00  0.00    +0.129 A 
ATOM     29  C   LIG    1       13.341  14.676  -0.028  0.00  0.00    +0.046 A 
ATOM     30  C   LIG    1       14.541  13.994  -0.053  0.00  0.00    +0.004 A 
ATOM     31  C   LIG    1       14.560  12.609  -0.072  0.00  0.00    +0.001 A 
ATOM     32  C   LIG    1       13.380  11.898  -0.059  0.00  0.00    +0.017 A 
BRANCH  28  33
ATOM     33  O   LIG    1       10.964  14.646   0.003  0.00  0.00    -0.506 OA
ATOM     34  H   LIG    1       10.633  14.828   0.893  0.00  0.00    +0.292 HD
ENDBRANCH  28  33
ENDBRANCH  25  27
ENDBRANCH  22  23
ENDBRANCH   4  21
TORSDOF 8
