REMARK  Name = ZINC02557949
REMARK                            x       y       z     vdW  Elec       q    Type
REMARK                         _______ _______ _______ _____ _____    ______ ____
ROOT
ATOM      1  C   LIG    1        3.717  -0.653   0.019  0.00  0.00    +0.101 A 
ATOM      2  C   LIG    1        3.897  -1.834   0.782  0.00  0.00    +0.013 A 
ATOM      3  C   LIG    1        2.893  -2.367   1.597  0.00  0.00    +0.011 A 
ATOM      4  C   LIG    1        3.139  -3.509   2.302  0.00  0.00    +0.001 A 
ATOM      5  C   LIG    1        4.372  -4.149   2.224  0.00  0.00    +0.001 A 
ATOM      6  C   LIG    1        5.372  -3.655   1.438  0.00  0.00    +0.012 A 
ATOM      7  C   LIG    1        5.153  -2.486   0.702  0.00  0.00    +0.026 A 
ATOM      8  C   LIG    1        6.139  -1.913  -0.134  0.00  0.00    +0.153 A 
ATOM      9  N   LIG    1        5.852  -0.806  -0.797  0.00  0.00    -0.133 NA
ATOM     10  N   LIG    1        4.716  -0.219  -0.730  0.00  0.00    -0.147 NA
ENDROOT
BRANCH   1  14
ATOM     11  C   LIG    1        0.025   1.448   0.126  0.00  0.00    +0.000 A 
ATOM     12  C   LIG    1        0.588   0.985   1.302  0.00  0.00    +0.001 A 
ATOM     13  C   LIG    1        1.787   0.302   1.274  0.00  0.00    +0.010 A 
ATOM     14  C   LIG    1        2.431   0.079   0.057  0.00  0.00    +0.003 A 
ATOM     15  C   LIG    1        1.857   0.548  -1.126  0.00  0.00    +0.010 A 
ATOM     16  C   LIG    1        0.658   1.229  -1.085  0.00  0.00    +0.001 A 
ENDBRANCH   1  14
BRANCH   8  17
ATOM     17  N   LIG    1        7.387  -2.502  -0.255  0.00  0.00    -0.297 N 
ATOM     18  H   LIG    1        7.564  -3.355   0.171  0.00  0.00    +0.154 HD
BRANCH  17  19
ATOM     19  C   LIG    1        8.391  -1.867  -0.991  0.00  0.00    +0.034 A 
ATOM     20  C   LIG    1        8.475  -0.480  -1.002  0.00  0.00    +0.023 A 
ATOM     21  C   LIG    1        9.468   0.145  -1.730  0.00  0.00    +0.003 A 
ATOM     22  C   LIG    1       10.379  -0.607  -2.448  0.00  0.00    +0.020 A 
ATOM     23  C   LIG    1       10.299  -1.989  -2.440  0.00  0.00    +0.043 A 
ATOM     24 CL   LIG    1       11.445  -2.929  -3.343  0.00  0.00    -0.083 Cl
ATOM     25  C   LIG    1        9.311  -2.620  -1.708  0.00  0.00    +0.043 A 
ENDBRANCH  17  19
ENDBRANCH   8  17
TORSDOF 3
