REMARK  Name = ZINC02997374
REMARK                            x       y       z     vdW  Elec       q    Type
REMARK                         _______ _______ _______ _____ _____    ______ ____
ROOT
ATOM      1  C   LIG    1        1.256  -7.930  -0.526  0.00  0.00    +0.121 A 
ATOM      2  C   LIG    1        0.433  -8.763   0.223  0.00  0.00    +0.045 A 
ATOM      3  C   LIG    1        0.792 -10.080   0.451  0.00  0.00    +0.004 A 
ATOM      4  C   LIG    1        1.970 -10.578  -0.064  0.00  0.00    +0.008 A 
ATOM      5  C   LIG    1        2.807  -9.748  -0.821  0.00  0.00    -0.021 A 
ATOM      6  C   LIG    1        2.438  -8.416  -1.054  0.00  0.00    +0.053 A 
ENDROOT
BRANCH   5   7
ATOM      7  C   LIG    1        4.061 -10.271  -1.372  0.00  0.00    +0.026 C 
ATOM      8  C   LIG    1        5.223  -9.536  -1.261  0.00  0.00    +0.101 C 
ATOM      9  C   LIG    1        5.298  -8.332  -0.410  0.00  0.00    +0.256 C 
ATOM     10  N   LIG    1        6.474  -7.670  -0.358  0.00  0.00    -0.238 N 
ATOM     11  H   LIG    1        6.549  -6.876   0.194  0.00  0.00    +0.159 HD
ATOM     12  C   LIG    1        7.553  -8.095  -1.064  0.00  0.00    +0.278 C 
ATOM     13  N   LIG    1        7.548  -9.154  -1.835  0.00  0.00    -0.127 NA
ATOM     14  O   LIG    1        4.332  -7.949   0.224  0.00  0.00    -0.270 OA
ATOM     15  C   LIG    1        6.455  -9.920  -1.986  0.00  0.00    +0.276 C 
ATOM     16  O   LIG    1        6.476 -10.905  -2.704  0.00  0.00    -0.268 OA
BRANCH  12  17
ATOM     17  O   LIG    1        8.695  -7.388  -0.966  0.00  0.00    -0.483 OA
ATOM     18  H   LIG    1        8.728  -6.625  -0.422  0.00  0.00    +0.295 HD
ENDBRANCH  12  17
ENDBRANCH   5   7
BRANCH   1  19
ATOM     19  O   LIG    1        0.895  -6.638  -0.744  0.00  0.00    -0.489 OA
BRANCH  19  20
ATOM     20  C   LIG    1       -0.338  -6.203  -0.169  0.00  0.00    +0.270 C 
BRANCH  20  21
ATOM     21  C   LIG    1       -0.573  -4.732  -0.520  0.00  0.00    +0.270 C 
BRANCH  21  22
ATOM     22  O   LIG    1       -0.747  -4.601  -1.932  0.00  0.00    -0.489 OA
BRANCH  22  27
ATOM     23  C   LIG    1       -1.663   0.587  -3.926  0.00  0.00    +0.044 C 
ATOM     24  C   LIG    1       -1.417  -0.801  -3.393  0.00  0.00    -0.050 A 
ATOM     25  C   LIG    1       -1.369  -1.876  -4.261  0.00  0.00    +0.007 A 
ATOM     26  C   LIG    1       -1.145  -3.149  -3.775  0.00  0.00    +0.046 A 
ATOM     27  C   LIG    1       -0.968  -3.349  -2.413  0.00  0.00    +0.121 A 
ATOM     28  C   LIG    1       -1.016  -2.269  -1.544  0.00  0.00    +0.046 A 
ATOM     29  C   LIG    1       -1.235  -0.997  -2.036  0.00  0.00    +0.007 A 
ENDBRANCH  22  27
ENDBRANCH  21  22
ENDBRANCH  20  21
ENDBRANCH  19  20
ENDBRANCH   1  19
TORSDOF 7
