REMARK  Name = ZINC02581408
REMARK                            x       y       z     vdW  Elec       q    Type
REMARK                         _______ _______ _______ _____ _____    ______ ____
ROOT
ATOM      1  C   LIG    1       -1.200  -0.637   0.010  0.00  0.00    +0.126 A 
ATOM      2  C   LIG    1       -2.359   0.107   0.019  0.00  0.00    +0.074 A 
ATOM      3  C   LIG    1       -3.603  -0.542   0.027  0.00  0.00    +0.078 A 
ATOM      4  C   LIG    1       -3.643  -1.960   0.025  0.00  0.00    +0.043 A 
ATOM      5  C   LIG    1       -2.438  -2.694   0.016  0.00  0.00    +0.133 A 
ATOM      6  C   LIG    1       -4.886  -2.609   0.034  0.00  0.00    +0.023 A 
ATOM      7  C   LIG    1       -6.032  -1.824   0.043  0.00  0.00    +0.001 A 
ATOM      8  C   LIG    1       -5.912  -0.426   0.044  0.00  0.00    +0.120 A 
ATOM      9  N   LIG    1       -4.742   0.161   0.037  0.00  0.00    -0.254 NA
ATOM     10  C   LIG    1       -1.243  -2.033   0.003  0.00  0.00    +0.092 A 
ENDROOT
BRANCH   7  11
ATOM     11  C   LIG    1       -7.372  -2.459   0.051  0.00  0.00    -0.014 A 
ATOM     12  C   LIG    1       -7.508  -3.851   0.055  0.00  0.00    +0.028 A 
ATOM     13  C   LIG    1       -8.773  -4.400   0.063  0.00  0.00    +0.111 A 
ATOM     14  N   LIG    1       -9.845  -3.631   0.065  0.00  0.00    -0.263 NA
ATOM     15  C   LIG    1       -9.761  -2.314   0.061  0.00  0.00    +0.111 A 
ATOM     16  C   LIG    1       -8.535  -1.683   0.060  0.00  0.00    +0.028 A 
ENDBRANCH   7  11
BRANCH   1  18
ATOM     17  C   LIG    1       -0.017   1.425   0.010  0.00  0.00    +0.277 C 
ATOM     18  O   LIG    1        0.002  -0.004   0.002  0.00  0.00    -0.495 OA
ENDBRANCH   1  18
BRANCH   5  19
ATOM     19  O   LIG    1       -2.466  -4.051   0.015  0.00  0.00    -0.494 OA
ATOM     20  C   LIG    1       -1.207  -4.726   0.005  0.00  0.00    +0.277 C 
ENDBRANCH   5  19
TORSDOF 3
