REMARK  Name = ZINC02983154
REMARK                            x       y       z     vdW  Elec       q    Type
REMARK                         _______ _______ _______ _____ _____    ______ ____
ROOT
ATOM      1  CA  PHE A  1        0.780  -1.133   3.576  0.00  0.00    +0.163 C 
ENDROOT
BRANCH   1   4
ATOM      2  N   PHE A  1        0.711  -0.489   1.189  0.00  0.00    -0.301 N 
ATOM      3  H   PHE A  1        1.654  -0.707   1.135  0.00  0.00    +0.150 HD
ATOM      4  C   PHE A  1        0.051  -0.633   2.355  0.00  0.00    +0.234 C 
ATOM      5  O   PHE A  1       -1.129  -0.361   2.423  0.00  0.00    -0.274 OA
BRANCH   2   7
ATOM      6  CB  PHE A  1       -0.019   1.526   0.010  0.00  0.00    +0.040 C 
ATOM      7  CA  PHE A  1        0.002  -0.004   0.002  0.00  0.00    +0.179 C 
BRANCH   7   8
ATOM      8  C   PHE A  1        0.707  -0.490  -1.238  0.00  0.00    +0.325 C 
ATOM      9  O   PHE A  1        1.802  -1.020  -1.149  0.00  0.00    -0.249 OA
BRANCH   8  10
ATOM     10  OXT PHE A  1        0.183  -0.354  -2.330  0.00  0.00    -0.479 OA
ATOM     11  HXT PHE A  1       -0.658   0.053  -2.399  0.00  0.00    +0.295 HD
ENDBRANCH   8  10
ENDBRANCH   7   8
ENDBRANCH   2   7
ENDBRANCH   1   4
BRANCH   1  12
ATOM     12  N   PHE A  1       -0.150  -1.201   4.706  0.00  0.00    -0.300 N 
ATOM     13  H   PHE A  1       -0.597  -2.035   4.917  0.00  0.00    +0.150 HD
ATOM     14  C   UNK A  0       -0.384  -0.104   5.454  0.00  0.00    +0.245 C 
ATOM     15  O   UNK A  0        0.177   0.942   5.190  0.00  0.00    -0.270 OA
BRANCH  14  16
ATOM     16  C   UNK A  0       -1.322  -0.172   6.594  0.00  0.00    +0.037 A 
ATOM     17  C   UNK A  0       -1.963  -1.373   6.903  0.00  0.00    +0.013 A 
ATOM     18  C   UNK A  0       -2.837  -1.431   7.969  0.00  0.00    +0.001 A 
ATOM     19  C   UNK A  0       -3.079  -0.301   8.730  0.00  0.00    +0.000 A 
ATOM     20  C   UNK A  0       -2.448   0.892   8.429  0.00  0.00    +0.001 A 
ATOM     21  C   UNK A  0       -1.567   0.962   7.370  0.00  0.00    +0.013 A 
ENDBRANCH  14  16
ENDBRANCH   1  12
BRANCH   1  22
ATOM     22  CB  PHE A  1        1.347  -2.526   3.298  0.00  0.00    +0.067 C 
BRANCH  22  23
ATOM     23  CG  PHE A  1        2.179  -2.974   4.472  0.00  0.00    -0.045 A 
ATOM     24  CD2 PHE A  1        3.529  -2.681   4.515  0.00  0.00    +0.004 A 
ATOM     25  CE2 PHE A  1        4.292  -3.092   5.592  0.00  0.00    +0.000 A 
ATOM     26  CZ  PHE A  1        3.704  -3.796   6.626  0.00  0.00    +0.000 A 
ATOM     27  CE1 PHE A  1        2.354  -4.089   6.584  0.00  0.00    +0.000 A 
ATOM     28  CD1 PHE A  1        1.590  -3.674   5.509  0.00  0.00    +0.004 A 
ENDBRANCH  22  23
ENDBRANCH   1  22
TORSDOF 8
