REMARK  Name = ZINC03628257
REMARK                            x       y       z     vdW  Elec       q    Type
REMARK                         _______ _______ _______ _____ _____    ______ ____
ROOT
ATOM      1  C   LIG    1       -4.465  -1.473  -0.669  0.00  0.00    +0.001 A 
ATOM      2  C   LIG    1       -4.496  -1.423   0.709  0.00  0.00    +0.010 A 
ATOM      3  C   LIG    1       -3.620  -0.577   1.391  0.00  0.00    +0.001 A 
ATOM      4  C   LIG    1       -3.389  -0.291   2.809  0.00  0.00    +0.027 A 
ATOM      5  C   LIG    1       -2.334   0.533   2.872  0.00  0.00    +0.087 A 
ATOM      6  N   LIG    1       -1.865   0.796   1.610  0.00  0.00    -0.345 N 
ATOM      7  C   LIG    1       -0.681   1.553   1.275  0.00  0.00    +0.140 C 
ATOM      8  C   LIG    1       -0.013   1.086   0.008  0.00  0.00    +0.126 C 
ATOM      9  N   LIG    1       -0.676   1.547  -1.189  0.00  0.00    -0.310 N 
ATOM     10  H   LIG    1       -0.220   2.178  -1.767  0.00  0.00    +0.149 HD
ATOM     11  C   LIG    1       -1.910   1.124  -1.524  0.00  0.00    +0.246 C 
ATOM     12  O   LIG    1       -2.374   1.527  -2.574  0.00  0.00    -0.270 OA
ATOM     13  C   LIG    1       -2.737   0.216  -0.725  0.00  0.00    +0.061 A 
ATOM     14  C   LIG    1       -2.695   0.205   0.677  0.00  0.00    +0.061 A 
ATOM     15  C   LIG    1       -3.605  -0.661  -1.382  0.00  0.00    +0.015 A 
ENDROOT
TORSDOF 0
