REMARK  Name = ZINC03203900
REMARK                            x       y       z     vdW  Elec       q    Type
REMARK                         _______ _______ _______ _____ _____    ______ ____
ROOT
ATOM      1  C   LIG    1       -0.016   1.344   0.009  0.00  0.00    +0.248 C 
ATOM      2  N   LIG    1        0.015  -0.003  -0.035  0.00  0.00    -0.235 N 
ATOM      3  C   LIG    1        1.249  -0.651  -0.160  0.00  0.00    +0.055 A 
ATOM      4  C   LIG    1        2.249  -0.110  -0.949  0.00  0.00    +0.025 A 
ATOM      5  C   LIG    1        3.467  -0.757  -1.064  0.00  0.00    +0.002 A 
ATOM      6  C   LIG    1        3.697  -1.942  -0.391  0.00  0.00    +0.001 A 
ATOM      7  C   LIG    1        2.706  -2.491   0.406  0.00  0.00    +0.017 A 
ATOM      8  C   LIG    1        1.488  -1.848   0.525  0.00  0.00    +0.035 A 
ATOM      9  S   LIG    1        0.205  -2.523   1.533  0.00  0.00    -0.086 S 
ATOM     10  C   LIG    1       -1.254  -1.920   0.742  0.00  0.00    +0.035 A 
ATOM     11  C   LIG    1       -2.441  -2.624   0.815  0.00  0.00    +0.017 A 
ATOM     12  C   LIG    1       -3.572  -2.131   0.186  0.00  0.00    +0.001 A 
ATOM     13  C   LIG    1       -3.511  -0.939  -0.511  0.00  0.00    +0.002 A 
ATOM     14  C   LIG    1       -2.326  -0.230  -0.588  0.00  0.00    +0.025 A 
ATOM     15  C   LIG    1       -1.188  -0.714   0.038  0.00  0.00    +0.055 A 
ATOM     16  O   LIG    1        1.021   1.979  -0.041  0.00  0.00    -0.270 OA
ENDROOT
BRANCH   1  18
ATOM     17  C   LIG    1       -1.341   3.387   0.038  0.00  0.00    +0.013 C 
ATOM     18  C   LIG    1       -1.297   2.042   0.125  0.00  0.00    +0.069 C 
BRANCH  17  22
ATOM     19  C   LIG    1       -5.054   5.412   0.372  0.00  0.00    +0.000 A 
ATOM     20  C   LIG    1       -3.891   6.135   0.175  0.00  0.00    +0.001 A 
ATOM     21  C   LIG    1       -2.680   5.484   0.066  0.00  0.00    +0.008 A 
ATOM     22  C   LIG    1       -2.630   4.090   0.155  0.00  0.00    -0.025 A 
ATOM     23  C   LIG    1       -3.810   3.366   0.349  0.00  0.00    +0.008 A 
ATOM     24  C   LIG    1       -5.013   4.032   0.461  0.00  0.00    +0.001 A 
ENDBRANCH  17  22
ENDBRANCH   1  18
TORSDOF 2
