REMARK  Name = ZINC02534401
REMARK                            x       y       z     vdW  Elec       q    Type
REMARK                         _______ _______ _______ _____ _____    ______ ____
ROOT
ATOM      1  C   LIG    1       -1.566   3.582   2.484  0.00  0.00    +0.007 C 
ATOM      2  C   LIG    1       -1.058   3.054   1.140  0.00  0.00    -0.018 C 
ATOM      3  C   LIG    1       -0.699   1.563   1.276  0.00  0.00    -0.064 C 
ATOM      4  N   LIG    1       -1.861   0.738   1.640  0.00  0.00    +0.381 N 
ATOM      5  H   LIG    1       -1.574  -0.248   1.670  0.00  0.00    -0.086 HD
ATOM      6  H   LIG    1       -2.197   1.024   2.567  0.00  0.00    -0.086 HD
ATOM      7  C   LIG    1       -2.962   0.889   0.661  0.00  0.00    -0.081 C 
ATOM      8  C   LIG    1       -3.382   2.360   0.578  0.00  0.00    -0.008 C 
ATOM      9  C   LIG    1       -0.013   1.086   0.008  0.00  0.00    +0.020 C 
ATOM     10  C   LIG    1       -0.717   1.572  -1.230  0.00  0.00    -0.045 A 
ATOM     11  C   LIG    1       -0.343   1.011  -2.446  0.00  0.00    +0.007 A 
ATOM     12  C   LIG    1       -0.939   1.417  -3.620  0.00  0.00    +0.045 A 
ATOM     13  C   LIG    1       -1.921   2.397  -3.593  0.00  0.00    +0.117 A 
ATOM     14  C   LIG    1       -2.296   2.954  -2.381  0.00  0.00    +0.049 A 
ATOM     15  C   LIG    1       -1.698   2.537  -1.202  0.00  0.00    -0.035 A 
ATOM     16  C   LIG    1       -2.167   3.167   0.088  0.00  0.00    -0.007 C 
ATOM     17  C   LIG    1       -2.548   4.632  -0.136  0.00  0.00    +0.016 C 
ENDROOT
BRANCH  13  18
ATOM     18  O   LIG    1       -2.510   2.807  -4.746  0.00  0.00    -0.507 OA
ATOM     19  H   LIG    1       -2.062   3.549  -5.175  0.00  0.00    +0.292 HD
ENDBRANCH  13  18
TORSDOF 1
