REMARK  Name = ZINC02815535
REMARK                            x       y       z     vdW  Elec       q    Type
REMARK                         _______ _______ _______ _____ _____    ______ ____
ROOT
ATOM      1  N   LIG    1        5.450  -1.678   1.382  0.00  0.00    -0.308 N 
ATOM      2  H   LIG    1        5.864  -1.911   0.536  0.00  0.00    +0.149 HD
ATOM      3  C   LIG    1        6.050  -2.013   2.541  0.00  0.00    +0.285 C 
ATOM      4  O   LIG    1        5.532  -1.722   3.599  0.00  0.00    -0.267 OA
ENDROOT
BRANCH   3   5
ATOM      5  C   LIG    1        7.352  -2.741   2.524  0.00  0.00    +0.249 C 
ATOM      6  O   LIG    1        7.871  -3.033   1.464  0.00  0.00    -0.282 OA
BRANCH   5   7
ATOM      7  C   LIG    1        8.003  -3.105   3.782  0.00  0.00    +0.052 A 
ATOM      8  C   LIG    1        7.541  -2.852   5.059  0.00  0.00    +0.095 A 
ATOM      9  N   LIG    1        8.415  -3.338   5.960  0.00  0.00    -0.360 N 
ATOM     10  C   LIG    1        9.489  -3.931   5.327  0.00  0.00    +0.047 A 
ATOM     11  C   LIG    1       10.634  -4.566   5.796  0.00  0.00    +0.026 A 
ATOM     12  C   LIG    1       11.548  -5.086   4.904  0.00  0.00    +0.002 A 
ATOM     13  C   LIG    1       11.344  -4.972   3.538  0.00  0.00    +0.001 A 
ATOM     14  C   LIG    1       10.217  -4.343   3.053  0.00  0.00    +0.011 A 
ATOM     15  H   LIG    1        8.305  -3.280   6.921  0.00  0.00    +0.165 HD
ATOM     16  C   LIG    1        9.284  -3.821   3.943  0.00  0.00    +0.011 A 
ENDBRANCH   5   7
ENDBRANCH   3   5
BRANCH   1  17
ATOM     17  C   LIG    1        4.171  -0.963   1.399  0.00  0.00    +0.109 C 
BRANCH  17  18
ATOM     18  C   LIG    1        3.711  -0.707  -0.038  0.00  0.00    +0.054 C 
BRANCH  18  22
ATOM     19  C   LIG    1       -0.017   1.378   0.010  0.00  0.00    +0.000 A 
ATOM     20  C   LIG    1        1.171   2.086   0.002  0.00  0.00    +0.000 A 
ATOM     21  C   LIG    1        2.377   1.411  -0.013  0.00  0.00    +0.004 A 
ATOM     22  C   LIG    1        2.396   0.029  -0.020  0.00  0.00    -0.046 A 
ATOM     23  C   LIG    1        1.208  -0.679  -0.012  0.00  0.00    +0.004 A 
ATOM     24  C   LIG    1        0.002  -0.004   0.002  0.00  0.00    +0.000 A 
ENDBRANCH  18  22
ENDBRANCH  17  18
ENDBRANCH   1  17
TORSDOF 5
