REMARK  Name = ZINC03610031
REMARK                            x       y       z     vdW  Elec       q    Type
REMARK                         _______ _______ _______ _____ _____    ______ ____
ROOT
ATOM      1  C   LIG    1        1.171   1.785   0.001  0.00  0.00    +0.001 A 
ATOM      2  C   LIG    1        1.155   3.168   0.008  0.00  0.00    +0.001 A 
ATOM      3  C   LIG    1       -0.049   3.852   0.022  0.00  0.00    +0.011 A 
ATOM      4  C   LIG    1       -1.236   3.152   0.030  0.00  0.00    +0.045 A 
ATOM      5  C   LIG    1       -1.228   1.760   0.017  0.00  0.00    +0.071 A 
ATOM      6  C   LIG    1       -2.635   1.271   0.021  0.00  0.00    +0.276 C 
ATOM      7  N   LIG    1       -3.265   0.122   0.019  0.00  0.00    -0.271 N 
ATOM      8  H   LIG    1       -2.810  -0.799   0.012  0.00  0.00    +0.304 HD
ATOM      9  C   LIG    1       -4.719   0.342   0.027  0.00  0.00    +0.277 C 
ATOM     10  C   LIG    1       -4.872   1.874   0.035  0.00  0.00    +0.274 C 
ATOM     11  N   LIG    1       -3.480   2.352   0.031  0.00  0.00    -0.183 N 
ATOM     12  C   LIG    1       -2.680   3.583   0.045  0.00  0.00    +0.256 C 
ATOM     13  C   LIG    1       -0.013   1.076   0.008  0.00  0.00    +0.016 A 
ENDROOT
BRANCH  12  14
ATOM     14  C   LIG    1       -2.966   4.387   1.287  0.00  0.00    +0.032 A 
ATOM     15  C   LIG    1       -3.368   3.749   2.446  0.00  0.00    +0.011 A 
ATOM     16  C   LIG    1       -3.626   4.485   3.587  0.00  0.00    +0.002 A 
ATOM     17  C   LIG    1       -3.494   5.861   3.567  0.00  0.00    +0.020 A 
ATOM     18  C   LIG    1       -3.097   6.500   2.406  0.00  0.00    +0.041 A 
ATOM     19 CL   LIG    1       -2.930   8.228   2.380  0.00  0.00    -0.084 Cl
ATOM     20  C   LIG    1       -2.833   5.762   1.266  0.00  0.00    +0.030 A 
ENDBRANCH  12  14
BRANCH  12  21
ATOM     21  O   LIG    1       -2.973   4.357  -1.120  0.00  0.00    -0.346 OA
ATOM     22  H   LIG    1       -2.457   5.172  -1.190  0.00  0.00    +0.215 HD
ENDBRANCH  12  21
TORSDOF 2
