REMARK  Name = ZINC03339892
REMARK                            x       y       z     vdW  Elec       q    Type
REMARK                         _______ _______ _______ _____ _____    ______ ____
ROOT
ATOM      1  C   LIG    1        1.274  -6.212  -0.911  0.00  0.00    +0.162 A 
ATOM      2  N   LIG    1        1.269  -6.717  -2.131  0.00  0.00    -0.227 NA
ATOM      3  C   LIG    1        1.248  -5.909  -3.199  0.00  0.00    +0.077 A 
ATOM      4  C   LIG    1        1.243  -6.411  -4.508  0.00  0.00    +0.028 A 
ATOM      5  C   LIG    1        1.222  -5.546  -5.561  0.00  0.00    +0.002 A 
ATOM      6  C   LIG    1        1.205  -4.169  -5.358  0.00  0.00    +0.001 A 
ATOM      7  C   LIG    1        1.209  -3.647  -4.097  0.00  0.00    +0.013 A 
ATOM      8  C   LIG    1        1.231  -4.507  -2.995  0.00  0.00    +0.040 A 
ATOM      9  C   LIG    1        1.237  -4.021  -1.663  0.00  0.00    +0.131 A 
ATOM     10  N   LIG    1        1.263  -4.902  -0.674  0.00  0.00    -0.212 NA
ENDROOT
BRANCH   1  14
ATOM     11  C   LIG    1        1.343  -8.881   2.398  0.00  0.00    +0.000 A 
ATOM     12  C   LIG    1        1.337  -9.382   1.108  0.00  0.00    +0.001 A 
ATOM     13  C   LIG    1        1.315  -8.520   0.030  0.00  0.00    +0.011 A 
ATOM     14  C   LIG    1        1.298  -7.143   0.243  0.00  0.00    +0.019 A 
ATOM     15  C   LIG    1        1.309  -6.644   1.544  0.00  0.00    +0.011 A 
ATOM     16  C   LIG    1        1.325  -7.515   2.615  0.00  0.00    +0.001 A 
ENDBRANCH   1  14
BRANCH   9  17
ATOM     17  N   LIG    1        1.222  -2.667  -1.404  0.00  0.00    -0.324 N 
ATOM     18  H   LIG    1        1.206  -2.033  -2.138  0.00  0.00    +0.148 HD
BRANCH  17  19
ATOM     19  C   LIG    1        1.228  -2.186  -0.020  0.00  0.00    +0.138 C 
BRANCH  19  20
ATOM     20  C   LIG    1        1.208  -0.679  -0.013  0.00  0.00    -0.030 A 
ATOM     21  C   LIG    1        0.002  -0.004   0.002  0.00  0.00    +0.006 A 
ATOM     22  C   LIG    1       -0.017   1.378   0.010  0.00  0.00    +0.020 A 
ATOM     23  C   LIG    1        1.172   2.086   0.002  0.00  0.00    +0.041 A 
ATOM     24 CL   LIG    1        1.149   3.821   0.011  0.00  0.00    -0.084 Cl
ATOM     25  C   LIG    1        2.379   1.409  -0.013  0.00  0.00    +0.020 A 
ATOM     26  C   LIG    1        2.397   0.027  -0.020  0.00  0.00    +0.006 A 
ENDBRANCH  19  20
ENDBRANCH  17  19
ENDBRANCH   9  17
TORSDOF 4
