REMARK  Name = ZINC02567336
REMARK                            x       y       z     vdW  Elec       q    Type
REMARK                         _______ _______ _______ _____ _____    ______ ____
ROOT
ATOM      1  C   LIG    1       -1.227   3.137   0.029  0.00  0.00    +0.123 A 
ATOM      2  C   LIG    1       -1.217   1.752   0.017  0.00  0.00    +0.046 A 
ATOM      3  C   LIG    1       -0.013   1.076   0.008  0.00  0.00    +0.004 A 
ATOM      4  C   LIG    1        1.172   1.784   0.000  0.00  0.00    +0.004 A 
ATOM      5  C   LIG    1        1.167   3.173   0.006  0.00  0.00    -0.041 A 
ATOM      6  C   LIG    1        2.498   3.878   0.004  0.00  0.00    +0.034 C 
ATOM      7  C   LIG    1        2.333   5.336  -0.419  0.00  0.00    -0.011 C 
ATOM      8  C   LIG    1        1.225   5.965   0.434  0.00  0.00    -0.070 C 
ATOM      9  C   LIG    1       -0.111   5.355   0.016  0.00  0.00    +0.023 C 
ATOM     10  C   LIG    1       -0.030   3.851   0.018  0.00  0.00    -0.004 A 
ENDROOT
BRANCH   8  11
ATOM     11  N   LIG    1        1.178   7.424   0.233  0.00  0.00    +0.380 N 
ATOM     12  H   LIG    1        0.453   7.825   0.838  0.00  0.00    -0.090 HD
ATOM     13  H   LIG    1        0.954   7.635  -0.739  0.00  0.00    -0.090 HD
ATOM     14  H   LIG    1        2.077   7.839   0.471  0.00  0.00    -0.090 HD
ENDBRANCH   8  11
BRANCH   1  16
ATOM     15  C   LIG    1       -3.601   3.012   0.055  0.00  0.00    +0.277 C 
ATOM     16  O   LIG    1       -2.411   3.803   0.044  0.00  0.00    -0.495 OA
ENDBRANCH   1  16
TORSDOF 2
