REMARK  Name = ZINC02526570
REMARK                            x       y       z     vdW  Elec       q    Type
REMARK                         _______ _______ _______ _____ _____    ______ ____
ROOT
ATOM      1  C   LIG    1       -1.407  -4.618  -2.616  0.00  0.00    +0.060 A 
ATOM      2  C   LIG    1       -2.496  -5.033  -3.323  0.00  0.00    +0.093 A 
ATOM      3  N   LIG    1       -2.080  -5.462  -4.524  0.00  0.00    -0.226 NA
ATOM      4  C   LIG    1       -0.763  -5.332  -4.599  0.00  0.00    +0.157 A 
ATOM      5  C   LIG    1        0.160  -5.629  -5.624  0.00  0.00    +0.085 A 
ATOM      6 CL   LIG    1       -0.388  -6.298  -7.130  0.00  0.00    -0.080 Cl
ATOM      7  C   LIG    1        1.482  -5.373  -5.426  0.00  0.00    +0.045 A 
ATOM      8  C   LIG    1        1.910  -4.830  -4.203  0.00  0.00    +0.059 A 
ATOM      9 CL   LIG    1        3.596  -4.510  -3.942  0.00  0.00    -0.082 Cl
ATOM     10  C   LIG    1        1.015  -4.555  -3.230  0.00  0.00    +0.113 A 
ATOM     11  N   LIG    1       -0.316  -4.799  -3.418  0.00  0.00    -0.300 N 
ENDROOT
BRANCH   2  12
ATOM     12  C   LIG    1       -3.901  -5.014  -2.845  0.00  0.00    +0.002 A 
ATOM     13  C   LIG    1       -4.387  -3.911  -2.146  0.00  0.00    +0.011 A 
ATOM     14  C   LIG    1       -5.694  -3.898  -1.704  0.00  0.00    +0.020 A 
ATOM     15  C   LIG    1       -6.522  -4.979  -1.955  0.00  0.00    +0.041 A 
ATOM     16 CL   LIG    1       -8.166  -4.957  -1.396  0.00  0.00    -0.084 Cl
ATOM     17  C   LIG    1       -6.045  -6.076  -2.650  0.00  0.00    +0.020 A 
ATOM     18  C   LIG    1       -4.741  -6.096  -3.101  0.00  0.00    +0.011 A 
ENDBRANCH   2  12
BRANCH   1  19
ATOM     19  C   LIG    1       -1.408  -4.059  -1.217  0.00  0.00    +0.151 C 
BRANCH  19  21
ATOM     20  N   LIG    1       -1.444  -1.834  -0.137  0.00  0.00    -0.301 N 
ATOM     21  C   LIG    1       -1.438  -2.554  -1.277  0.00  0.00    +0.221 C 
ATOM     22  O   LIG    1       -1.458  -1.990  -2.350  0.00  0.00    -0.275 OA
BRANCH  20  23
ATOM     23  C   LIG    1       -1.473  -0.370  -0.196  0.00  0.00    +0.107 C 
BRANCH  23  25
ATOM     24  C   LIG    1       -0.072   1.696  -0.288  0.00  0.00    +0.005 C 
ATOM     25  C   LIG    1       -0.042   0.168  -0.227  0.00  0.00    +0.016 C 
ENDBRANCH  23  25
ENDBRANCH  20  23
BRANCH  20  26
ATOM     26  C   LIG    1       -1.421  -2.515   1.159  0.00  0.00    +0.107 C 
BRANCH  26  27
ATOM     27  C   LIG    1       -2.855  -2.781   1.622  0.00  0.00    +0.016 C 
ATOM     28  C   LIG    1       -2.830  -3.492   2.976  0.00  0.00    +0.005 C 
ENDBRANCH  26  27
ENDBRANCH  20  26
ENDBRANCH  19  21
ENDBRANCH   1  19
TORSDOF 7
