REMARK  Name = ZINC02566243
REMARK                            x       y       z     vdW  Elec       q    Type
REMARK                         _______ _______ _______ _____ _____    ______ ____
ROOT
ATOM      1  C   LIG    1       -2.510   5.361   0.054  0.00  0.00    +0.171 C 
ATOM      2  C   LIG    1       -1.344   6.040   0.046  0.00  0.00    +0.101 C 
ATOM      3  C   LIG    1       -0.060   5.333   0.030  0.00  0.00    +0.190 C 
ATOM      4  C   LIG    1       -0.032   3.853   0.022  0.00  0.00    +0.033 A 
ATOM      5  C   LIG    1        1.174   3.165   0.007  0.00  0.00    +0.012 A 
ATOM      6  C   LIG    1        1.177   1.778   0.000  0.00  0.00    +0.001 A 
ATOM      7  C   LIG    1       -0.013   1.076   0.008  0.00  0.00    +0.001 A 
ATOM      8  C   LIG    1       -1.225   1.748   0.017  0.00  0.00    +0.012 A 
ATOM      9  C   LIG    1       -1.243   3.138   0.030  0.00  0.00    +0.036 A 
ATOM     10  O   LIG    1        0.981   5.962   0.024  0.00  0.00    -0.287 OA
ATOM     11  C   LIG    1       -2.522   3.879   0.046  0.00  0.00    +0.228 C 
ATOM     12  O   LIG    1       -3.576   3.277   0.053  0.00  0.00    -0.283 OA
ENDROOT
BRANCH   1  14
ATOM     13  C   LIG    1       -3.602   7.467   0.076  0.00  0.00    +0.277 C 
ATOM     14  O   LIG    1       -3.680   6.040   0.069  0.00  0.00    -0.491 OA
ENDBRANCH   1  14
TORSDOF 1
