REMARK  Name = ZINC02516060
REMARK                            x       y       z     vdW  Elec       q    Type
REMARK                         _______ _______ _______ _____ _____    ______ ____
ROOT
ATOM      1  C   LIG    1        0.731  -0.503   1.223  0.00  0.00    -0.042 A 
ATOM      2  C   LIG    1        2.077  -0.808   1.148  0.00  0.00    +0.003 A 
ATOM      3  C   LIG    1        2.747  -1.266   2.267  0.00  0.00    +0.002 A 
ATOM      4  C   LIG    1        2.070  -1.420   3.463  0.00  0.00    +0.021 A 
ATOM      5  C   LIG    1        0.723  -1.116   3.540  0.00  0.00    +0.059 A 
ATOM      6 CL   LIG    1       -0.126  -1.309   5.041  0.00  0.00    -0.082 Cl
ATOM      7  C   LIG    1        0.054  -0.651   2.420  0.00  0.00    +0.061 A 
ATOM      8 CL   LIG    1       -1.635  -0.261   2.517  0.00  0.00    -0.082 Cl
ENDROOT
BRANCH   1  10
ATOM      9  C   LIG    1       -0.019   1.526   0.010  0.00  0.00    -0.009 C 
ATOM     10  C   LIG    1        0.002  -0.004   0.002  0.00  0.00    -0.046 C 
BRANCH  10  11
ATOM     11  N   LIG    1        0.690  -0.478  -1.207  0.00  0.00    +0.382 N 
ATOM     12  H   LIG    1        0.202  -0.144  -2.024  0.00  0.00    -0.089 HD
ATOM     13  H   LIG    1        0.703  -1.487  -1.212  0.00  0.00    -0.089 HD
ATOM     14  H   LIG    1        1.636  -0.129  -1.214  0.00  0.00    -0.089 HD
ENDBRANCH  10  11
ENDBRANCH   1  10
TORSDOF 2
