REMARK  Name = ZINC03080662
REMARK                            x       y       z     vdW  Elec       q    Type
REMARK                         _______ _______ _______ _____ _____    ______ ____
ROOT
ATOM      1  C   LIG    1        2.397   5.572   0.008  0.00  0.00    +0.000 C 
ATOM      2  C   LIG    1        3.620   6.285   0.000  0.00  0.00    +0.000 C 
ENDROOT
BRANCH   1   4
ATOM      3  C   LIG    1        1.192   3.488   0.009  0.00  0.00    +0.008 C 
ATOM      4  C   LIG    1        2.403   4.194   0.001  0.00  0.00    +0.001 C 
BRANCH   3   6
ATOM      5  C   LIG    1       -0.016   1.362   0.009  0.00  0.00    +0.010 A 
ATOM      6  C   LIG    1        1.198   2.077   0.002  0.00  0.00    -0.025 A 
ATOM      7  C   LIG    1        2.418   1.372  -0.014  0.00  0.00    +0.010 A 
ATOM      8  C   LIG    1        2.412   0.006  -0.021  0.00  0.00    +0.033 A 
ATOM      9  C   LIG    1        1.210  -0.687  -0.013  0.00  0.00    +0.122 A 
ATOM     10  C   LIG    1        0.002  -0.004   0.002  0.00  0.00    +0.033 A 
BRANCH   9  11
ATOM     11  N   LIG    1        1.216  -2.167  -0.021  0.00  0.00    +0.006 N 
ATOM     12  O   LIG    1        2.359  -2.821  -0.036  0.00  0.00    -0.130 OA
BRANCH  11  13
ATOM     13  O   LIG    1        0.078  -2.830  -0.014  0.00  0.00    -0.396 OA
ATOM     14  H   LIG    1       -0.735  -2.365  -0.004  0.00  0.00    +0.329 HD
ENDBRANCH  11  13
ENDBRANCH   9  11
ENDBRANCH   3   6
ENDBRANCH   1   4
BRANCH   2  15
ATOM     15  C   LIG    1        3.615   7.663   0.007  0.00  0.00    +0.001 C 
ATOM     16  C   LIG    1        4.825   8.369  -0.000  0.00  0.00    +0.008 C 
BRANCH  16  17
ATOM     17  C   LIG    1        4.819   9.780   0.007  0.00  0.00    -0.025 A 
ATOM     18  C   LIG    1        3.599  10.485   0.028  0.00  0.00    +0.010 A 
ATOM     19  C   LIG    1        3.606  11.851   0.034  0.00  0.00    +0.033 A 
ATOM     20  C   LIG    1        4.808  12.544   0.021  0.00  0.00    +0.122 A 
ATOM     21  C   LIG    1        6.015  11.861  -0.000  0.00  0.00    +0.033 A 
ATOM     22  C   LIG    1        6.034  10.495  -0.001  0.00  0.00    +0.010 A 
BRANCH  20  23
ATOM     23  N   LIG    1        4.801  14.024   0.028  0.00  0.00    +0.006 N 
ATOM     24  O   LIG    1        3.658  14.678   0.048  0.00  0.00    -0.130 OA
BRANCH  23  25
ATOM     25  O   LIG    1        5.939  14.688   0.015  0.00  0.00    -0.396 OA
ATOM     26  H   LIG    1        6.753  14.223   0.001  0.00  0.00    +0.329 HD
ENDBRANCH  23  25
ENDBRANCH  20  23
ENDBRANCH  16  17
ENDBRANCH   2  15
TORSDOF 8
