REMARK  Name = ZINC02538824
REMARK                            x       y       z     vdW  Elec       q    Type
REMARK                         _______ _______ _______ _____ _____    ______ ____
ROOT
ATOM      1  C   LIG    1       -1.226   1.748   0.017  0.00  0.00    +0.002 A 
ATOM      2  C   LIG    1       -0.013   1.076   0.008  0.00  0.00    +0.002 A 
ATOM      3  C   LIG    1        1.175   1.777   0.000  0.00  0.00    +0.028 A 
ATOM      4  C   LIG    1        1.154   3.165   0.008  0.00  0.00    +0.073 A 
ATOM      5  C   LIG    1       -0.075   3.845   0.023  0.00  0.00    +0.089 A 
ATOM      6  N   LIG    1        0.207   5.174   0.028  0.00  0.00    -0.235 NA
ATOM      7  C   LIG    1        1.497   5.347   0.017  0.00  0.00    +0.205 A 
ATOM      8  N   LIG    1        2.131   4.142   0.004  0.00  0.00    -0.299 N 
ATOM      9  C   LIG    1       -1.266   3.114   0.030  0.00  0.00    +0.030 A 
ENDROOT
BRANCH   8  10
ATOM     10  C   LIG    1        3.518   3.932  -0.010  0.00  0.00    +0.048 A 
ATOM     11  C   LIG    1        4.098   3.063   0.904  0.00  0.00    +0.028 A 
ATOM     12  C   LIG    1        5.462   2.852   0.887  0.00  0.00    +0.025 A 
ATOM     13  C   LIG    1        6.256   3.517  -0.038  0.00  0.00    +0.025 A 
ATOM     14  C   LIG    1        5.676   4.390  -0.949  0.00  0.00    +0.025 A 
ATOM     15  C   LIG    1        4.311   4.596  -0.936  0.00  0.00    +0.028 A 
BRANCH  13  16
ATOM     16  N   LIG    1        7.639   3.309  -0.051  0.00  0.00    -0.358 N 
ATOM     17  H   LIG    1        8.044   2.699   0.585  0.00  0.00    +0.142 HD
ATOM     18  H   LIG    1        8.193   3.774  -0.697  0.00  0.00    +0.142 HD
ENDBRANCH  13  16
ENDBRANCH   8  10
TORSDOF 2
