REMARK  Name = ZINC02397903
REMARK                            x       y       z     vdW  Elec       q    Type
REMARK                         _______ _______ _______ _____ _____    ______ ____
ROOT
ATOM      1  C   LIG    1        0.077  -0.031  -0.211  0.00  0.00    +0.203 C 
ATOM      2  C   LIG    1        1.515  -0.464  -0.127  0.00  0.00    +0.040 C 
ATOM      3  C   LIG    1        2.263   0.671  -0.064  0.00  0.00    +0.022 C 
ATOM      4  N   LIG    1        1.480   1.781  -0.092  0.00  0.00    -0.269 N 
ATOM      5  C   LIG    1        3.775   0.619   0.019  0.00  0.00    +0.058 C 
ATOM      6  C   LIG    1        4.243  -0.684  -0.639  0.00  0.00    -0.023 C 
ATOM      7  C   LIG    1        5.760  -0.812  -0.484  0.00  0.00    +0.011 C 
ATOM      8  C   LIG    1        3.891  -0.655  -2.128  0.00  0.00    +0.011 C 
ATOM      9  C   LIG    1        3.563  -1.885   0.018  0.00  0.00    +0.086 C 
ATOM     10  C   LIG    1        2.061  -1.755  -0.110  0.00  0.00    +0.163 C 
ATOM     11  O   LIG    1        1.352  -2.738  -0.195  0.00  0.00    -0.292 OA
ATOM     12  C   LIG    1        0.168   1.484  -0.180  0.00  0.00    +0.244 C 
ATOM     13  O   LIG    1       -0.754   2.270  -0.229  0.00  0.00    -0.274 OA
ENDROOT
BRANCH   1  16
ATOM     14  C   LIG    1        0.958   0.805  -3.079  0.00  0.00    +0.065 C 
ATOM     15  C   LIG    1       -0.168  -0.138  -2.742  0.00  0.00    +0.040 A 
ATOM     16  C   LIG    1       -0.548  -0.500  -1.500  0.00  0.00    +0.067 A 
ATOM     17  C   LIG    1       -1.640  -1.391  -1.617  0.00  0.00    +0.277 A 
ATOM     18  N   LIG    1       -1.894  -1.555  -2.931  0.00  0.00    -0.219 N 
ATOM     19  O   LIG    1       -2.242  -1.916  -0.697  0.00  0.00    -0.265 OA
ATOM     20  N   LIG    1       -0.973  -0.775  -3.643  0.00  0.00    -0.294 N 
ATOM     21  H   LIG    1       -0.919  -0.698  -4.608  0.00  0.00    +0.187 HD
BRANCH  18  22
ATOM     22  C   LIG    1       -2.897  -2.357  -3.484  0.00  0.00    +0.067 A 
ATOM     23  C   LIG    1       -3.742  -3.085  -2.656  0.00  0.00    +0.028 A 
ATOM     24  C   LIG    1       -4.735  -3.872  -3.205  0.00  0.00    +0.002 A 
ATOM     25  C   LIG    1       -4.881  -3.946  -4.578  0.00  0.00    +0.000 A 
ATOM     26  C   LIG    1       -4.039  -3.227  -5.405  0.00  0.00    +0.002 A 
ATOM     27  C   LIG    1       -3.047  -2.433  -4.863  0.00  0.00    +0.028 A 
ENDBRANCH  18  22
ENDBRANCH   1  16
BRANCH   1  28
ATOM     28  C   LIG    1       -0.715  -0.550   0.991  0.00  0.00    +0.412 C 
ATOM     29  F   LIG    1       -0.095  -0.131   2.173  0.00  0.00    -0.169 F 
ATOM     30  F   LIG    1       -0.754  -1.948   0.955  0.00  0.00    -0.169 F 
ATOM     31  F   LIG    1       -2.018  -0.045   0.944  0.00  0.00    -0.169 F 
ENDBRANCH   1  28
BRANCH   4  32
ATOM     32  C   LIG    1        2.003   3.148  -0.034  0.00  0.00    +0.148 C 
BRANCH  32  33
ATOM     33  C   LIG    1        2.095   3.589   1.404  0.00  0.00    -0.030 A 
ATOM     34  C   LIG    1        1.023   4.227   2.001  0.00  0.00    +0.005 A 
ATOM     35  C   LIG    1        1.105   4.628   3.321  0.00  0.00    +0.000 A 
ATOM     36  C   LIG    1        2.263   4.400   4.042  0.00  0.00    +0.000 A 
ATOM     37  C   LIG    1        3.336   3.767   3.444  0.00  0.00    +0.000 A 
ATOM     38  C   LIG    1        3.252   3.362   2.125  0.00  0.00    +0.005 A 
ENDBRANCH  32  33
ENDBRANCH   4  32
TORSDOF 5
