REMARK  Name = ZINC02508153
REMARK                            x       y       z     vdW  Elec       q    Type
REMARK                         _______ _______ _______ _____ _____    ______ ____
ROOT
ATOM      1  C   LIG    1        3.710  -0.724  -0.037  0.00  0.00    +0.044 C 
ATOM      2  C   LIG    1        2.405   0.029  -0.021  0.00  0.00    -0.050 A 
ATOM      3  C   LIG    1        1.206  -0.672  -0.013  0.00  0.00    +0.005 A 
ATOM      4  C   LIG    1        0.002  -0.004   0.002  0.00  0.00    +0.026 A 
ATOM      5  C   LIG    1       -0.017   1.388   0.010  0.00  0.00    +0.047 A 
ATOM      6  C   LIG    1        1.201   2.097   0.002  0.00  0.00    +0.001 A 
ATOM      7  C   LIG    1        0.877   3.475   0.012  0.00  0.00    +0.042 A 
ATOM      8  CA  LIG    1       -0.479   3.581   0.026  0.00  0.00    +0.125 A 
ATOM      9  N   LIG    1       -1.032   2.315   0.019  0.00  0.00    -0.349 N 
ATOM     10  H   LIG    1       -1.981   2.113   0.022  0.00  0.00    +0.166 HD
ATOM     11  C   LIG    1        2.412   1.393  -0.013  0.00  0.00    +0.013 A 
ENDROOT
BRANCH   8  12
ATOM     12  C   LIG    1       -1.234   4.841   0.040  0.00  0.00    +0.353 C 
ATOM     13  O   LIG    1       -0.644   5.904   0.040  0.00  0.00    -0.243 OA
BRANCH  12  14
ATOM     14  OXT LIG    1       -2.582   4.818   0.053  0.00  0.00    -0.476 OA
ATOM     15  HXT LIG    1       -3.037   3.999   0.053  0.00  0.00    +0.295 HD
ENDBRANCH  12  14
ENDBRANCH   8  12
TORSDOF 2
