REMARK  Name = ZINC02882071
REMARK                            x       y       z     vdW  Elec       q    Type
REMARK                         _______ _______ _______ _____ _____    ______ ____
ROOT
ATOM      1  C   LIG    1        0.063  -2.829  -0.054  0.00  0.00    +0.206 A 
ATOM      2  N   LIG    1        0.059  -4.171  -0.011  0.00  0.00    -0.187 NA
ATOM      3  C   LIG    1       -0.552  -4.583   1.075  0.00  0.00    +0.259 A 
ATOM      4  O   LIG    1       -0.960  -3.503   1.764  0.00  0.00    -0.332 OA
ATOM      5  N   LIG    1       -0.544  -2.371   1.014  0.00  0.00    -0.056 NA
ENDROOT
BRANCH   1  11
ATOM      6  C   LIG    1        0.605  -0.607  -1.055  0.00  0.00    +0.131 A 
ATOM      7  C   LIG    1        1.173   0.159  -2.062  0.00  0.00    +0.046 A 
ATOM      8  C   LIG    1        1.785  -0.455  -3.136  0.00  0.00    +0.004 A 
ATOM      9  C   LIG    1        1.838  -1.836  -3.215  0.00  0.00    +0.001 A 
ATOM     10  C   LIG    1        1.278  -2.611  -2.220  0.00  0.00    +0.015 A 
ATOM     11  C   LIG    1        0.662  -2.002  -1.129  0.00  0.00    +0.064 A 
BRANCH   6  13
ATOM     12  C   LIG    1       -0.017   1.425   0.010  0.00  0.00    +0.277 C 
ATOM     13  O   LIG    1        0.002  -0.004   0.002  0.00  0.00    -0.494 OA
ENDBRANCH   6  13
ENDBRANCH   1  11
BRANCH   3  14
ATOM     14  C   LIG    1       -0.757  -5.992   1.472  0.00  0.00    +0.039 A 
ATOM     15  C   LIG    1       -0.277  -7.025   0.666  0.00  0.00    +0.013 A 
ATOM     16  C   LIG    1       -0.472  -8.338   1.042  0.00  0.00    +0.001 A 
ATOM     17  C   LIG    1       -1.141  -8.631   2.217  0.00  0.00    +0.000 A 
ATOM     18  C   LIG    1       -1.620  -7.612   3.021  0.00  0.00    +0.001 A 
ATOM     19  C   LIG    1       -1.427  -6.295   2.659  0.00  0.00    +0.013 A 
ENDBRANCH   3  14
TORSDOF 3
