REMARK  Name = ZINC02564446
REMARK                            x       y       z     vdW  Elec       q    Type
REMARK                         _______ _______ _______ _____ _____    ______ ____
ROOT
ATOM      1  C   LIG    1       -0.019   1.526   0.010  0.00  0.00    +0.024 C 
ATOM      2  C   LIG    1        0.002  -0.004   0.002  0.00  0.00    +0.056 C 
ENDROOT
BRANCH   2   3
ATOM      3  N   LIG    1        0.713  -0.491   1.192  0.00  0.00    -0.303 NA
ATOM      4  H   LIG    1        0.492   0.072   2.000  0.00  0.00    +0.123 HD
BRANCH   3   5
ATOM      5  C   LIG    1        2.162  -0.532   0.959  0.00  0.00    +0.170 C 
BRANCH   5   6
ATOM      6  C   LIG    1        2.840  -1.024   2.170  0.00  0.00    -0.090 C 
ATOM      7  C   LIG    1        3.380  -1.416   3.136  0.00  0.00    +0.005 C 
ENDBRANCH   5   6
ENDBRANCH   3   5
ENDBRANCH   2   3
BRANCH   2   8
ATOM      8  C   LIG    1       -1.433  -0.534   0.013  0.00  0.00    +0.053 C 
BRANCH   8   9
ATOM      9  C   LIG    1       -1.416  -2.035  -0.119  0.00  0.00    -0.046 A 
ATOM     10  C   LIG    1       -1.450  -2.619  -1.372  0.00  0.00    +0.004 A 
ATOM     11  C   LIG    1       -1.434  -3.996  -1.493  0.00  0.00    +0.000 A 
ATOM     12  C   LIG    1       -1.384  -4.789  -0.361  0.00  0.00    +0.000 A 
ATOM     13  C   LIG    1       -1.349  -4.205   0.891  0.00  0.00    +0.000 A 
ATOM     14  C   LIG    1       -1.361  -2.828   1.012  0.00  0.00    +0.004 A 
ENDBRANCH   8   9
ENDBRANCH   2   8
TORSDOF 5
