REMARK  Name = ZINC02935797
REMARK                            x       y       z     vdW  Elec       q    Type
REMARK                         _______ _______ _______ _____ _____    ______ ____
ROOT
ATOM      1  C   LIG    1       -2.540   3.863   0.046  0.00  0.00    +0.193 C 
ATOM      2  O   LIG    1       -2.543   5.071  -0.086  0.00  0.00    -0.287 OA
ENDROOT
BRANCH   1   8
ATOM      3  N   LIG    1        1.628  -0.037   2.032  0.00  0.00    -0.230 N 
ATOM      4  C   LIG    1        2.188   0.903   1.250  0.00  0.00    +0.254 C 
ATOM      5  C   LIG    1        1.126   1.829   0.793  0.00  0.00    +0.049 A 
ATOM      6  C   LIG    1        1.111   2.957  -0.013  0.00  0.00    +0.014 A 
ATOM      7  C   LIG    1       -0.080   3.620  -0.250  0.00  0.00    +0.012 A 
ATOM      8  C   LIG    1       -1.270   3.151   0.309  0.00  0.00    +0.023 A 
ATOM      9  C   LIG    1       -1.263   2.014   1.123  0.00  0.00    +0.025 A 
ATOM     10  C   LIG    1       -0.071   1.354   1.366  0.00  0.00    +0.050 A 
ATOM     11  O   LIG    1        3.366   0.980   0.966  0.00  0.00    -0.270 OA
ATOM     12  C   LIG    1        0.302   0.157   2.150  0.00  0.00    +0.254 C 
ATOM     13  O   LIG    1       -0.461  -0.534   2.794  0.00  0.00    -0.270 OA
BRANCH   3  14
ATOM     14  C   LIG    1        2.365  -1.130   2.671  0.00  0.00    +0.152 C 
BRANCH  14  20
ATOM     15  C   LIG    1        1.394  -3.272   1.818  0.00  0.00    +0.006 A 
ATOM     16  C   LIG    1        1.415  -4.363   0.974  0.00  0.00    +0.015 A 
ATOM     17  C   LIG    1        2.455  -4.511   0.055  0.00  0.00    +0.059 A 
ATOM     18  C   LIG    1        3.467  -3.550  -0.006  0.00  0.00    +0.015 A 
ATOM     19  C   LIG    1        3.431  -2.462   0.841  0.00  0.00    +0.006 A 
ATOM     20  C   LIG    1        2.397  -2.321   1.749  0.00  0.00    -0.030 A 
BRANCH  17  21
ATOM     21  C   LIG    1        2.487  -5.679  -0.849  0.00  0.00    +0.337 C 
ATOM     22  O   LIG    1        3.393  -5.805  -1.647  0.00  0.00    -0.245 OA
BRANCH  21  23
ATOM     23  O   LIG    1        1.509  -6.604  -0.788  0.00  0.00    -0.477 OA
ATOM     24  H   LIG    1        0.810  -6.507  -0.172  0.00  0.00    +0.295 HD
ENDBRANCH  21  23
ENDBRANCH  17  21
ENDBRANCH  14  20
ENDBRANCH   3  14
ENDBRANCH   1   8
BRANCH   1  25
ATOM     25  C   LIG    1       -3.805   3.104  -0.058  0.00  0.00    +0.023 A 
ATOM     26  C   LIG    1       -3.780   1.708  -0.071  0.00  0.00    +0.012 A 
ATOM     27  C   LIG    1       -4.960   0.990  -0.163  0.00  0.00    +0.014 A 
ATOM     28  C   LIG    1       -6.171   1.659  -0.253  0.00  0.00    +0.049 A 
ATOM     29  C   LIG    1       -6.202   3.069  -0.246  0.00  0.00    +0.050 A 
ATOM     30  C   LIG    1       -7.628   3.442  -0.355  0.00  0.00    +0.254 C 
ATOM     31  N   LIG    1       -8.363   2.318  -0.421  0.00  0.00    -0.230 N 
ATOM     32  O   LIG    1       -8.064   4.576  -0.382  0.00  0.00    -0.270 OA
ATOM     33  C   LIG    1       -7.582   1.224  -0.367  0.00  0.00    +0.254 C 
ATOM     34  O   LIG    1       -7.969   0.074  -0.406  0.00  0.00    -0.270 OA
ATOM     35  C   LIG    1       -5.023   3.786  -0.149  0.00  0.00    +0.025 A 
BRANCH  31  36
ATOM     36  C   LIG    1       -9.823   2.288  -0.536  0.00  0.00    +0.152 C 
BRANCH  36  37
ATOM     37  C   LIG    1      -10.436   2.267   0.841  0.00  0.00    -0.030 A 
ATOM     38  C   LIG    1      -10.695   1.058   1.461  0.00  0.00    +0.006 A 
ATOM     39  C   LIG    1      -11.251   1.032   2.723  0.00  0.00    +0.015 A 
ATOM     40  C   LIG    1      -11.562   2.229   3.371  0.00  0.00    +0.059 A 
ATOM     41  C   LIG    1      -11.302   3.446   2.737  0.00  0.00    +0.015 A 
ATOM     42  C   LIG    1      -10.741   3.458   1.477  0.00  0.00    +0.006 A 
BRANCH  40  43
ATOM     43  C   LIG    1      -12.162   2.209   4.720  0.00  0.00    +0.337 C 
ATOM     44  O   LIG    1      -12.430   3.252   5.281  0.00  0.00    -0.245 OA
BRANCH  43  45
ATOM     45  O   LIG    1      -12.411   1.033   5.329  0.00  0.00    -0.477 OA
ATOM     46  H   LIG    1      -12.204   0.229   4.896  0.00  0.00    +0.295 HD
ENDBRANCH  43  45
ENDBRANCH  40  43
ENDBRANCH  36  37
ENDBRANCH  31  36
ENDBRANCH   1  25
TORSDOF 10
