REMARK  Name = ZINC02583785
REMARK                            x       y       z     vdW  Elec       q    Type
REMARK                         _______ _______ _______ _____ _____    ______ ____
ROOT
ATOM      1  S   LIG    1        2.897  -1.689   3.672  0.00  0.00    +0.059 S 
ATOM      2  O   LIG    1        4.149  -1.582   4.334  0.00  0.00    -0.153 OA
ATOM      3  O   LIG    1        1.942  -2.686   4.004  0.00  0.00    -0.153 OA
ENDROOT
BRANCH   1   4
ATOM      4  C   LIG    1        2.091  -0.134   3.866  0.00  0.00    +0.105 A 
ATOM      5  C   LIG    1        2.839   1.006   4.095  0.00  0.00    +0.029 A 
ATOM      6  C   LIG    1        2.212   2.227   4.248  0.00  0.00    +0.010 A 
ATOM      7  C   LIG    1        0.824   2.308   4.171  0.00  0.00    -0.018 A 
ATOM      8  C   LIG    1        0.075   1.156   3.940  0.00  0.00    +0.010 A 
ATOM      9  C   LIG    1        0.712  -0.058   3.783  0.00  0.00    +0.029 A 
BRANCH   7  10
ATOM     10  C   LIG    1        0.144   3.618   4.335  0.00  0.00    -0.018 A 
ATOM     11  C   LIG    1        0.894   4.770   4.561  0.00  0.00    +0.008 A 
ATOM     12  C   LIG    1        0.257   5.986   4.713  0.00  0.00    +0.001 A 
ATOM     13  C   LIG    1       -1.123   6.060   4.641  0.00  0.00    +0.000 A 
ATOM     14  C   LIG    1       -1.871   4.918   4.418  0.00  0.00    +0.001 A 
ATOM     15  C   LIG    1       -1.244   3.699   4.258  0.00  0.00    +0.008 A 
ENDBRANCH   7  10
ENDBRANCH   1   4
BRANCH   1  16
ATOM     16  N   LIG    1        3.229  -1.870   2.059  0.00  0.00    -0.176 NA
ATOM     17  H   LIG    1        2.799  -2.576   1.552  0.00  0.00    +0.149 HD
BRANCH  16  18
ATOM     18  C   LIG    1        4.171  -0.963   1.399  0.00  0.00    +0.189 C 
BRANCH  18  19
ATOM     19  C   LIG    1        5.543  -1.588   1.383  0.00  0.00    +0.324 C 
ATOM     20  O   LIG    1        6.535  -0.881   1.408  0.00  0.00    -0.249 OA
BRANCH  19  21
ATOM     21  O   LIG    1        5.659  -2.801   1.346  0.00  0.00    -0.479 OA
ATOM     22  H   LIG    1        4.896  -3.345   1.327  0.00  0.00    +0.295 HD
ENDBRANCH  19  21
ENDBRANCH  18  19
BRANCH  18  23
ATOM     23  C   LIG    1        3.711  -0.707  -0.038  0.00  0.00    +0.067 C 
BRANCH  23  27
ATOM     24  C   LIG    1       -0.017   1.378   0.010  0.00  0.00    +0.000 A 
ATOM     25  C   LIG    1        1.171   2.086   0.002  0.00  0.00    +0.000 A 
ATOM     26  C   LIG    1        2.377   1.411  -0.013  0.00  0.00    +0.004 A 
ATOM     27  C   LIG    1        2.396   0.029  -0.020  0.00  0.00    -0.045 A 
ATOM     28  C   LIG    1        1.208  -0.679  -0.012  0.00  0.00    +0.004 A 
ATOM     29  C   LIG    1        0.002  -0.004   0.002  0.00  0.00    +0.000 A 
ENDBRANCH  23  27
ENDBRANCH  18  23
ENDBRANCH  16  18
ENDBRANCH   1  16
TORSDOF 8
