REMARK  Name = ZINC03261368
REMARK                            x       y       z     vdW  Elec       q    Type
REMARK                         _______ _______ _______ _____ _____    ______ ____
ROOT
ATOM      1  C   LIG    1        1.252  -2.155  -0.023  0.00  0.00    +0.143 C 
ATOM      2  N   LIG    1        0.132  -2.829  -0.015  0.00  0.00    -0.157 NA
ENDROOT
BRANCH   1   8
ATOM      3  C   LIG    1       -0.017   1.375   0.010  0.00  0.00    +0.003 A 
ATOM      4  C   LIG    1        1.170   2.087   0.002  0.00  0.00    +0.038 A 
ATOM      5  C   LIG    1        2.386   1.422  -0.014  0.00  0.00    +0.124 A 
ATOM      6  F   LIG    1        3.539   2.125  -0.021  0.00  0.00    -0.205 F 
ATOM      7  C   LIG    1        2.421   0.041  -0.022  0.00  0.00    +0.047 A 
ATOM      8  C   LIG    1        1.225  -0.684  -0.014  0.00  0.00    -0.002 A 
ATOM      9  C   LIG    1        0.002  -0.004   0.002  0.00  0.00    +0.009 A 
ENDBRANCH   1   8
BRANCH   2  10
ATOM     10  N   LIG    1        0.156  -4.119  -0.024  0.00  0.00    -0.157 NA
ATOM     11  C   LIG    1       -0.963  -4.794  -0.016  0.00  0.00    +0.143 C 
BRANCH  11  12
ATOM     12  C   LIG    1       -0.936  -6.264  -0.025  0.00  0.00    -0.002 A 
ATOM     13  C   LIG    1        0.286  -6.944  -0.036  0.00  0.00    +0.047 A 
ATOM     14  C   LIG    1        0.303  -8.325  -0.044  0.00  0.00    +0.124 A 
ATOM     15  F   LIG    1        1.482  -8.985  -0.055  0.00  0.00    -0.205 F 
ATOM     16  C   LIG    1       -0.887  -9.036  -0.042  0.00  0.00    +0.038 A 
ATOM     17  C   LIG    1       -2.099  -8.368  -0.032  0.00  0.00    +0.003 A 
ATOM     18  C   LIG    1       -2.132  -6.990  -0.017  0.00  0.00    +0.009 A 
ENDBRANCH  11  12
ENDBRANCH   2  10
TORSDOF 3
