REMARK  Name = ZINC02559033
REMARK                            x       y       z     vdW  Elec       q    Type
REMARK                         _______ _______ _______ _____ _____    ______ ____
ROOT
ATOM      1  C   LIG    1       -0.017   1.380   0.010  0.00  0.00    +0.003 A 
ATOM      2  C   LIG    1        1.166   2.089   0.002  0.00  0.00    +0.015 A 
ATOM      3  C   LIG    1        2.385   1.407  -0.013  0.00  0.00    +0.059 A 
ATOM      4  C   LIG    1        2.397   0.009  -0.021  0.00  0.00    +0.015 A 
ATOM      5  C   LIG    1        1.206  -0.686  -0.013  0.00  0.00    +0.003 A 
ATOM      6  C   LIG    1        0.002  -0.004   0.002  0.00  0.00    -0.051 A 
ENDROOT
BRANCH   3   7
ATOM      7  C   LIG    1        3.655   2.158  -0.022  0.00  0.00    +0.337 C 
ATOM      8  O   LIG    1        3.642   3.381  -0.015  0.00  0.00    -0.245 OA
BRANCH   7   9
ATOM      9  O   LIG    1        4.721   1.558  -0.035  0.00  0.00    -0.477 OA
ATOM     10  H   LIG    1        4.731   0.621  -0.040  0.00  0.00    +0.295 HD
ENDBRANCH   7   9
ENDBRANCH   3   7
BRANCH   6  11
ATOM     11  CA  LIG    1       -1.295  -0.772   0.011  0.00  0.00    +0.066 C 
BRANCH  11  12
ATOM     12  N   LIG    1       -1.167  -1.939   0.893  0.00  0.00    +0.390 N 
ATOM     13  H1  LIG    1       -0.953  -1.630   1.830  0.00  0.00    -0.088 HD
ATOM     14  H2  LIG    1       -0.426  -2.535   0.558  0.00  0.00    -0.088 HD
ATOM     15  H3  LIG    1       -2.035  -2.453   0.899  0.00  0.00    -0.088 HD
ENDBRANCH  11  12
BRANCH  11  16
ATOM     16  C   LIG    1       -1.615  -1.232  -1.388  0.00  0.00    +0.294 C 
ATOM     17  O   LIG    1       -1.548  -2.417  -1.670  0.00  0.00    -0.253 OA
BRANCH  16  18
ATOM     18  OXT LIG    1       -1.942  -0.421  -2.237  0.00  0.00    -0.482 OA
ATOM     19  HXT LIG    1       -1.993   0.489  -2.020  0.00  0.00    +0.295 HD
ENDBRANCH  16  18
ENDBRANCH  11  16
ENDBRANCH   6  11
TORSDOF 6
