REMARK  Name = ZINC03610392
REMARK                            x       y       z     vdW  Elec       q    Type
REMARK                         _______ _______ _______ _____ _____    ______ ____
ROOT
ATOM      1  C   LIG    1       -1.215   1.752   0.017  0.00  0.00    +0.001 A 
ATOM      2  C   LIG    1       -1.237   3.136   0.032  0.00  0.00    +0.001 A 
ATOM      3  C   LIG    1       -0.052   3.852   0.024  0.00  0.00    +0.011 A 
ATOM      4  C   LIG    1        1.154   3.184   0.008  0.00  0.00    +0.045 A 
ATOM      5  C   LIG    1        1.184   1.792   0.000  0.00  0.00    +0.071 A 
ATOM      6  C   LIG    1        2.604   1.342  -0.016  0.00  0.00    +0.276 C 
ATOM      7  N   LIG    1        3.264   0.210  -0.028  0.00  0.00    -0.271 N 
ATOM      8  H   LIG    1        2.834  -0.722  -0.029  0.00  0.00    +0.304 HD
ATOM      9  C   LIG    1        4.712   0.470  -0.041  0.00  0.00    +0.277 C 
ATOM     10  C   LIG    1        4.824   2.006  -0.033  0.00  0.00    +0.274 C 
ATOM     11  N   LIG    1        3.418   2.446  -0.018  0.00  0.00    -0.183 N 
ATOM     12  C   LIG    1        2.586   3.654  -0.003  0.00  0.00    +0.256 C 
ATOM     13  C   LIG    1       -0.013   1.076   0.008  0.00  0.00    +0.016 A 
ENDROOT
BRANCH  12  14
ATOM     14  C   LIG    1        2.850   4.480  -1.236  0.00  0.00    +0.031 A 
ATOM     15  C   LIG    1        3.238   3.862  -2.410  0.00  0.00    +0.013 A 
ATOM     16  C   LIG    1        3.476   4.618  -3.543  0.00  0.00    +0.039 A 
ATOM     17  C   LIG    1        3.337   5.995  -3.498  0.00  0.00    +0.123 A 
ATOM     18  F   LIG    1        3.575   6.735  -4.603  0.00  0.00    -0.205 F 
ATOM     19  C   LIG    1        2.955   6.612  -2.319  0.00  0.00    +0.039 A 
ATOM     20  C   LIG    1        2.712   5.854  -1.189  0.00  0.00    +0.013 A 
ENDBRANCH  12  14
BRANCH  12  21
ATOM     21  O   LIG    1        2.858   4.424   1.170  0.00  0.00    -0.346 OA
ATOM     22  H   LIG    1        2.338   5.236   1.237  0.00  0.00    +0.215 HD
ENDBRANCH  12  21
TORSDOF 2
