REMARK  Name = ZINC02712324
REMARK                            x       y       z     vdW  Elec       q    Type
REMARK                         _______ _______ _______ _____ _____    ______ ____
ROOT
ATOM      1  N   LIG    1       -4.885  -8.139   0.242  0.00  0.00    -0.306 N 
ATOM      2  C   LIG    1       -5.396  -8.405   1.480  0.00  0.00    +0.090 A 
ATOM      3  C   LIG    1       -6.690  -8.707   1.675  0.00  0.00    +0.030 A 
ATOM      4  C   LIG    1       -7.598  -8.755   0.527  0.00  0.00    +0.030 A 
ATOM      5  C   LIG    1       -7.073  -8.480  -0.756  0.00  0.00    +0.050 A 
ATOM      6  C   LIG    1       -7.912  -8.517  -1.869  0.00  0.00    +0.014 A 
ATOM      7  C   LIG    1       -9.246  -8.823  -1.708  0.00  0.00    +0.004 A 
ATOM      8  C   LIG    1       -9.766  -9.093  -0.450  0.00  0.00    +0.046 A 
ATOM      9  C   LIG    1       -8.956  -9.063   0.670  0.00  0.00    +0.130 A 
ATOM     10  C   LIG    1       -5.647  -8.156  -0.870  0.00  0.00    +0.260 A 
ATOM     11  O   LIG    1       -5.156  -7.908  -1.956  0.00  0.00    -0.267 OA
ENDROOT
BRANCH   1  12
ATOM     12  C   LIG    1       -3.460  -7.819   0.118  0.00  0.00    +0.220 C 
BRANCH  12  15
ATOM     13  N   LIG    1       -2.029  -5.803   0.177  0.00  0.00    -0.284 N 
ATOM     14  H   LIG    1       -1.273  -6.369  -0.043  0.00  0.00    +0.155 HD
ATOM     15  C   LIG    1       -3.266  -6.331   0.257  0.00  0.00    +0.237 C 
ATOM     16  O   LIG    1       -4.223  -5.609   0.441  0.00  0.00    -0.274 OA
BRANCH  13  20
ATOM     17  C   LIG    1       -1.451  -1.732   0.874  0.00  0.00    +0.121 A 
ATOM     18  C   LIG    1       -2.438  -2.421   1.564  0.00  0.00    +0.047 A 
ATOM     19  C   LIG    1       -2.630  -3.768   1.334  0.00  0.00    +0.027 A 
ATOM     20  C   LIG    1       -1.835  -4.435   0.411  0.00  0.00    +0.034 A 
ATOM     21  C   LIG    1       -0.847  -3.745  -0.280  0.00  0.00    +0.027 A 
ATOM     22  C   LIG    1       -0.660  -2.396  -0.052  0.00  0.00    +0.047 A 
BRANCH  17  23
ATOM     23  O   LIG    1       -1.262  -0.405   1.101  0.00  0.00    -0.492 OA
BRANCH  23  25
ATOM     24  C   LIG    1       -1.754   1.697   2.188  0.00  0.00    +0.048 C 
ATOM     25  C   LIG    1       -2.112   0.214   2.069  0.00  0.00    +0.225 C 
ENDBRANCH  23  25
ENDBRANCH  17  23
ENDBRANCH  13  20
ENDBRANCH  12  15
ENDBRANCH   1  12
BRANCH   9  26
ATOM     26  O   LIG    1       -9.473  -9.330   1.897  0.00  0.00    -0.477 OA
BRANCH  26  27
ATOM     27  C   LIG    1      -10.836  -9.757   1.949  0.00  0.00    +0.278 C 
ATOM     28  C   LIG    1      -11.753  -8.532   1.961  0.00  0.00    +0.064 C 
BRANCH  27  29
ATOM     29  C   LIG    1      -11.062 -10.566   3.199  0.00  0.00    +0.348 C 
ATOM     30  O   LIG    1      -10.176 -10.683   4.012  0.00  0.00    -0.247 OA
BRANCH  29  31
ATOM     31  O   LIG    1      -12.248 -11.158   3.410  0.00  0.00    -0.462 OA
BRANCH  31  32
ATOM     32  C   LIG    1      -12.393 -11.911   4.616  0.00  0.00    +0.229 C 
ATOM     33  C   LIG    1      -13.801 -12.506   4.680  0.00  0.00    +0.048 C 
ENDBRANCH  31  32
ENDBRANCH  29  31
ENDBRANCH  27  29
ENDBRANCH  26  27
ENDBRANCH   9  26
TORSDOF 10
