REMARK  Name = ZINC02516030
REMARK                            x       y       z     vdW  Elec       q    Type
REMARK                         _______ _______ _______ _____ _____    ______ ____
ROOT
ATOM      1  N   LIG    1       -4.707  -2.846   2.931  0.00  0.00    +0.380 N 
ATOM      2  H   LIG    1       -4.706  -3.632   2.299  0.00  0.00    -0.082 HD
ATOM      3  C   LIG    1       -5.729  -1.881   2.506  0.00  0.00    -0.076 C 
ATOM      4  C   LIG    1       -7.094  -2.571   2.448  0.00  0.00    +0.021 C 
ATOM      5  C   LIG    1       -7.446  -3.110   3.837  0.00  0.00    +0.088 C 
ATOM      6  C   LIG    1       -6.336  -4.058   4.303  0.00  0.00    +0.021 C 
ATOM      7  C   LIG    1       -4.999  -3.313   4.291  0.00  0.00    -0.076 C 
ENDROOT
BRANCH   5   8
ATOM      8  C   LIG    1       -8.752  -3.858   3.771  0.00  0.00    -0.016 A 
ATOM      9  C   LIG    1       -9.119  -4.507   2.607  0.00  0.00    +0.008 A 
ATOM     10  C   LIG    1      -10.317  -5.194   2.546  0.00  0.00    +0.020 A 
ATOM     11  C   LIG    1      -11.149  -5.231   3.650  0.00  0.00    +0.041 A 
ATOM     12 CL   LIG    1      -12.655  -6.093   3.574  0.00  0.00    -0.084 Cl
ATOM     13  C   LIG    1      -10.782  -4.582   4.815  0.00  0.00    +0.020 A 
ATOM     14  C   LIG    1       -9.581  -3.901   4.877  0.00  0.00    +0.008 A 
ENDBRANCH   5   8
BRANCH   5  15
ATOM     15  O   LIG    1       -7.562  -2.023   4.757  0.00  0.00    -0.384 OA
ATOM     16  H   LIG    1       -7.784  -2.292   5.659  0.00  0.00    +0.211 HD
ENDBRANCH   5  15
BRANCH   1  17
ATOM     17  C   LIG    1       -3.388  -2.200   2.910  0.00  0.00    -0.079 C 
BRANCH  17  18
ATOM     18  C   LIG    1       -3.027  -1.823   1.471  0.00  0.00    -0.016 C 
BRANCH  18  19
ATOM     19  C   LIG    1       -1.653  -1.151   1.449  0.00  0.00    +0.034 C 
BRANCH  19  20
ATOM     20  C   LIG    1       -1.293  -0.775   0.010  0.00  0.00    +0.144 C 
BRANCH  20  27
ATOM     21  C   LIG    1       -0.017   1.378   0.010  0.00  0.00    +0.009 A 
ATOM     22  C   LIG    1        1.170   2.086   0.002  0.00  0.00    +0.039 A 
ATOM     23  C   LIG    1        2.379   1.410  -0.013  0.00  0.00    +0.123 A 
ATOM     24  F   LIG    1        3.540   2.101  -0.021  0.00  0.00    -0.205 F 
ATOM     25  C   LIG    1        2.396   0.026  -0.021  0.00  0.00    +0.039 A 
ATOM     26  C   LIG    1        1.208  -0.680  -0.013  0.00  0.00    +0.009 A 
ATOM     27  C   LIG    1        0.002  -0.004   0.002  0.00  0.00    -0.019 A 
ENDBRANCH  20  27
BRANCH  20  28
ATOM     28  O   LIG    1       -1.145  -1.962  -0.770  0.00  0.00    -0.387 OA
ATOM     29  H   LIG    1       -0.456  -2.560  -0.451  0.00  0.00    +0.210 HD
ENDBRANCH  20  28
ENDBRANCH  19  20
ENDBRANCH  18  19
ENDBRANCH  17  18
ENDBRANCH   1  17
TORSDOF 8
