REMARK  Name = ZINC02572146
REMARK                            x       y       z     vdW  Elec       q    Type
REMARK                         _______ _______ _______ _____ _____    ______ ____
ROOT
ATOM      1  C   LIG    1       -0.018   1.503   0.010  0.00  0.00    +0.063 C 
ATOM      2  C   LIG    1        0.002  -0.004   0.002  0.00  0.00    +0.017 A 
ATOM      3  C   LIG    1        0.007  -0.769  -1.101  0.00  0.00    -0.021 A 
ATOM      4  C   LIG    1        0.029  -2.164  -0.656  0.00  0.00    +0.006 A 
ATOM      5  C   LIG    1        0.043  -3.393  -1.320  0.00  0.00    +0.055 A 
ATOM      6  C   LIG    1        0.063  -4.563  -0.588  0.00  0.00    +0.118 A 
ATOM      7  C   LIG    1        0.069  -4.520   0.804  0.00  0.00    +0.047 A 
ATOM      8  C   LIG    1        0.055  -3.314   1.469  0.00  0.00    +0.030 A 
ATOM      9  C   LIG    1        0.036  -2.124   0.749  0.00  0.00    +0.047 A 
ATOM     10  N   LIG    1        0.024  -0.795   1.118  0.00  0.00    -0.358 N 
ATOM     11  H   LIG    1        0.029  -0.470   2.032  0.00  0.00    +0.166 HD
ENDROOT
BRANCH   6  12
ATOM     12  O   LIG    1        0.076  -5.763  -1.228  0.00  0.00    -0.507 OA
ATOM     13  H   LIG    1        0.963  -6.097  -1.418  0.00  0.00    +0.292 HD
ENDBRANCH   6  12
BRANCH   3  14
ATOM     14  C   LIG    1       -0.007  -0.283  -2.528  0.00  0.00    +0.018 C 
BRANCH  14  15
ATOM     15  C   LIG    1        1.431  -0.099  -3.018  0.00  0.00    -0.082 C 
BRANCH  15  16
ATOM     16  N   LIG    1        1.417   0.374  -4.409  0.00  0.00    +0.378 N 
ATOM     17  H   LIG    1        2.365   0.496  -4.733  0.00  0.00    -0.090 HD
ATOM     18  H   LIG    1        0.928   1.256  -4.460  0.00  0.00    -0.090 HD
ATOM     19  H   LIG    1        0.947  -0.304  -4.990  0.00  0.00    -0.090 HD
ENDBRANCH  15  16
ENDBRANCH  14  15
ENDBRANCH   3  14
TORSDOF 4
