REMARK  Name = ZINC02944779
REMARK                            x       y       z     vdW  Elec       q    Type
REMARK                         _______ _______ _______ _____ _____    ______ ____
ROOT
ATOM      1  C   LIG    1       -0.017   1.380   0.010  0.00  0.00    +0.030 A 
ATOM      2  C   LIG    1        1.163   2.102   0.002  0.00  0.00    +0.026 A 
ATOM      3  C   LIG    1        2.385   1.444  -0.013  0.00  0.00    +0.045 A 
ATOM      4  C   LIG    1        2.401   0.039  -0.021  0.00  0.00    +0.050 A 
ATOM      5  C   LIG    1        3.819  -0.366  -0.037  0.00  0.00    +0.249 C 
ATOM      6  C   LIG    1        4.586   0.923  -0.038  0.00  0.00    +0.289 C 
ATOM      7  O   LIG    1        5.793   1.039  -0.050  0.00  0.00    -0.266 OA
ATOM      8  O   LIG    1        4.267  -1.494  -0.048  0.00  0.00    -0.282 OA
ATOM      9  C   LIG    1        1.206  -0.679  -0.013  0.00  0.00    +0.042 A 
ATOM     10  N   LIG    1        3.691   1.927  -0.024  0.00  0.00    -0.278 N 
ATOM     11  H   LIG    1        3.926   2.868  -0.021  0.00  0.00    +0.155 HD
ATOM     12  C   LIG    1        0.002  -0.004   0.002  0.00  0.00    +0.106 A 
ENDROOT
BRANCH  12  13
ATOM     13  S   LIG    1       -1.512  -0.905   0.012  0.00  0.00    +0.061 S 
ATOM     14  O   LIG    1       -2.493  -0.045   0.576  0.00  0.00    -0.153 OA
ATOM     15  O   LIG    1       -1.220  -2.186   0.553  0.00  0.00    -0.153 OA
BRANCH  13  16
ATOM     16  N   LIG    1       -1.948  -1.147  -1.568  0.00  0.00    -0.177 NA
ATOM     17  C   LIG    1       -2.786  -0.166  -2.271  0.00  0.00    +0.109 C 
ATOM     18  C   LIG    1       -2.082   0.244  -3.568  0.00  0.00    +0.017 C 
ATOM     19  C   LIG    1       -1.758  -1.009  -4.386  0.00  0.00    +0.003 C 
ATOM     20  C   LIG    1       -0.814  -1.911  -3.588  0.00  0.00    +0.017 C 
ATOM     21  C   LIG    1       -1.499  -2.342  -2.293  0.00  0.00    +0.109 C 
ENDBRANCH  13  16
ENDBRANCH  12  13
TORSDOF 2
