REMARK  Name = ZINC03155930
REMARK                            x       y       z     vdW  Elec       q    Type
REMARK                         _______ _______ _______ _____ _____    ______ ____
ROOT
ATOM      1  C   LIG    1       -3.463  -2.422   0.552  0.00  0.00    +0.015 A 
ATOM      2  C   LIG    1       -3.592  -0.951   0.564  0.00  0.00    +0.034 A 
ATOM      3  C   LIG    1       -2.579  -0.161   0.252  0.00  0.00    +0.131 A 
ATOM      4  C   LIG    1       -1.293  -0.774  -0.115  0.00  0.00    +0.044 A 
ATOM      5  C   LIG    1       -0.091  -0.007  -0.481  0.00  0.00    +0.131 A 
ATOM      6  C   LIG    1        1.009  -0.667  -0.799  0.00  0.00    +0.034 A 
ATOM      7  C   LIG    1        1.063  -2.143  -0.785  0.00  0.00    +0.015 A 
ATOM      8  C   LIG    1       -0.013  -2.827  -0.457  0.00  0.00    +0.034 A 
ATOM      9  C   LIG    1       -0.368  -4.249  -0.329  0.00  0.00    +0.234 C 
ATOM     10  O   LIG    1        0.368  -5.182  -0.531  0.00  0.00    -0.283 OA
ATOM     11  C   LIG    1       -1.786  -4.336   0.090  0.00  0.00    +0.234 C 
ATOM     12  O   LIG    1       -2.403  -5.353   0.290  0.00  0.00    -0.283 OA
ATOM     13  C   LIG    1       -1.214  -2.068  -0.117  0.00  0.00    +0.008 A 
ATOM     14  C   LIG    1       -2.312  -2.969   0.222  0.00  0.00    +0.034 A 
ENDROOT
BRANCH   3  15
ATOM     15  N   LIG    1       -2.722   1.187   0.271  0.00  0.00    +0.007 N 
ATOM     16  O   LIG    1       -3.135   1.742   1.274  0.00  0.00    -0.130 OA
BRANCH  15  17
ATOM     17  O   LIG    1       -2.438   1.843  -0.715  0.00  0.00    -0.396 OA
ATOM     18  H   LIG    1       -2.121   1.416  -1.487  0.00  0.00    +0.329 HD
ENDBRANCH  15  17
ENDBRANCH   3  15
BRANCH   5  19
ATOM     19  N   LIG    1       -0.114   1.347  -0.497  0.00  0.00    +0.007 N 
ATOM     20  O   LIG    1        0.223   1.950  -1.500  0.00  0.00    -0.130 OA
BRANCH  19  21
ATOM     21  O   LIG    1       -0.476   1.962   0.490  0.00  0.00    -0.396 OA
ATOM     22  H   LIG    1       -0.735   1.498   1.262  0.00  0.00    +0.329 HD
ENDBRANCH  19  21
ENDBRANCH   5  19
TORSDOF 4
