REMARK  Name = ZINC02496760
REMARK                            x       y       z     vdW  Elec       q    Type
REMARK                         _______ _______ _______ _____ _____    ______ ____
ROOT
ATOM      1  C   LIG    1        0.099   5.190   0.029  0.00  0.00    +0.002 A 
ATOM      2  C   LIG    1        1.314   5.851   0.021  0.00  0.00    +0.014 A 
ATOM      3  C   LIG    1        2.503   5.124   0.006  0.00  0.00    +0.049 A 
ATOM      4  C   LIG    1        2.479   3.720  -0.002  0.00  0.00    +0.059 A 
ATOM      5  N   LIG    1        3.775   3.229  -0.017  0.00  0.00    -0.278 N 
ATOM      6  H   LIG    1        4.001   2.286  -0.024  0.00  0.00    +0.155 HD
ATOM      7  C   LIG    1        4.680   4.223  -0.020  0.00  0.00    +0.289 C 
ATOM      8  O   LIG    1        5.886   4.095  -0.032  0.00  0.00    -0.266 OA
ATOM      9  C   LIG    1        1.238   3.064   0.007  0.00  0.00    +0.081 A 
ATOM     10  C   LIG    1        3.924   5.519  -0.006  0.00  0.00    +0.249 C 
ATOM     11  O   LIG    1        4.381   6.643  -0.004  0.00  0.00    -0.282 OA
ATOM     12  C   LIG    1        0.056   3.811   0.016  0.00  0.00    +0.017 A 
ENDROOT
BRANCH   9  13
ATOM     13  C   LIG    1        1.181   1.591  -0.001  0.00  0.00    +0.339 C 
ATOM     14  O   LIG    1        2.209   0.943  -0.014  0.00  0.00    -0.245 OA
BRANCH  13  15
ATOM     15  O   LIG    1       -0.011   0.963   0.007  0.00  0.00    -0.477 OA
ATOM     16  H   LIG    1       -0.804   1.462   0.018  0.00  0.00    +0.295 HD
ENDBRANCH  13  15
ENDBRANCH   9  13
TORSDOF 2
