REMARK  Name = ZINC03602061
REMARK                            x       y       z     vdW  Elec       q    Type
REMARK                         _______ _______ _______ _____ _____    ______ ____
ROOT
ATOM      1  C   LIG    1       -3.579   5.720  -0.139  0.00  0.00    +0.221 A 
ATOM      2  N   LIG    1       -3.714   7.028  -0.237  0.00  0.00    -0.214 NA
ATOM      3  C   LIG    1       -2.634   7.822  -0.254  0.00  0.00    +0.080 A 
ATOM      4  C   LIG    1       -2.740   9.216  -0.358  0.00  0.00    +0.028 A 
ATOM      5  C   LIG    1       -1.610   9.978  -0.370  0.00  0.00    +0.002 A 
ATOM      6  C   LIG    1       -0.349   9.393  -0.281  0.00  0.00    +0.001 A 
ATOM      7  C   LIG    1       -0.210   8.040  -0.178  0.00  0.00    +0.015 A 
ATOM      8  C   LIG    1       -1.351   7.229  -0.157  0.00  0.00    +0.062 A 
ATOM      9  C   LIG    1       -1.268   5.820  -0.059  0.00  0.00    +0.233 A 
ATOM     10  N   LIG    1       -2.393   5.124  -0.051  0.00  0.00    -0.178 NA
ENDROOT
BRANCH   1  16
ATOM     11  C   LIG    1       -7.771   2.247   1.014  0.00  0.00    -0.096 C 
ATOM     12  N   LIG    1       -6.548   3.078   1.024  0.00  0.00    +0.380 N 
ATOM     13  H   LIG    1       -6.060   2.941   1.917  0.00  0.00    -0.082 HD
ATOM     14  C   LIG    1       -6.905   4.505   0.886  0.00  0.00    -0.060 C 
ATOM     15  C   LIG    1       -5.626   5.343   0.955  0.00  0.00    +0.089 C 
ATOM     16  N   LIG    1       -4.718   4.935  -0.126  0.00  0.00    -0.303 N 
ATOM     17  C   LIG    1       -4.374   3.510  -0.011  0.00  0.00    +0.089 C 
ATOM     18  C   LIG    1       -5.653   2.673  -0.080  0.00  0.00    -0.060 C 
ENDBRANCH   1  16
BRANCH   9  19
ATOM     19  O   LIG    1       -0.069   5.201   0.030  0.00  0.00    -0.437 OA
BRANCH  19  20
ATOM     20  C   LIG    1       -0.051   3.842   0.043  0.00  0.00    +0.130 A 
ATOM     21  C   LIG    1        0.156   3.160   1.233  0.00  0.00    +0.046 A 
ATOM     22  C   LIG    1        0.174   1.779   1.243  0.00  0.00    +0.004 A 
ATOM     23  C   LIG    1       -0.016   1.076   0.068  0.00  0.00    +0.000 A 
ATOM     24  C   LIG    1       -0.218   1.753  -1.121  0.00  0.00    +0.004 A 
ATOM     25  C   LIG    1       -0.242   3.134  -1.135  0.00  0.00    +0.046 A 
ENDBRANCH  19  20
ENDBRANCH   9  19
TORSDOF 3
