REMARK  Name = ZINC02556234
REMARK                            x       y       z     vdW  Elec       q    Type
REMARK                         _______ _______ _______ _____ _____    ______ ____
ROOT
ATOM      1  C   LIG    1       -1.279   3.046  -0.021  0.00  0.00    +0.020 A 
ATOM      2  C   LIG    1       -0.085   3.755  -0.053  0.00  0.00    +0.018 A 
ATOM      3  C   LIG    1        1.095   3.109  -0.363  0.00  0.00    +0.034 A 
ATOM      4  C   LIG    1        1.101   1.751  -0.644  0.00  0.00    +0.122 A 
ATOM      5  C   LIG    1       -0.071   1.029  -0.618  0.00  0.00    +0.041 A 
ATOM      6  C   LIG    1       -1.278   1.669  -0.311  0.00  0.00    -0.008 A 
ENDROOT
BRANCH   6   7
ATOM      7  C   LIG    1       -2.532   0.909  -0.288  0.00  0.00    +0.029 C 
ATOM      8  C   LIG    1       -2.561  -0.336   0.256  0.00  0.00    +0.074 C 
ATOM      9  C   LIG    1       -1.513  -1.064   0.996  0.00  0.00    +0.217 C 
ATOM     10  N   LIG    1       -1.819  -2.280   1.417  0.00  0.00    -0.165 NA
ATOM     11  C   LIG    1       -3.031  -2.823   1.180  0.00  0.00    +0.139 C 
ATOM     12  S   LIG    1       -3.612  -4.367   1.637  0.00  0.00    -0.026 S 
ATOM     13  S   LIG    1       -3.884  -1.539   0.278  0.00  0.00    -0.060 S 
BRANCH   9  14
ATOM     14  O   LIG    1       -0.421  -0.570   1.209  0.00  0.00    -0.493 OA
ATOM     15  H   LIG    1       -0.229   0.293   0.900  0.00  0.00    +0.294 HD
ENDBRANCH   9  14
ENDBRANCH   6   7
BRANCH   4  16
ATOM     16  N   LIG    1        2.376   1.073  -0.974  0.00  0.00    +0.006 N 
ATOM     17  O   LIG    1        2.386  -0.119  -1.222  0.00  0.00    -0.130 OA
BRANCH  16  18
ATOM     18  O   LIG    1        3.415   1.709  -0.998  0.00  0.00    -0.396 OA
ATOM     19  H   LIG    1        3.408   2.626  -0.807  0.00  0.00    +0.329 HD
ENDBRANCH  16  18
ENDBRANCH   4  16
BRANCH   1  20
ATOM     20  S   LIG    1       -2.786   3.868   0.375  0.00  0.00    -0.089 S 
BRANCH  20  27
ATOM     21  C   LIG    1       -2.284   2.462   2.669  0.00  0.00    +0.016 A 
ATOM     22  C   LIG    1       -2.542   2.084   3.972  0.00  0.00    +0.021 A 
ATOM     23  C   LIG    1       -3.632   2.609   4.643  0.00  0.00    +0.041 A 
ATOM     24 CL   LIG    1       -3.957   2.126   6.279  0.00  0.00    -0.084 Cl
ATOM     25  C   LIG    1       -4.465   3.518   4.013  0.00  0.00    +0.021 A 
ATOM     26  C   LIG    1       -4.209   3.903   2.712  0.00  0.00    +0.016 A 
ATOM     27  C   LIG    1       -3.115   3.378   2.036  0.00  0.00    +0.013 A 
ENDBRANCH  20  27
ENDBRANCH   1  20
TORSDOF 6
