REMARK  Name = ZINC02889426
REMARK                            x       y       z     vdW  Elec       q    Type
REMARK                         _______ _______ _______ _____ _____    ______ ____
ROOT
ATOM      1  C   LIG    1        3.699  -0.689  -0.037  0.00  0.00    +0.170 A 
ATOM      2  N   LIG    1        3.744  -2.010  -0.050  0.00  0.00    -0.204 NA
ATOM      3  C   LIG    1        4.934  -2.582  -0.065  0.00  0.00    +0.185 A 
ATOM      4  S   LIG    1        5.978  -1.266  -0.061  0.00  0.00    +0.050 S 
ATOM      5  N   LIG    1        4.842  -0.033  -0.046  0.00  0.00    -0.187 NA
ENDROOT
BRANCH   1   9
ATOM      6  C   LIG    1       -0.017   1.379   0.010  0.00  0.00    +0.000 A 
ATOM      7  C   LIG    1        1.169   2.092   0.002  0.00  0.00    +0.001 A 
ATOM      8  C   LIG    1        2.377   1.426  -0.013  0.00  0.00    +0.011 A 
ATOM      9  C   LIG    1        2.402   0.033  -0.021  0.00  0.00    +0.020 A 
ATOM     10  C   LIG    1        1.205  -0.680  -0.013  0.00  0.00    +0.011 A 
ATOM     11  C   LIG    1        0.002  -0.004   0.002  0.00  0.00    +0.001 A 
ENDBRANCH   1   9
BRANCH   3  12
ATOM     12  N   LIG    1        5.244  -3.933  -0.080  0.00  0.00    -0.259 N 
ATOM     13  H   LIG    1        4.534  -4.594  -0.080  0.00  0.00    +0.157 HD
ATOM     14  C   LIG    1        6.533  -4.329  -0.094  0.00  0.00    +0.250 C 
ATOM     15  O   LIG    1        7.423  -3.501  -0.094  0.00  0.00    -0.270 OA
BRANCH  14  16
ATOM     16  C   LIG    1        6.864  -5.769  -0.110  0.00  0.00    +0.037 A 
ATOM     17  C   LIG    1        5.843  -6.722  -0.116  0.00  0.00    +0.014 A 
ATOM     18  C   LIG    1        6.159  -8.064  -0.131  0.00  0.00    +0.021 A 
ATOM     19  C   LIG    1        7.484  -8.468  -0.140  0.00  0.00    +0.041 A 
ATOM     20 CL   LIG    1        7.872 -10.159  -0.159  0.00  0.00    -0.084 Cl
ATOM     21  C   LIG    1        8.500  -7.526  -0.134  0.00  0.00    +0.021 A 
ATOM     22  C   LIG    1        8.197  -6.181  -0.125  0.00  0.00    +0.014 A 
ENDBRANCH  14  16
ENDBRANCH   3  12
TORSDOF 3
