REMARK  Name = ZINC02712318
REMARK                            x       y       z     vdW  Elec       q    Type
REMARK                         _______ _______ _______ _____ _____    ______ ____
ROOT
ATOM      1  C   LIG    1        7.674   7.440   0.632  0.00  0.00    +0.130 A 
ATOM      2  C   LIG    1        8.458   7.583  -0.497  0.00  0.00    +0.046 A 
ATOM      3  C   LIG    1        7.961   7.253  -1.751  0.00  0.00    +0.004 A 
ATOM      4  C   LIG    1        6.677   6.777  -1.898  0.00  0.00    +0.014 A 
ATOM      5  C   LIG    1        5.865   6.624  -0.774  0.00  0.00    +0.050 A 
ATOM      6  C   LIG    1        4.490   6.121  -0.873  0.00  0.00    +0.260 A 
ATOM      7  O   LIG    1        4.020   5.822  -1.956  0.00  0.00    -0.267 OA
ATOM      8  N   LIG    1        3.753   5.995   0.248  0.00  0.00    -0.306 N 
ATOM      9  C   LIG    1        4.239   6.324   1.481  0.00  0.00    +0.090 A 
ATOM     10  C   LIG    1        5.488   6.785   1.662  0.00  0.00    +0.030 A 
ATOM     11  C   LIG    1        6.366   6.957   0.504  0.00  0.00    +0.030 A 
ENDROOT
BRANCH   1  12
ATOM     12  O   LIG    1        8.168   7.765   1.855  0.00  0.00    -0.477 OA
BRANCH  12  13
ATOM     13  C   LIG    1        9.464   8.366   1.892  0.00  0.00    +0.278 C 
ATOM     14  C   LIG    1       10.534   7.273   1.883  0.00  0.00    +0.064 C 
BRANCH  13  15
ATOM     15  C   LIG    1        9.598   9.191   3.146  0.00  0.00    +0.348 C 
ATOM     16  O   LIG    1        8.716   9.186   3.971  0.00  0.00    -0.247 OA
BRANCH  15  17
ATOM     17  O   LIG    1       10.699   9.933   3.346  0.00  0.00    -0.462 OA
BRANCH  17  19
ATOM     18  C   LIG    1       12.079  11.477   4.628  0.00  0.00    +0.048 C 
ATOM     19  C   LIG    1       10.761  10.702   4.576  0.00  0.00    +0.229 C 
ENDBRANCH  17  19
ENDBRANCH  15  17
ENDBRANCH  13  15
ENDBRANCH  12  13
ENDBRANCH   1  12
BRANCH   8  20
ATOM     20  C   LIG    1        2.381   5.492   0.140  0.00  0.00    +0.220 C 
BRANCH  20  21
ATOM     21  C   LIG    1        2.385   3.990   0.264  0.00  0.00    +0.237 C 
ATOM     22  N   LIG    1        1.226   3.306   0.194  0.00  0.00    -0.284 N 
ATOM     23  H   LIG    1        0.399   3.771  -0.009  0.00  0.00    +0.155 HD
ATOM     24  O   LIG    1        3.430   3.398   0.427  0.00  0.00    -0.274 OA
BRANCH  22  25
ATOM     25  C   LIG    1        1.215   1.922   0.415  0.00  0.00    +0.034 A 
ATOM     26  C   LIG    1        2.104   1.356   1.319  0.00  0.00    +0.027 A 
ATOM     27  C   LIG    1        2.093  -0.007   1.536  0.00  0.00    +0.047 A 
ATOM     28  C   LIG    1        1.194  -0.812   0.852  0.00  0.00    +0.120 A 
ATOM     29  C   LIG    1        0.305  -0.247  -0.052  0.00  0.00    +0.047 A 
ATOM     30  C   LIG    1        0.316   1.116  -0.271  0.00  0.00    +0.027 A 
BRANCH  28  31
ATOM     31  O   LIG    1        1.183  -2.154   1.066  0.00  0.00    -0.495 OA
ATOM     32  C   LIG    1        0.231  -2.922   0.328  0.00  0.00    +0.277 C 
ENDBRANCH  28  31
ENDBRANCH  22  25
ENDBRANCH  20  21
ENDBRANCH   8  20
TORSDOF 9
