REMARK  Name = ZINC02465908
REMARK                            x       y       z     vdW  Elec       q    Type
REMARK                         _______ _______ _______ _____ _____    ______ ____
ROOT
ATOM      1  N   LIG    1       -4.190   0.430   5.025  0.00  0.00    -0.278 N 
ATOM      2  H   LIG    1       -3.974  -0.025   5.854  0.00  0.00    +0.155 HD
ATOM      3  C   LIG    1       -5.418   0.957   4.846  0.00  0.00    +0.270 C 
ATOM      4  O   LIG    1       -5.689   1.528   3.808  0.00  0.00    -0.268 OA
ENDROOT
BRANCH   3   5
ATOM      5  C   LIG    1       -6.437   0.841   5.917  0.00  0.00    +0.171 A 
ATOM      6  C   LIG    1       -7.757   1.337   5.867  0.00  0.00    +0.027 A 
ATOM      7  C   LIG    1       -8.365   1.031   7.032  0.00  0.00    +0.141 A 
ATOM      8  C   LIG    1       -9.791   1.397   7.364  0.00  0.00    +0.078 C 
ATOM      9  C   LIG    1      -10.254   2.483   6.386  0.00  0.00    +0.012 C 
ATOM     10  C   LIG    1       -9.936   2.048   4.952  0.00  0.00    -0.001 C 
ATOM     11  O   LIG    1       -7.492   0.372   7.800  0.00  0.00    -0.359 OA
ATOM     12  C   LIG    1       -8.418   2.081   4.734  0.00  0.00    +0.045 C 
ATOM     13  N   LIG    1       -6.276   0.253   7.080  0.00  0.00    -0.073 NA
BRANCH  10  14
ATOM     14  C   LIG    1      -10.615   3.002   3.967  0.00  0.00    -0.035 C 
ATOM     15  C   LIG    1      -12.128   2.969   4.187  0.00  0.00    +0.011 C 
ATOM     16  C   LIG    1      -10.297   2.567   2.535  0.00  0.00    +0.011 C 
ATOM     17  C   LIG    1      -10.097   4.423   4.195  0.00  0.00    +0.011 C 
ENDBRANCH  10  14
ENDBRANCH   3   5
BRANCH   1  20
ATOM     18  N   LIG    1       -1.352   0.373   2.882  0.00  0.00    -0.265 N 
ATOM     19  C   LIG    1       -1.955   0.058   4.058  0.00  0.00    +0.132 A 
ATOM     20  C   LIG    1       -3.223   0.540   4.010  0.00  0.00    +0.072 A 
ATOM     21  C   LIG    1       -3.397   1.168   2.767  0.00  0.00    +0.157 A 
ATOM     22  N   LIG    1       -2.278   1.071   2.097  0.00  0.00    -0.177 NA
BRANCH  18  23
ATOM     23  C   LIG    1        0.025   0.045   2.504  0.00  0.00    +0.178 C 
BRANCH  23  30
ATOM     24  C   LIG    1       -0.018   1.503   0.010  0.00  0.00    +0.044 C 
ATOM     25  C   LIG    1        0.002  -0.004   0.002  0.00  0.00    -0.046 A 
ATOM     26  C   LIG    1        0.006  -0.689  -1.199  0.00  0.00    +0.004 A 
ATOM     27  C   LIG    1        0.025  -2.071  -1.207  0.00  0.00    +0.000 A 
ATOM     28  C   LIG    1        0.040  -2.768  -0.013  0.00  0.00    +0.000 A 
ATOM     29  C   LIG    1        0.037  -2.084   1.188  0.00  0.00    +0.006 A 
ATOM     30  C   LIG    1        0.023  -0.702   1.195  0.00  0.00    -0.023 A 
ENDBRANCH  23  30
ENDBRANCH  18  23
ENDBRANCH   1  20
TORSDOF 5
