REMARK  Name = ZINC02563947
REMARK                            x       y       z     vdW  Elec       q    Type
REMARK                         _______ _______ _______ _____ _____    ______ ____
ROOT
ATOM      1  C   LIG    1       -0.196  -0.453  -9.813  0.00  0.00    +0.123 A 
ATOM      2  C   LIG    1       -1.452   0.146  -9.835  0.00  0.00    +0.046 A 
ATOM      3  C   LIG    1       -2.059   0.428 -11.025  0.00  0.00    +0.018 A 
ATOM      4  C   LIG    1       -1.420   0.116 -12.230  0.00  0.00    +0.058 A 
ATOM      5  C   LIG    1       -0.155  -0.486 -12.210  0.00  0.00    +0.138 A 
ATOM      6  F   LIG    1        0.469  -0.791 -13.369  0.00  0.00    -0.205 F 
ATOM      7  C   LIG    1        0.452  -0.763 -11.002  0.00  0.00    +0.084 A 
ENDROOT
BRANCH   4   8
ATOM      8  C   LIG    1       -2.074   0.420 -13.515  0.00  0.00    +0.196 C 
ATOM      9  O   LIG    1       -2.112   1.565 -13.922  0.00  0.00    -0.287 OA
BRANCH   8  10
ATOM     10  C   LIG    1       -2.684  -0.667 -14.308  0.00  0.00    +0.022 A 
ATOM     11  C   LIG    1       -2.749  -1.962 -13.790  0.00  0.00    +0.013 A 
ATOM     12  C   LIG    1       -3.320  -2.972 -14.536  0.00  0.00    +0.016 A 
ATOM     13  C   LIG    1       -3.829  -2.704 -15.796  0.00  0.00    +0.018 A 
ATOM     14 BR   LIG    1       -4.609  -4.095 -16.811  0.00  0.00    -0.050 Br
ATOM     15  C   LIG    1       -3.768  -1.421 -16.315  0.00  0.00    +0.016 A 
ATOM     16  C   LIG    1       -3.205  -0.402 -15.577  0.00  0.00    +0.013 A 
ENDBRANCH   8  10
ENDBRANCH   4   8
BRANCH   1  17
ATOM     17  O   LIG    1        0.399  -0.730  -8.626  0.00  0.00    -0.492 OA
BRANCH  17  18
ATOM     18  C   LIG    1       -0.322  -0.385  -7.442  0.00  0.00    +0.229 C 
BRANCH  18  19
ATOM     19  C   LIG    1        0.502  -0.770  -6.212  0.00  0.00    +0.041 C 
BRANCH  19  20
ATOM     20  C   LIG    1       -0.271  -0.401  -4.944  0.00  0.00    +0.003 C 
BRANCH  20  21
ATOM     21  C   LIG    1        0.554  -0.786  -3.714  0.00  0.00    -0.002 C 
BRANCH  21  22
ATOM     22  C   LIG    1       -0.219  -0.416  -2.446  0.00  0.00    -0.019 C 
BRANCH  22  23
ATOM     23  C   LIG    1        0.606  -0.801  -1.216  0.00  0.00    -0.079 C 
BRANCH  23  25
ATOM     24  C   LIG    1       -0.287   1.013   0.075  0.00  0.00    -0.096 C 
ATOM     25  N   LIG    1       -0.136  -0.447   0.001  0.00  0.00    +0.380 N 
ATOM     26  H   LIG    1       -1.048  -0.878  -0.023  0.00  0.00    -0.082 HD
BRANCH  25  27
ATOM     27  C   LIG    1        0.600  -0.923   1.180  0.00  0.00    -0.052 C 
BRANCH  27  28
ATOM     28  C   LIG    1       -0.218  -0.670   2.420  0.00  0.00    -0.053 C 
ATOM     29  C   LIG    1       -0.500  -1.658   3.233  0.00  0.00    +0.002 C 
ENDBRANCH  27  28
ENDBRANCH  25  27
ENDBRANCH  23  25
ENDBRANCH  22  23
ENDBRANCH  21  22
ENDBRANCH  20  21
ENDBRANCH  19  20
ENDBRANCH  18  19
ENDBRANCH  17  18
ENDBRANCH   1  17
TORSDOF 12
