REMARK  Name = ZINC02413450
REMARK                            x       y       z     vdW  Elec       q    Type
REMARK                         _______ _______ _______ _____ _____    ______ ____
ROOT
ATOM      1  C   LIG    1        4.986   0.093  -0.046  0.00  0.00    +0.250 A 
ATOM      2  N   LIG    1        5.128   1.398  -0.036  0.00  0.00    -0.106 NA
ATOM      3  N   LIG    1        6.380   1.692  -0.048  0.00  0.00    -0.101 NA
ATOM      4  C   LIG    1        7.088   0.586  -0.067  0.00  0.00    +0.278 A 
ATOM      5  O   LIG    1        6.225  -0.447  -0.061  0.00  0.00    -0.411 OA
ENDROOT
BRANCH   1  14
ATOM      6  C   LIG    1       -0.016   1.357   0.009  0.00  0.00    +0.001 A 
ATOM      7  C   LIG    1        1.168   2.091   0.002  0.00  0.00    +0.001 A 
ATOM      8  C   LIG    1        2.379   1.466  -0.013  0.00  0.00    +0.009 A 
ATOM      9  C   LIG    1        2.435   0.067  -0.021  0.00  0.00    -0.006 A 
ATOM     10  C   LIG    1        1.233  -0.682  -0.013  0.00  0.00    -0.017 A 
ATOM     11  C   LIG    1        1.294  -2.086  -0.020  0.00  0.00    +0.008 A 
ATOM     12  C   LIG    1        2.494  -2.728  -0.035  0.00  0.00    +0.001 A 
ATOM     13  C   LIG    1        3.696  -2.035  -0.043  0.00  0.00    +0.014 A 
ATOM     14  C   LIG    1        3.711  -0.646  -0.037  0.00  0.00    +0.046 A 
ATOM     15  C   LIG    1        0.002  -0.004   0.002  0.00  0.00    +0.008 A 
ENDBRANCH   1  14
BRANCH   4  16
ATOM     16  S   LIG    1        8.847   0.474  -0.090  0.00  0.00    -0.053 S 
BRANCH  16  17
ATOM     17  C   LIG    1        9.396   2.203  -0.080  0.00  0.00    +0.167 C 
BRANCH  17  18
ATOM     18  C   LIG    1       10.867   2.250  -0.097  0.00  0.00    -0.088 C 
ATOM     19  C   LIG    1       12.041   2.288  -0.111  0.00  0.00    -0.061 C 
BRANCH  19  20
ATOM     20  C   LIG    1       13.512   2.336  -0.129  0.00  0.00    +0.321 C 
BRANCH  20  21
ATOM     21  O   LIG    1       13.945   3.697  -0.121  0.00  0.00    -0.448 OA
BRANCH  21  22
ATOM     22  C   LIG    1       15.276   3.917  -0.135  0.00  0.00    +0.347 C 
ATOM     23  O   LIG    1       16.047   2.977  -0.154  0.00  0.00    -0.244 OA
BRANCH  22  24
ATOM     24  C   LIG    1       15.791   5.287  -0.128  0.00  0.00    +0.096 A 
ATOM     25  C   LIG    1       17.108   5.726  -0.145  0.00  0.00    +0.022 A 
ATOM     26  C   LIG    1       17.282   7.089  -0.133  0.00  0.00    +0.008 A 
ATOM     27  C   LIG    1       16.190   7.893  -0.105  0.00  0.00    +0.046 A 
ATOM     28  S   LIG    1       14.892   6.826  -0.103  0.00  0.00    -0.090 S 
ENDBRANCH  22  24
ENDBRANCH  21  22
ENDBRANCH  20  21
ENDBRANCH  19  20
ENDBRANCH  17  18
ENDBRANCH  16  17
ENDBRANCH   4  16
TORSDOF 8
