REMARK  Name = ZINC02736778
REMARK                            x       y       z     vdW  Elec       q    Type
REMARK                         _______ _______ _______ _____ _____    ______ ____
ROOT
ATOM      1  N   LIG    1        2.257   5.349   0.010  0.00  0.00    -0.311 N 
ATOM      2  H   LIG    1        1.390   5.783   0.020  0.00  0.00    +0.149 HD
ATOM      3  C   LIG    1        2.337   4.003   0.002  0.00  0.00    +0.246 C 
ATOM      4  O   LIG    1        3.424   3.459  -0.011  0.00  0.00    -0.270 OA
ENDROOT
BRANCH   3   5
ATOM      5  C   LIG    1        1.103   3.189   0.009  0.00  0.00    +0.055 A 
ATOM      6  C   LIG    1        1.172   1.791   0.001  0.00  0.00    +0.016 A 
ATOM      7  C   LIG    1       -0.013   1.076   0.008  0.00  0.00    +0.020 A 
ATOM      8  C   LIG    1       -1.216   1.758   0.017  0.00  0.00    +0.111 A 
ATOM      9  N   LIG    1       -1.250   3.077   0.031  0.00  0.00    -0.263 NA
ATOM     10  C   LIG    1       -0.151   3.802   0.024  0.00  0.00    +0.123 A 
ENDBRANCH   3   5
BRANCH   1  11
ATOM     11  C   LIG    1        3.480   6.155   0.003  0.00  0.00    +0.105 C 
BRANCH  11  12
ATOM     12  C   LIG    1        3.112   7.640   0.014  0.00  0.00    +0.023 C 
BRANCH  12  13
ATOM     13  C   LIG    1        4.389   8.482   0.007  0.00  0.00    +0.036 C 
BRANCH  13  17
ATOM     14  C   LIG    1        3.361  12.629   0.039  0.00  0.00    +0.000 A 
ATOM     15  C   LIG    1        3.539  11.951   1.231  0.00  0.00    +0.000 A 
ATOM     16  C   LIG    1        3.871  10.609   1.221  0.00  0.00    +0.003 A 
ATOM     17  C   LIG    1        4.026   9.945   0.018  0.00  0.00    -0.047 A 
ATOM     18  C   LIG    1        3.855  10.624  -1.173  0.00  0.00    +0.003 A 
ATOM     19  C   LIG    1        3.517  11.964  -1.163  0.00  0.00    +0.000 A 
ENDBRANCH  13  17
ENDBRANCH  12  13
ENDBRANCH  11  12
ENDBRANCH   1  11
TORSDOF 5
