REMARK  Name = ZINC03188437
REMARK                            x       y       z     vdW  Elec       q    Type
REMARK                         _______ _______ _______ _____ _____    ______ ____
ROOT
ATOM      1  C   LIG    1        3.641   3.628  -0.014  0.00  0.00    +0.065 C 
ATOM      2  C   LIG    1        4.808   4.321   0.081  0.00  0.00    +0.050 C 
ATOM      3  C   LIG    1        6.181   3.775   0.082  0.00  0.00    +0.009 A 
ATOM      4  C   LIG    1        6.692   2.482  -0.007  0.00  0.00    +0.025 A 
ATOM      5  C   LIG    1        8.058   2.283   0.021  0.00  0.00    +0.019 A 
ATOM      6 BR   LIG    1        8.760   0.531  -0.099  0.00  0.00    -0.050 Br
ATOM      7  C   LIG    1        8.915   3.366   0.137  0.00  0.00    +0.017 A 
ATOM      8  C   LIG    1        8.418   4.651   0.225  0.00  0.00    +0.025 A 
ATOM      9  C   LIG    1        7.046   4.873   0.199  0.00  0.00    +0.042 A 
ATOM     10  N   LIG    1        6.299   6.045   0.270  0.00  0.00    -0.281 N 
ATOM     11  H   LIG    1        6.807   7.016   0.370  0.00  0.00    +0.155 HD
ATOM     12  C   LIG    1        4.981   5.793   0.200  0.00  0.00    +0.249 C 
ATOM     13  O   LIG    1        4.091   6.619   0.232  0.00  0.00    -0.270 OA
ENDROOT
BRANCH   1  14
ATOM     14  C   LIG    1        3.593   2.213   0.378  0.00  0.00    +0.187 C 
ATOM     15  O   LIG    1        4.558   1.695   0.907  0.00  0.00    -0.287 OA
BRANCH  14  19
ATOM     16  C   LIG    1        0.083  -0.070  -0.339  0.00  0.00    +0.000 A 
ATOM     17  C   LIG    1        0.126   1.264  -0.709  0.00  0.00    +0.001 A 
ATOM     18  C   LIG    1        1.262   2.011  -0.479  0.00  0.00    +0.012 A 
ATOM     19  C   LIG    1        2.372   1.419   0.129  0.00  0.00    +0.022 A 
ATOM     20  C   LIG    1        2.322   0.073   0.500  0.00  0.00    +0.012 A 
ATOM     21  C   LIG    1        1.179  -0.662   0.264  0.00  0.00    +0.001 A 
ENDBRANCH  14  19
ENDBRANCH   1  14
TORSDOF 2
