REMARK  Name = ZINC02568229
REMARK                            x       y       z     vdW  Elec       q    Type
REMARK                         _______ _______ _______ _____ _____    ______ ____
ROOT
ATOM      1  C   LIG    1       -1.141   3.222  -0.419  0.00  0.00    +0.162 A 
ATOM      2  C   LIG    1       -0.050   4.039  -0.203  0.00  0.00    +0.057 A 
ATOM      3  C   LIG    1        1.243   3.497  -0.226  0.00  0.00    -0.020 A 
ATOM      4  C   LIG    1        1.419   2.127  -0.468  0.00  0.00    +0.016 A 
ATOM      5  C   LIG    1        0.324   1.321  -0.683  0.00  0.00    +0.008 A 
ATOM      6  C   LIG    1       -0.956   1.861  -0.665  0.00  0.00    +0.163 A 
ENDROOT
BRANCH   1   8
ATOM      7  C   LIG    1       -2.512   5.146  -0.146  0.00  0.00    +0.277 C 
ATOM      8  O   LIG    1       -2.396   3.744  -0.398  0.00  0.00    -0.491 OA
ENDBRANCH   1   8
BRANCH   3   9
ATOM      9  C   LIG    1        2.405   4.358   0.002  0.00  0.00    +0.032 C 
ATOM     10  C   LIG    1        3.504   3.868   0.673  0.00  0.00    +0.114 C 
BRANCH  10  11
ATOM     11  C   LIG    1        4.733   4.673   0.757  0.00  0.00    +0.252 C 
ATOM     12  N   LIG    1        5.808   4.194   1.414  0.00  0.00    -0.325 N 
ATOM     13  H   LIG    1        6.619   4.724   1.469  0.00  0.00    +0.145 HD
ATOM     14  H   LIG    1        5.772   3.319   1.830  0.00  0.00    +0.145 HD
ATOM     15  O   LIG    1        4.778   5.771   0.235  0.00  0.00    -0.270 OA
ENDBRANCH  10  11
BRANCH  10  16
ATOM     16  C   LIG    1        3.451   2.576   1.288  0.00  0.00    +0.104 C 
ATOM     17  N   LIG    1        3.408   1.551   1.776  0.00  0.00    -0.191 NA
ENDBRANCH  10  16
ENDBRANCH   3   9
BRANCH   6  18
ATOM     18  O   LIG    1       -2.031   1.061  -0.883  0.00  0.00    -0.503 OA
ATOM     19  H   LIG    1       -2.398   0.668  -0.079  0.00  0.00    +0.292 HD
ENDBRANCH   6  18
BRANCH   5  20
ATOM     20  C   LIG    1        0.515  -0.151  -0.943  0.00  0.00    +0.113 C 
BRANCH  20  21
ATOM     21  S   LIG    1        0.491  -1.052   0.631  0.00  0.00    -0.120 S 
BRANCH  21  22
ATOM     22  C   LIG    1        0.723  -2.735   0.163  0.00  0.00    +0.008 A 
ATOM     23  C   LIG    1        0.865  -3.072  -1.178  0.00  0.00    +0.015 A 
ATOM     24  C   LIG    1        1.053  -4.391  -1.540  0.00  0.00    +0.001 A 
ATOM     25  C   LIG    1        1.088  -5.378  -0.572  0.00  0.00    +0.000 A 
ATOM     26  C   LIG    1        0.941  -5.047   0.763  0.00  0.00    +0.001 A 
ATOM     27  C   LIG    1        0.759  -3.729   1.133  0.00  0.00    +0.015 A 
ENDBRANCH  21  22
ENDBRANCH  20  21
ENDBRANCH   5  20
TORSDOF 8
