REMARK  Name = ZINC02575702
REMARK                            x       y       z     vdW  Elec       q    Type
REMARK                         _______ _______ _______ _____ _____    ______ ____
ROOT
ATOM      1  C   LIG    1        5.741   0.602  -0.237  0.00  0.00    +0.082 C 
ATOM      2  C   LIG    1        7.123   0.559  -0.267  0.00  0.00    +0.099 C 
ENDROOT
BRANCH   1   3
ATOM      3  N   LIG    1        5.091   1.815  -0.209  0.00  0.00    -0.352 N 
ATOM      4  H   LIG    1        5.510   2.599  -0.597  0.00  0.00    +0.143 HD
ATOM      5  H   LIG    1        4.213   1.886   0.198  0.00  0.00    +0.143 HD
ENDBRANCH   1   3
BRANCH   2   6
ATOM      6  C   LIG    1        7.910   1.803  -0.066  0.00  0.00    +0.099 C 
ATOM      7  C   LIG    1        9.284   1.786  -0.226  0.00  0.00    +0.082 C 
BRANCH   7   8
ATOM      8  N   LIG    1       10.013   2.939  -0.040  0.00  0.00    -0.352 N 
ATOM      9  H   LIG    1       10.966   2.945  -0.222  0.00  0.00    +0.143 HD
ATOM     10  H   LIG    1        9.574   3.745   0.273  0.00  0.00    +0.143 HD
ENDBRANCH   7   8
BRANCH   6  11
ATOM     11  C   LIG    1        7.246   3.020   0.291  0.00  0.00    +0.103 C 
ATOM     12  N   LIG    1        6.719   3.986   0.575  0.00  0.00    -0.191 NA
ENDBRANCH   6  11
BRANCH   7  13
ATOM     13  S   LIG    1       10.101   0.288  -0.666  0.00  0.00    -0.072 S 
BRANCH  13  14
ATOM     14  C   LIG    1       11.031  -0.129   0.772  0.00  0.00    +0.035 A 
ATOM     15  C   LIG    1       10.899   0.626   1.929  0.00  0.00    +0.017 A 
ATOM     16  C   LIG    1       11.629   0.297   3.056  0.00  0.00    +0.001 A 
ATOM     17  C   LIG    1       12.492  -0.783   3.034  0.00  0.00    +0.002 A 
ATOM     18  C   LIG    1       12.630  -1.541   1.886  0.00  0.00    +0.024 A 
ATOM     19  C   LIG    1       11.898  -1.222   0.752  0.00  0.00    +0.039 A 
BRANCH  19  20
ATOM     20  N   LIG    1       12.032  -1.990  -0.409  0.00  0.00    -0.357 N 
ATOM     21  H   LIG    1       12.635  -2.750  -0.421  0.00  0.00    +0.142 HD
ATOM     22  H   LIG    1       11.522  -1.763  -1.202  0.00  0.00    +0.142 HD
ENDBRANCH  19  20
ENDBRANCH  13  14
ENDBRANCH   7  13
ENDBRANCH   2   6
BRANCH   2  23
ATOM     23  C   LIG    1        7.796  -0.685  -0.490  0.00  0.00    +0.103 C 
ATOM     24  N   LIG    1        8.330  -1.673  -0.667  0.00  0.00    -0.191 NA
ENDBRANCH   2  23
BRANCH   1  25
ATOM     25  S   LIG    1        4.813  -0.895  -0.235  0.00  0.00    -0.072 S 
BRANCH  25  29
ATOM     26  C   LIG    1        2.779  -0.928  -4.287  0.00  0.00    +0.002 A 
ATOM     27  C   LIG    1        3.524   0.169  -3.894  0.00  0.00    +0.001 A 
ATOM     28  C   LIG    1        4.145   0.181  -2.659  0.00  0.00    +0.017 A 
ATOM     29  C   LIG    1        4.022  -0.908  -1.810  0.00  0.00    +0.035 A 
ATOM     30  C   LIG    1        3.270  -2.015  -2.206  0.00  0.00    +0.039 A 
ATOM     31  C   LIG    1        2.650  -2.019  -3.447  0.00  0.00    +0.024 A 
BRANCH  30  32
ATOM     32  N   LIG    1        3.141  -3.117  -1.354  0.00  0.00    -0.357 N 
ATOM     33  H   LIG    1        2.618  -3.886  -1.631  0.00  0.00    +0.142 HD
ATOM     34  H   LIG    1        3.575  -3.113  -0.486  0.00  0.00    +0.142 HD
ENDBRANCH  30  32
ENDBRANCH  25  29
ENDBRANCH   1  25
TORSDOF 11
