REMARK  Name = ZINC02836012
REMARK                            x       y       z     vdW  Elec       q    Type
REMARK                         _______ _______ _______ _____ _____    ______ ____
ROOT
ATOM      1  C   LIG    1        1.297  -1.026   9.508  0.00  0.00    +0.028 C 
ATOM      2  C   LIG    1        1.966  -1.600   8.257  0.00  0.00    +0.081 C 
ATOM      3  C   LIG    1        1.809  -3.123   8.243  0.00  0.00    +0.050 C 
ATOM      4  C   LIG    1        0.322  -3.469   8.318  0.00  0.00    +0.115 C 
ATOM      5  C   LIG    1       -0.449  -2.713   7.269  0.00  0.00    -0.005 A 
ATOM      6  C   LIG    1       -1.694  -3.183   6.884  0.00  0.00    +0.007 A 
ATOM      7  C   LIG    1       -2.430  -2.506   5.931  0.00  0.00    +0.000 A 
ATOM      8  C   LIG    1       -1.928  -1.354   5.354  0.00  0.00    +0.002 A 
ATOM      9  C   LIG    1       -0.687  -0.880   5.730  0.00  0.00    +0.024 A 
ATOM     10  C   LIG    1        0.056  -1.560   6.689  0.00  0.00    +0.042 A 
ATOM     11  N   LIG    1        1.315  -1.065   7.054  0.00  0.00    -0.264 N 
ATOM     12  C   LIG    1        1.920  -0.117   6.311  0.00  0.00    +0.251 C 
ATOM     13  O   LIG    1        1.347   0.362   5.353  0.00  0.00    -0.270 OA
ENDROOT
BRANCH  12  14
ATOM     14  C   LIG    1        3.282   0.339   6.662  0.00  0.00    +0.037 A 
ATOM     15  C   LIG    1        4.157   0.767   5.662  0.00  0.00    +0.013 A 
ATOM     16  C   LIG    1        5.426   1.191   5.997  0.00  0.00    +0.005 A 
ATOM     17  C   LIG    1        5.833   1.192   7.319  0.00  0.00    -0.042 A 
ATOM     18  C   LIG    1        4.972   0.764   8.314  0.00  0.00    +0.005 A 
ATOM     19  C   LIG    1        3.698   0.343   7.994  0.00  0.00    +0.013 A 
BRANCH  17  20
ATOM     20  C   LIG    1        7.221   1.657   7.676  0.00  0.00    -0.013 C 
ATOM     21  C   LIG    1        7.417   1.560   9.191  0.00  0.00    +0.015 C 
ATOM     22  C   LIG    1        8.252   0.772   6.972  0.00  0.00    +0.015 C 
ATOM     23  C   LIG    1        7.404   3.109   7.230  0.00  0.00    +0.015 C 
ENDBRANCH  17  20
ENDBRANCH  12  14
BRANCH   4  24
ATOM     24  N   LIG    1        0.150  -4.908   8.101  0.00  0.00    -0.264 N 
ATOM     25  C   LIG    1        0.611  -5.479   6.971  0.00  0.00    +0.217 C 
ATOM     26  C   LIG    1        0.537  -6.974   6.797  0.00  0.00    +0.109 C 
ATOM     27  O   LIG    1        1.085  -4.789   6.093  0.00  0.00    -0.276 OA
BRANCH  24  28
ATOM     28  C   LIG    1       -0.492  -5.689   9.068  0.00  0.00    +0.037 A 
ATOM     29  C   LIG    1       -1.608  -6.442   8.726  0.00  0.00    +0.023 A 
ATOM     30  C   LIG    1       -2.236  -7.216   9.681  0.00  0.00    +0.002 A 
ATOM     31  C   LIG    1       -1.762  -7.234  10.980  0.00  0.00    +0.000 A 
ATOM     32  C   LIG    1       -0.655  -6.482  11.326  0.00  0.00    +0.002 A 
ATOM     33  C   LIG    1       -0.018  -5.709  10.374  0.00  0.00    +0.023 A 
ENDBRANCH  24  28
ENDBRANCH   4  24
TORSDOF 4
