REMARK  Name = ZINC02539813
REMARK                            x       y       z     vdW  Elec       q    Type
REMARK                         _______ _______ _______ _____ _____    ______ ____
ROOT
ATOM      1  C   LIG    1       -0.017   1.397   0.010  0.00  0.00    +0.015 A 
ATOM      2  C   LIG    1        1.146   2.109   0.002  0.00  0.00    +0.027 A 
ATOM      3  C   LIG    1        2.373   1.448  -0.013  0.00  0.00    +0.047 A 
ATOM      4  C   LIG    1        2.405   0.039  -0.021  0.00  0.00    +0.003 A 
ATOM      5  C   LIG    1        3.823  -0.333  -0.037  0.00  0.00    -0.024 A 
ATOM      6  C   LIG    1        4.527   0.810  -0.038  0.00  0.00    +0.087 A 
ATOM      7  C   LIG    1        1.216  -0.685  -0.013  0.00  0.00    +0.023 A 
ATOM      8  N   LIG    1        3.676   1.883  -0.024  0.00  0.00    -0.360 N 
ATOM      9  H   LIG    1        3.953   2.812  -0.021  0.00  0.00    +0.165 HD
ATOM     10  C   LIG    1        0.002  -0.004   0.002  0.00  0.00    +0.037 A 
ENDROOT
BRANCH  10  11
ATOM     11  C   LIG    1       -1.267  -0.759   0.011  0.00  0.00    +0.242 C 
ATOM     12  N   LIG    1       -2.443  -0.101   0.026  0.00  0.00    -0.325 N 
ATOM     13  H   LIG    1       -3.276  -0.597   0.032  0.00  0.00    +0.145 HD
ATOM     14  H   LIG    1       -2.455   0.869   0.031  0.00  0.00    +0.145 HD
ATOM     15  O   LIG    1       -1.251  -1.975   0.004  0.00  0.00    -0.270 OA
ENDBRANCH  10  11
BRANCH   5  16
ATOM     16  C   LIG    1        4.384  -1.731  -0.050  0.00  0.00    +0.018 C 
BRANCH  16  17
ATOM     17  C   LIG    1        4.442  -2.244  -1.490  0.00  0.00    -0.082 C 
BRANCH  17  18
ATOM     18  N   LIG    1        4.988  -3.608  -1.503  0.00  0.00    +0.378 N 
ATOM     19  H   LIG    1        5.027  -3.946  -2.452  0.00  0.00    -0.090 HD
ATOM     20  H   LIG    1        4.396  -4.213  -0.954  0.00  0.00    -0.090 HD
ATOM     21  H   LIG    1        5.918  -3.601  -1.110  0.00  0.00    -0.090 HD
ENDBRANCH  17  18
ENDBRANCH  16  17
ENDBRANCH   5  16
TORSDOF 4
