REMARK  Name = ZINC02722303
REMARK                            x       y       z     vdW  Elec       q    Type
REMARK                         _______ _______ _______ _____ _____    ______ ____
ROOT
ATOM      1  C   LIG    1       -6.291  -5.407   0.001  0.00  0.00    +0.114 A 
ATOM      2  C   LIG    1       -7.091  -5.863   0.978  0.00  0.00    +0.114 A 
ATOM      3  N   LIG    1       -7.620  -7.074   0.621  0.00  0.00    -0.340 N 
ATOM      4  C   LIG    1       -7.162  -7.436  -0.626  0.00  0.00    +0.051 A 
ATOM      5  C   LIG    1       -7.379  -8.540  -1.443  0.00  0.00    +0.026 A 
ATOM      6  C   LIG    1       -6.772  -8.608  -2.678  0.00  0.00    +0.002 A 
ATOM      7  C   LIG    1       -5.934  -7.590  -3.111  0.00  0.00    +0.001 A 
ATOM      8  C   LIG    1       -5.703  -6.498  -2.323  0.00  0.00    +0.012 A 
ATOM      9  C   LIG    1       -6.314  -6.405  -1.072  0.00  0.00    +0.025 A 
ENDROOT
BRANCH   1  10
ATOM     10  S   LIG    1       -5.390  -3.893   0.006  0.00  0.00    +0.007 S 
ATOM     11  O   LIG    1       -5.729  -3.266  -1.224  0.00  0.00    -0.169 OA
ATOM     12  O   LIG    1       -5.717  -3.280   1.245  0.00  0.00    -0.169 OA
BRANCH  10  13
ATOM     13  C   LIG    1       -3.646  -4.389  -0.006  0.00  0.00    +0.267 C 
BRANCH  13  16
ATOM     14  N   LIG    1       -1.432  -3.285  -0.010  0.00  0.00    -0.266 N 
ATOM     15  H   LIG    1       -1.027  -4.166  -0.017  0.00  0.00    +0.156 HD
ATOM     16  C   LIG    1       -2.774  -3.159  -0.003  0.00  0.00    +0.240 C 
ATOM     17  O   LIG    1       -3.280  -2.057   0.006  0.00  0.00    -0.274 OA
BRANCH  14  21
ATOM     18  C   LIG    1       -0.018   1.503   0.010  0.00  0.00    +0.089 C 
ATOM     19  C   LIG    1        0.002  -0.004   0.002  0.00  0.00    +0.136 A 
ATOM     20  C   LIG    1       -1.076  -0.808   0.003  0.00  0.00    +0.091 A 
ATOM     21  C   LIG    1       -0.625  -2.147  -0.007  0.00  0.00    +0.168 A 
ATOM     22  N   LIG    1        0.683  -2.130  -0.013  0.00  0.00    -0.063 NA
ATOM     23  O   LIG    1        1.100  -0.776  -0.013  0.00  0.00    -0.358 OA
ENDBRANCH  14  21
ENDBRANCH  13  16
ENDBRANCH  10  13
ENDBRANCH   1  10
BRANCH   3  24
ATOM     24  C   LIG    1       -8.538  -7.867   1.443  0.00  0.00    +0.158 C 
BRANCH  24  25
ATOM     25  C   LIG    1       -7.754  -8.883   2.233  0.00  0.00    -0.009 A 
ATOM     26  C   LIG    1       -7.598 -10.167   1.746  0.00  0.00    +0.007 A 
ATOM     27  C   LIG    1       -6.878 -11.099   2.470  0.00  0.00    +0.000 A 
ATOM     28  C   LIG    1       -6.315 -10.747   3.683  0.00  0.00    +0.001 A 
ATOM     29  C   LIG    1       -6.471  -9.464   4.171  0.00  0.00    +0.020 A 
ATOM     30  C   LIG    1       -7.186  -8.529   3.444  0.00  0.00    +0.046 A 
ATOM     31 CL   LIG    1       -7.376  -6.915   4.054  0.00  0.00    -0.083 Cl
ENDBRANCH  24  25
ENDBRANCH   3  24
TORSDOF 6
