REMARK  Name = ZINC02391789
REMARK                            x       y       z     vdW  Elec       q    Type
REMARK                         _______ _______ _______ _____ _____    ______ ____
ROOT
ATOM      1  C   LIG    1       -1.223   1.748   0.017  0.00  0.00    +0.016 A 
ATOM      2  C   LIG    1       -0.013   1.076   0.008  0.00  0.00    +0.022 A 
ATOM      3  C   LIG    1        1.179   1.780   0.000  0.00  0.00    +0.002 A 
ATOM      4  C   LIG    1        1.168   3.159   0.007  0.00  0.00    +0.012 A 
ATOM      5  C   LIG    1       -0.050   3.846   0.022  0.00  0.00    +0.028 A 
ATOM      6  C   LIG    1       -1.250   3.126   0.030  0.00  0.00    +0.033 A 
ENDROOT
BRANCH   1   8
ATOM      7  C   LIG    1       -2.126  -0.412   0.010  0.00  0.00    +0.109 C 
ATOM      8  N   LIG    1       -2.421   1.027   0.019  0.00  0.00    -0.390 NA
ATOM      9  C   LIG    1       -3.203   1.374  -1.175  0.00  0.00    +0.109 C 
ATOM     10  C   LIG    1       -3.191   1.361   1.224  0.00  0.00    +0.109 C 
ENDBRANCH   1   8
BRANCH   5  11
ATOM     11  C   LIG    1       -0.070   5.317   0.029  0.00  0.00    +0.265 C 
ATOM     12  O   LIG    1       -1.128   5.909   0.042  0.00  0.00    -0.283 OA
BRANCH  11  13
ATOM     13  C   LIG    1        1.225   6.088   0.021  0.00  0.00    +0.455 C 
ATOM     14  F   LIG    1        1.952   5.766  -1.130  0.00  0.00    -0.163 F 
ATOM     15  F   LIG    1        1.973   5.755   1.155  0.00  0.00    -0.163 F 
ATOM     16  F   LIG    1        0.950   7.460   0.031  0.00  0.00    -0.163 F 
ENDBRANCH  11  13
ENDBRANCH   5  11
TORSDOF 3
