REMARK  Name = ZINC02569810
REMARK                            x       y       z     vdW  Elec       q    Type
REMARK                         _______ _______ _______ _____ _____    ______ ____
ROOT
ATOM      1  N   PHE A  1       -0.747   1.594   3.535  0.00  0.00    -0.271 N 
ATOM      2  H   PHE A  1       -1.546   2.143   3.507  0.00  0.00    +0.153 HD
ATOM      3  C   UNK A  0       -0.165   1.193   2.387  0.00  0.00    +0.401 C 
ATOM      4  O   UNK A  0        0.837   0.505   2.422  0.00  0.00    -0.226 OA
ENDROOT
BRANCH   1   5
ATOM      5  CA  PHE A  1       -0.172   1.201   4.824  0.00  0.00    +0.143 C 
BRANCH   5   6
ATOM      6  C   PHE A  1       -0.687  -0.162   5.209  0.00  0.00    +0.245 C 
ATOM      7  O   PHE A  1       -1.454  -0.745   4.481  0.00  0.00    -0.299 OA
ENDBRANCH   5   6
BRANCH   5   8
ATOM      8  CB  PHE A  1       -0.575   2.219   5.893  0.00  0.00    +0.065 C 
BRANCH   8  12
ATOM      9  CZ  PHE A  1        1.175   6.008   4.985  0.00  0.00    +0.000 A 
ATOM     10  CE1 PHE A  1       -0.075   5.687   4.489  0.00  0.00    +0.000 A 
ATOM     11  CD1 PHE A  1       -0.641   4.461   4.783  0.00  0.00    +0.004 A 
ATOM     12  CG  PHE A  1        0.042   3.555   5.572  0.00  0.00    -0.045 A 
ATOM     13  CD2 PHE A  1        1.290   3.878   6.073  0.00  0.00    +0.004 A 
ATOM     14  CE2 PHE A  1        1.859   5.103   5.774  0.00  0.00    +0.000 A 
ENDBRANCH   8  12
ENDBRANCH   5   8
ENDBRANCH   1   5
BRANCH   3  15
ATOM     15  O   UNK A  0       -0.692   1.554   1.203  0.00  0.00    -0.446 OA
BRANCH  15  16
ATOM     16  C   UNK A  0       -0.013   1.086   0.008  0.00  0.00    +0.269 C 
BRANCH  16  17
ATOM     17  C   UNK A  0       -0.742   1.585  -1.213  0.00  0.00    -0.010 A 
ATOM     18  C   UNK A  0       -1.750   0.825  -1.775  0.00  0.00    +0.007 A 
ATOM     19  C   UNK A  0       -2.422   1.285  -2.892  0.00  0.00    +0.000 A 
ATOM     20  C   UNK A  0       -2.079   2.501  -3.453  0.00  0.00    +0.000 A 
ATOM     21  C   UNK A  0       -1.066   3.259  -2.894  0.00  0.00    +0.000 A 
ATOM     22  C   UNK A  0       -0.398   2.801  -1.774  0.00  0.00    +0.007 A 
ENDBRANCH  16  17
ENDBRANCH  15  16
ENDBRANCH   3  15
TORSDOF 7
