REMARK  Name = ZINC02652324
REMARK                            x       y       z     vdW  Elec       q    Type
REMARK                         _______ _______ _______ _____ _____    ______ ____
ROOT
ATOM      1  C   LIG    1       -5.761  -3.644   0.005  0.00  0.00    +0.186 C 
ENDROOT
BRANCH   1   2
ATOM      2  N   LIG    1       -7.189  -3.970   0.009  0.00  0.00    -0.298 N 
ATOM      3  H   LIG    1       -7.830  -3.338   0.370  0.00  0.00    +0.150 HD
ATOM      4  C   LIG    1       -7.612  -5.149  -0.489  0.00  0.00    +0.245 C 
ATOM      5  O   LIG    1       -6.809  -5.941  -0.942  0.00  0.00    -0.270 OA
BRANCH   4   6
ATOM      6  C   LIG    1       -9.053  -5.477  -0.485  0.00  0.00    +0.037 A 
ATOM      7  C   LIG    1       -9.977  -4.571   0.039  0.00  0.00    +0.016 A 
ATOM      8  C   LIG    1      -11.320  -4.880   0.034  0.00  0.00    +0.039 A 
ATOM      9  C   LIG    1      -11.753  -6.094  -0.478  0.00  0.00    +0.123 A 
ATOM     10  F   LIG    1      -13.070  -6.394  -0.475  0.00  0.00    -0.205 F 
ATOM     11  C   LIG    1      -10.839  -7.000  -0.995  0.00  0.00    +0.039 A 
ATOM     12  C   LIG    1       -9.494  -6.698  -1.000  0.00  0.00    +0.016 A 
ENDBRANCH   4   6
ENDBRANCH   1   2
BRANCH   1  13
ATOM     13  C   LIG    1       -5.587  -2.147   0.013  0.00  0.00    +0.328 C 
ATOM     14  O   LIG    1       -6.557  -1.426   0.020  0.00  0.00    -0.249 OA
BRANCH  13  15
ATOM     15  O   LIG    1       -4.355  -1.614   0.011  0.00  0.00    -0.454 OA
BRANCH  15  16
ATOM     16  C   LIG    1       -4.264  -0.165   0.018  0.00  0.00    +0.328 C 
BRANCH  16  19
ATOM     17  N   LIG    1       -2.485   1.554   0.020  0.00  0.00    -0.265 N 
ATOM     18  H   LIG    1       -3.181   2.229   0.027  0.00  0.00    +0.156 HD
ATOM     19  C   LIG    1       -2.814   0.247   0.015  0.00  0.00    +0.256 C 
ATOM     20  O   LIG    1       -1.944  -0.597   0.006  0.00  0.00    -0.272 OA
BRANCH  17  24
ATOM     21  C   LIG    1        2.500   1.546  -0.014  0.00  0.00    +0.089 C 
ATOM     22  C   LIG    1        1.041   1.923   0.002  0.00  0.00    +0.136 A 
ATOM     23  C   LIG    1       -0.013   1.076   0.008  0.00  0.00    +0.091 A 
ATOM     24  C   LIG    1       -1.143   1.935   0.017  0.00  0.00    +0.168 A 
ATOM     25  N   LIG    1       -0.674   3.155   0.025  0.00  0.00    -0.063 NA
ATOM     26  O   LIG    1        0.535   3.165   0.014  0.00  0.00    -0.358 OA
ENDBRANCH  17  24
ENDBRANCH  16  19
ENDBRANCH  15  16
ENDBRANCH  13  15
ENDBRANCH   1  13
BRANCH   1  27
ATOM     27  C   LIG    1       -5.098  -4.240   1.248  0.00  0.00    +0.071 C 
BRANCH  27  28
ATOM     28  C   LIG    1       -5.164  -5.744   1.180  0.00  0.00    -0.020 A 
ATOM     29  C   LIG    1       -6.096  -6.529   1.744  0.00  0.00    +0.087 A 
ATOM     30  N   LIG    1       -5.830  -7.842   1.466  0.00  0.00    -0.360 N 
ATOM     31  C   LIG    1       -4.687  -7.937   0.704  0.00  0.00    +0.047 A 
ATOM     32  C   LIG    1       -3.984  -9.008   0.161  0.00  0.00    +0.026 A 
ATOM     33  C   LIG    1       -2.843  -8.774  -0.576  0.00  0.00    +0.002 A 
ATOM     34  C   LIG    1       -2.386  -7.480  -0.783  0.00  0.00    +0.001 A 
ATOM     35  C   LIG    1       -3.061  -6.414  -0.258  0.00  0.00    +0.010 A 
ATOM     36  H   LIG    1       -6.365  -8.594   1.764  0.00  0.00    +0.165 HD
ATOM     37  C   LIG    1       -4.219  -6.627   0.492  0.00  0.00    +0.003 A 
ENDBRANCH  27  28
ENDBRANCH   1  27
TORSDOF 9
