REMARK  Name = ZINC03613329
REMARK                            x       y       z     vdW  Elec       q    Type
REMARK                         _______ _______ _______ _____ _____    ______ ____
ROOT
ATOM      1  N   LIG    1       -6.272  -1.191   4.985  0.00  0.00    +0.382 N 
ATOM      2  H   LIG    1       -6.617  -1.889   4.316  0.00  0.00    -0.081 HD
ATOM      3  C   LIG    1       -4.795  -1.235   5.006  0.00  0.00    -0.077 C 
ATOM      4  C   LIG    1       -4.271  -1.021   3.584  0.00  0.00    +0.003 C 
ATOM      5  C   LIG    1       -4.739   0.344   3.073  0.00  0.00    +0.069 C 
ATOM      6  C   LIG    1       -6.268   0.403   3.126  0.00  0.00    +0.003 C 
ATOM      7  C   LIG    1       -6.734   0.148   4.561  0.00  0.00    -0.077 C 
ENDROOT
BRANCH   5   8
ATOM      8  N   LIG    1       -4.290   0.529   1.690  0.00  0.00    -0.312 N 
ATOM      9  H   LIG    1       -4.881   0.305   0.954  0.00  0.00    +0.149 HD
ATOM     10  C   LIG    1       -3.056   1.011   1.442  0.00  0.00    +0.218 C 
ATOM     11  O   LIG    1       -2.318   1.291   2.362  0.00  0.00    -0.275 OA
BRANCH  10  12
ATOM     12  C   LIG    1       -2.594   1.202   0.020  0.00  0.00    +0.138 C 
BRANCH  12  13
ATOM     13  C   LIG    1       -1.190   1.748   0.017  0.00  0.00    -0.001 A 
ATOM     14  C   LIG    1       -0.013   1.076   0.008  0.00  0.00    +0.011 A 
ATOM     15  C   LIG    1        1.169   1.793   0.001  0.00  0.00    +0.008 A 
ATOM     16  C   LIG    1        1.115   3.148   0.008  0.00  0.00    +0.045 A 
ATOM     17  S   LIG    1       -0.644   3.448   0.027  0.00  0.00    -0.101 S 
ENDBRANCH  12  13
ENDBRANCH  10  12
ENDBRANCH   5   8
BRANCH   1  18
ATOM     18  C   LIG    1       -6.806  -1.507   6.326  0.00  0.00    -0.043 C 
BRANCH  18  22
ATOM     19  C   LIG    1       -5.956  -5.598   7.214  0.00  0.00    +0.000 A 
ATOM     20  C   LIG    1       -5.059  -4.611   7.579  0.00  0.00    +0.000 A 
ATOM     21  C   LIG    1       -5.334  -3.288   7.291  0.00  0.00    +0.002 A 
ATOM     22  C   LIG    1       -6.506  -2.950   6.639  0.00  0.00    -0.064 A 
ATOM     23  C   LIG    1       -7.405  -3.937   6.279  0.00  0.00    +0.002 A 
ATOM     24  C   LIG    1       -7.128  -5.261   6.562  0.00  0.00    +0.000 A 
ENDBRANCH  18  22
ENDBRANCH   1  18
TORSDOF 5
