REMARK  Name = ZINC02895814
REMARK                            x       y       z     vdW  Elec       q    Type
REMARK                         _______ _______ _______ _____ _____    ______ ____
ROOT
ATOM      1  N   LIG    1        1.484  -2.515  -2.466  0.00  0.00    -0.224 N 
ATOM      2  C   LIG    1        2.806  -2.765  -2.559  0.00  0.00    +0.244 C 
ATOM      3  C   LIG    1        3.044  -3.209  -3.988  0.00  0.00    +0.169 C 
ATOM      4  C   LIG    1        3.561  -4.653  -3.999  0.00  0.00    +0.069 C 
ATOM      5  C   LIG    1        3.205  -5.302  -5.313  0.00  0.00    -0.015 A 
ATOM      6  C   LIG    1        3.805  -6.484  -5.903  0.00  0.00    +0.003 A 
ATOM      7  C   LIG    1        4.832  -7.334  -5.480  0.00  0.00    +0.010 A 
ATOM      8  C   LIG    1        5.148  -8.383  -6.307  0.00  0.00    +0.001 A 
ATOM      9  C   LIG    1        4.489  -8.600  -7.506  0.00  0.00    +0.002 A 
ATOM     10  C   LIG    1        3.470  -7.774  -7.949  0.00  0.00    +0.026 A 
ATOM     11  C   LIG    1        3.128  -6.700  -7.130  0.00  0.00    +0.047 A 
ATOM     12  N   LIG    1        2.193  -5.713  -7.256  0.00  0.00    -0.356 N 
ATOM     13  H   LIG    1        1.583  -5.615  -8.004  0.00  0.00    +0.166 HD
ATOM     14  C   LIG    1        2.249  -4.883  -6.169  0.00  0.00    +0.046 A 
ATOM     15  C   LIG    1        1.388  -3.658  -5.932  0.00  0.00    +0.159 C 
ATOM     16  N   LIG    1        1.683  -3.207  -4.566  0.00  0.00    -0.261 N 
ATOM     17  O   LIG    1        3.634  -2.657  -1.680  0.00  0.00    -0.273 OA
ATOM     18  C   LIG    1        0.851  -2.761  -3.623  0.00  0.00    +0.313 C 
ATOM     19  O   LIG    1       -0.341  -2.595  -3.792  0.00  0.00    -0.252 OA
ENDROOT
BRANCH  15  20
ATOM     20  C   LIG    1        1.741  -2.577  -6.921  0.00  0.00    +0.021 A 
ATOM     21  C   LIG    1        2.548  -1.524  -6.537  0.00  0.00    +0.009 A 
ATOM     22  C   LIG    1        2.875  -0.535  -7.445  0.00  0.00    +0.001 A 
ATOM     23  C   LIG    1        2.388  -0.592  -8.738  0.00  0.00    +0.004 A 
ATOM     24  C   LIG    1        1.577  -1.640  -9.126  0.00  0.00    +0.046 A 
ATOM     25  C   LIG    1        1.251  -2.637  -8.218  0.00  0.00    +0.125 A 
BRANCH  25  26
ATOM     26  O   LIG    1        0.453  -3.669  -8.597  0.00  0.00    -0.495 OA
ATOM     27  C   LIG    1       -0.015  -3.665  -9.948  0.00  0.00    +0.277 C 
ENDBRANCH  25  26
ENDBRANCH  15  20
BRANCH   1  28
ATOM     28  C   LIG    1        0.820  -2.040  -1.250  0.00  0.00    +0.118 C 
BRANCH  28  29
ATOM     29  C   LIG    1        0.818  -0.510  -1.235  0.00  0.00    +0.019 C 
BRANCH  29  31
ATOM     30  C   LIG    1        0.122   1.516   0.050  0.00  0.00    +0.004 C 
ATOM     31  C   LIG    1        0.124  -0.014   0.035  0.00  0.00    -0.002 C 
ENDBRANCH  29  31
ENDBRANCH  28  29
ENDBRANCH   1  28
TORSDOF 5
