REMARK  Name = ZINC02539822
REMARK                            x       y       z     vdW  Elec       q    Type
REMARK                         _______ _______ _______ _____ _____    ______ ____
ROOT
ATOM      1  C   LIG    1       -0.017   1.377   0.010  0.00  0.00    +0.038 A 
ATOM      2  C   LIG    1        1.171   2.088   0.002  0.00  0.00    +0.016 A 
ATOM      3  I   LIG    1        1.131   4.182   0.014  0.00  0.00    -0.044 I 
ATOM      4  C   LIG    1        2.384   1.422  -0.013  0.00  0.00    +0.038 A 
ATOM      5  C   LIG    1        2.417   0.042  -0.021  0.00  0.00    +0.085 A 
ATOM      6 CL   LIG    1        3.939  -0.792  -0.042  0.00  0.00    -0.080 Cl
ATOM      7  C   LIG    1        1.223  -0.683  -0.013  0.00  0.00    +0.178 A 
ATOM      8  C   LIG    1        0.002  -0.004   0.002  0.00  0.00    +0.085 A 
ATOM      9 CL   LIG    1       -1.488  -0.894   0.012  0.00  0.00    -0.080 Cl
ENDROOT
BRANCH   7  10
ATOM     10  N   LIG    1        1.248  -2.053  -0.021  0.00  0.00    -0.074 NA
ATOM     11  C   LIG    1        1.272  -2.715   1.112  0.00  0.00    +0.370 C 
ATOM     12  N   LIG    1        1.267  -2.114   2.338  0.00  0.00    -0.235 N 
ATOM     13  H   LIG    1        1.246  -1.157   2.496  0.00  0.00    +0.245 HD
ATOM     14  C   LIG    1        1.298  -3.150   3.380  0.00  0.00    +0.219 C 
ATOM     15  C   LIG    1        1.323  -4.479   2.603  0.00  0.00    +0.219 C 
ATOM     16  N   LIG    1        1.298  -4.079   1.190  0.00  0.00    -0.235 N 
ATOM     17  H   LIG    1        1.303  -4.686   0.433  0.00  0.00    +0.245 HD
ENDBRANCH   7  10
TORSDOF 1
