REMARK  Name = ZINC03242874
REMARK                            x       y       z     vdW  Elec       q    Type
REMARK                         _______ _______ _______ _____ _____    ______ ____
ROOT
ATOM      1  C   LIG    1        3.726  -0.707  -0.034  0.00  0.00    +0.292 C 
ENDROOT
BRANCH   1   5
ATOM      2  C   LIG    1        0.005   1.390   0.043  0.00  0.00    +0.000 A 
ATOM      3  C   LIG    1        1.195   2.094   0.027  0.00  0.00    +0.000 A 
ATOM      4  C   LIG    1        2.399   1.415   0.003  0.00  0.00    +0.008 A 
ATOM      5  C   LIG    1        2.414   0.033  -0.006  0.00  0.00    +0.002 A 
ATOM      6  C   LIG    1        1.224  -0.671   0.011  0.00  0.00    +0.008 A 
ATOM      7  C   LIG    1        0.020   0.008   0.034  0.00  0.00    +0.000 A 
ENDBRANCH   1   5
BRANCH   1   8
ATOM      8  C   LIG    1        4.078  -1.053  -1.458  0.00  0.00    +0.263 C 
ATOM      9  N   LIG    1        4.335  -0.073  -2.345  0.00  0.00    -0.281 N 
ATOM     10  H   LIG    1        4.217   0.856  -2.091  0.00  0.00    +0.155 HD
ATOM     11  O   LIG    1        4.129  -2.214  -1.804  0.00  0.00    -0.271 OA
BRANCH   9  12
ATOM     12  C   LIG    1        4.774  -0.394  -3.635  0.00  0.00    +0.053 A 
ATOM     13  C   LIG    1        5.427  -1.597  -3.869  0.00  0.00    +0.037 A 
ATOM     14  C   LIG    1        5.859  -1.912  -5.142  0.00  0.00    +0.057 A 
ATOM     15  C   LIG    1        5.641  -1.030  -6.186  0.00  0.00    +0.014 A 
ATOM     16  C   LIG    1        4.991   0.169  -5.957  0.00  0.00    +0.022 A 
ATOM     17  C   LIG    1        4.552   0.487  -4.686  0.00  0.00    +0.062 A 
ATOM     18 CL   LIG    1        3.730   1.990  -4.402  0.00  0.00    -0.082 Cl
BRANCH  14  19
ATOM     19  C   LIG    1        6.567  -3.217  -5.396  0.00  0.00    +0.417 C 
ATOM     20  F   LIG    1        7.264  -3.601  -4.245  0.00  0.00    -0.166 F 
ATOM     21  F   LIG    1        7.468  -3.061  -6.455  0.00  0.00    -0.166 F 
ATOM     22  F   LIG    1        5.628  -4.202  -5.723  0.00  0.00    -0.166 F 
ENDBRANCH  14  19
ENDBRANCH   9  12
ENDBRANCH   1   8
BRANCH   1  23
ATOM     23  O   LIG    1        3.613  -1.907   0.734  0.00  0.00    -0.446 OA
BRANCH  23  24
ATOM     24  C   LIG    1        3.919  -1.827   2.039  0.00  0.00    +0.325 C 
ATOM     25  O   LIG    1        4.271  -0.772   2.513  0.00  0.00    -0.249 OA
BRANCH  24  26
ATOM     26  C   LIG    1        3.823  -3.051   2.912  0.00  0.00    +0.225 C 
BRANCH  26  27
ATOM     27  N   LIG    1        4.207  -2.704   4.283  0.00  0.00    -0.301 N 
ATOM     28  H   LIG    1        4.468  -1.796   4.498  0.00  0.00    +0.150 HD
ATOM     29  C   LIG    1        4.196  -3.649   5.245  0.00  0.00    +0.245 C 
ATOM     30  O   LIG    1        3.869  -4.788   4.975  0.00  0.00    -0.270 OA
BRANCH  29  31
ATOM     31  C   LIG    1        4.583  -3.299   6.628  0.00  0.00    +0.037 A 
ATOM     32  C   LIG    1        4.954  -1.990   6.943  0.00  0.00    +0.013 A 
ATOM     33  C   LIG    1        5.313  -1.671   8.236  0.00  0.00    +0.001 A 
ATOM     34  C   LIG    1        5.307  -2.644   9.220  0.00  0.00    +0.000 A 
ATOM     35  C   LIG    1        4.941  -3.942   8.914  0.00  0.00    +0.001 A 
ATOM     36  C   LIG    1        4.573  -4.274   7.626  0.00  0.00    +0.013 A 
ENDBRANCH  29  31
ENDBRANCH  26  27
ENDBRANCH  24  26
ENDBRANCH  23  24
ENDBRANCH   1  23
TORSDOF 9
