REMARK  Name = ZINC03141002
REMARK                            x       y       z     vdW  Elec       q    Type
REMARK                         _______ _______ _______ _____ _____    ______ ____
ROOT
ATOM      1  C   LIG    1       -1.305   2.115   0.020  0.00  0.00    +0.164 A 
ATOM      2  N   LIG    1       -1.307   3.388   0.324  0.00  0.00    -0.227 NA
ATOM      3  C   LIG    1       -2.441   4.114   0.354  0.00  0.00    +0.077 A 
ATOM      4  C   LIG    1       -2.428   5.474   0.681  0.00  0.00    +0.028 A 
ATOM      5  C   LIG    1       -3.597   6.181   0.701  0.00  0.00    +0.002 A 
ATOM      6  C   LIG    1       -4.807   5.569   0.401  0.00  0.00    +0.001 A 
ATOM      7  C   LIG    1       -4.854   4.231   0.076  0.00  0.00    +0.014 A 
ATOM      8  C   LIG    1       -3.673   3.490   0.049  0.00  0.00    +0.045 A 
ATOM      9  C   LIG    1       -3.657   2.063  -0.289  0.00  0.00    +0.169 A 
ATOM     10  N   LIG    1       -4.578   1.182  -0.617  0.00  0.00    -0.194 NA
ATOM     11  C   LIG    1       -4.008  -0.006  -0.828  0.00  0.00    +0.233 A 
ATOM     12  N   LIG    1       -2.710   0.094  -0.640  0.00  0.00    -0.127 NA
ATOM     13  N   LIG    1       -2.446   1.426  -0.295  0.00  0.00    -0.192 N 
ENDROOT
BRANCH   1  17
ATOM     14  C   LIG    1        2.399   0.030  -0.021  0.00  0.00    +0.162 A 
ATOM     15  C   LIG    1        1.205  -0.677  -0.013  0.00  0.00    +0.050 A 
ATOM     16  C   LIG    1        0.002  -0.004   0.002  0.00  0.00    +0.015 A 
ATOM     17  C   LIG    1       -0.017   1.393   0.010  0.00  0.00    +0.023 A 
ATOM     18  C   LIG    1        1.185   2.104   0.002  0.00  0.00    +0.061 A 
ATOM     19  C   LIG    1        2.388   1.423  -0.014  0.00  0.00    +0.162 A 
BRANCH  14  21
ATOM     20  C   LIG    1        3.521  -2.066  -0.044  0.00  0.00    +0.277 C 
ATOM     21  O   LIG    1        3.582  -0.638  -0.036  0.00  0.00    -0.491 OA
ENDBRANCH  14  21
BRANCH  19  22
ATOM     22  O   LIG    1        3.559   2.113  -0.021  0.00  0.00    -0.491 OA
ATOM     23  C   LIG    1        3.473   3.540  -0.013  0.00  0.00    +0.277 C 
ENDBRANCH  19  22
ENDBRANCH   1  17
BRANCH  11  24
ATOM     24  N   LIG    1       -4.682  -1.170  -1.192  0.00  0.00    -0.326 N 
ATOM     25  H   LIG    1       -4.189  -1.994  -1.327  0.00  0.00    +0.145 HD
ATOM     26  H   LIG    1       -5.645  -1.156  -1.311  0.00  0.00    +0.145 HD
ENDBRANCH  11  24
TORSDOF 4
