REMARK  Name = ZINC02443701
REMARK                            x       y       z     vdW  Elec       q    Type
REMARK                         _______ _______ _______ _____ _____    ______ ____
ROOT
ATOM      1  C   LIG    1        2.123  -3.565  -0.059  0.00  0.00    +0.051 A 
ATOM      2  C   LIG    1        3.470  -3.234  -0.080  0.00  0.00    +0.025 A 
ATOM      3  C   LIG    1        4.426  -4.232  -0.104  0.00  0.00    +0.002 A 
ATOM      4  C   LIG    1        4.045  -5.561  -0.109  0.00  0.00    +0.002 A 
ATOM      5  C   LIG    1        2.705  -5.900  -0.088  0.00  0.00    +0.025 A 
ATOM      6  C   LIG    1        1.739  -4.906  -0.058  0.00  0.00    +0.055 A 
ENDROOT
BRANCH   1  12
ATOM      7  C   LIG    1        0.005   1.466   0.010  0.00  0.00    -0.096 C 
ATOM      8  N   LIG    1        0.020  -0.003   0.003  0.00  0.00    +0.380 N 
ATOM      9  H   LIG    1       -0.928  -0.348   0.020  0.00  0.00    -0.082 HD
ATOM     10  C   LIG    1        0.687  -0.477  -1.216  0.00  0.00    -0.060 C 
ATOM     11  C   LIG    1        0.602  -2.006  -1.282  0.00  0.00    +0.086 C 
ATOM     12  N   LIG    1        1.153  -2.557  -0.034  0.00  0.00    -0.332 N 
ATOM     13  C   LIG    1        0.655  -2.018   1.241  0.00  0.00    +0.086 C 
ATOM     14  C   LIG    1        0.737  -0.489   1.188  0.00  0.00    -0.060 C 
ENDBRANCH   1  12
BRANCH   6  15
ATOM     15  N   LIG    1        0.380  -5.247  -0.031  0.00  0.00    -0.277 N 
ATOM     16  H   LIG    1       -0.283  -4.623  -0.364  0.00  0.00    +0.155 HD
ATOM     17  C   LIG    1       -0.004  -6.444   0.456  0.00  0.00    +0.284 C 
ATOM     18  O   LIG    1        0.815  -7.186   0.965  0.00  0.00    -0.266 OA
BRANCH  17  19
ATOM     19  C   LIG    1       -1.411  -6.851   0.373  0.00  0.00    +0.192 A 
ATOM     20  C   LIG    1       -1.933  -8.027   0.830  0.00  0.00    +0.057 A 
ATOM     21  C   LIG    1       -3.308  -7.995   0.545  0.00  0.00    +0.076 A 
ATOM     22  C   LIG    1       -3.560  -6.816  -0.066  0.00  0.00    +0.276 A 
ATOM     23  O   LIG    1       -2.415  -6.128  -0.163  0.00  0.00    -0.429 OA
BRANCH  22  24
ATOM     24  N   LIG    1       -4.884  -6.359  -0.543  0.00  0.00    +0.043 N 
ATOM     25  O   LIG    1       -5.856  -7.064  -0.398  0.00  0.00    -0.127 OA
BRANCH  24  26
ATOM     26  O   LIG    1       -4.995  -5.281  -1.078  0.00  0.00    -0.394 OA
ATOM     27  H   LIG    1       -4.242  -4.734  -1.190  0.00  0.00    +0.329 HD
ENDBRANCH  24  26
ENDBRANCH  22  24
ENDBRANCH  17  19
ENDBRANCH   6  15
TORSDOF 5
