REMARK  Name = ZINC02560262
REMARK                            x       y       z     vdW  Elec       q    Type
REMARK                         _______ _______ _______ _____ _____    ______ ____
ROOT
ATOM      1  C   LIG    1       -1.979   3.157   0.046  0.00  0.00    +0.059 C 
ATOM      2  C   LIG    1       -2.543   3.821   1.129  0.00  0.00    +0.059 C 
ATOM      3  C   LIG    1       -2.925   5.160   0.634  0.00  0.00    +0.252 C 
ATOM      4  N   LIG    1       -2.600   5.246  -0.667  0.00  0.00    -0.248 N 
ATOM      5  H   LIG    1       -2.752   6.025  -1.224  0.00  0.00    +0.158 HD
ATOM      6  O   LIG    1       -3.450   6.036   1.292  0.00  0.00    -0.270 OA
ATOM      7  C   LIG    1       -2.036   4.101  -1.089  0.00  0.00    +0.252 C 
ATOM      8  O   LIG    1       -1.639   3.881  -2.216  0.00  0.00    -0.270 OA
ENDROOT
BRANCH   1  14
ATOM      9  C   LIG    1        2.378   1.437  -0.013  0.00  0.00    +0.001 A 
ATOM     10  C   LIG    1        2.399   0.050  -0.020  0.00  0.00    +0.002 A 
ATOM     11  C   LIG    1        1.223  -0.670  -0.013  0.00  0.00    +0.026 A 
ATOM     12  C   LIG    1        0.002  -0.004   0.002  0.00  0.00    +0.047 A 
ATOM     13  C   LIG    1       -0.017   1.401   0.010  0.00  0.00    +0.008 A 
ATOM     14  C   LIG    1       -1.439   1.787   0.031  0.00  0.00    +0.013 A 
ATOM     15  C   LIG    1       -2.156   0.628   0.027  0.00  0.00    +0.092 A 
ATOM     16  N   LIG    1       -1.308  -0.436   0.013  0.00  0.00    -0.360 N 
ATOM     17  H   LIG    1       -1.585  -1.366   0.010  0.00  0.00    +0.165 HD
ATOM     18  C   LIG    1        1.179   2.115   0.002  0.00  0.00    +0.010 A 
ENDBRANCH   1  14
BRANCH   2  19
ATOM     19  C   LIG    1       -2.722   3.298   2.493  0.00  0.00    +0.013 A 
ATOM     20  C   LIG    1       -1.751   3.129   3.436  0.00  0.00    +0.092 A 
ATOM     21  N   LIG    1       -2.300   2.626   4.575  0.00  0.00    -0.360 N 
ATOM     22  C   LIG    1       -3.657   2.438   4.409  0.00  0.00    +0.047 A 
ATOM     23  C   LIG    1       -4.659   1.954   5.244  0.00  0.00    +0.026 A 
ATOM     24  C   LIG    1       -5.957   1.881   4.789  0.00  0.00    +0.002 A 
ATOM     25  C   LIG    1       -6.279   2.286   3.501  0.00  0.00    +0.001 A 
ATOM     26  C   LIG    1       -5.301   2.767   2.659  0.00  0.00    +0.010 A 
ATOM     27  H   LIG    1       -1.808   2.424   5.386  0.00  0.00    +0.165 HD
ATOM     28  C   LIG    1       -3.984   2.847   3.106  0.00  0.00    +0.008 A 
ENDBRANCH   2  19
TORSDOF 2
