REMARK  Name = ZINC02599970
REMARK                            x       y       z     vdW  Elec       q    Type
REMARK                         _______ _______ _______ _____ _____    ______ ____
ROOT
ATOM      1  C   LIG    1        2.117  -0.104   1.085  0.00  0.00    -0.046 C 
ENDROOT
BRANCH   1   2
ATOM      2  N   LIG    1        0.709  -0.517   1.150  0.00  0.00    +0.383 N 
ATOM      3  H   LIG    1        0.655  -1.524   1.192  0.00  0.00    -0.085 HD
ATOM      4  H   LIG    1        0.280  -0.122   1.973  0.00  0.00    -0.085 HD
BRANCH   2   6
ATOM      5  C   LIG    1       -0.024   1.490  -0.046  0.00  0.00    -0.013 C 
ATOM      6  C   LIG    1        0.003  -0.039  -0.047  0.00  0.00    -0.071 C 
BRANCH   6   7
ATOM      7  C   LIG    1       -1.431  -0.574  -0.041  0.00  0.00    +0.019 C 
BRANCH   7   8
ATOM      8  C   LIG    1       -1.407  -2.076  -0.165  0.00  0.00    -0.049 A 
ATOM      9  C   LIG    1       -1.432  -2.666  -1.415  0.00  0.00    +0.007 A 
ATOM     10  C   LIG    1       -1.410  -4.042  -1.532  0.00  0.00    +0.046 A 
ATOM     11  C   LIG    1       -1.363  -4.833  -0.393  0.00  0.00    +0.120 A 
ATOM     12  C   LIG    1       -1.338  -4.239   0.861  0.00  0.00    +0.046 A 
ATOM     13  C   LIG    1       -1.354  -2.862   0.972  0.00  0.00    +0.007 A 
BRANCH  11  14
ATOM     14  O   LIG    1       -1.343  -6.187  -0.505  0.00  0.00    -0.495 OA
ATOM     15  C   LIG    1       -1.294  -6.938   0.710  0.00  0.00    +0.277 C 
ENDBRANCH  11  14
ENDBRANCH   7   8
ENDBRANCH   6   7
ENDBRANCH   2   6
ENDBRANCH   1   2
BRANCH   1  16
ATOM     16  C   LIG    1        2.852  -0.601   2.331  0.00  0.00    +0.128 C 
BRANCH  16  17
ATOM     17  C   LIG    1        4.297  -0.177   2.265  0.00  0.00    -0.019 A 
ATOM     18  C   LIG    1        4.669   1.076   2.714  0.00  0.00    +0.010 A 
ATOM     19  C   LIG    1        5.992   1.471   2.655  0.00  0.00    +0.047 A 
ATOM     20  C   LIG    1        6.950   0.610   2.146  0.00  0.00    +0.138 A 
ATOM     21  C   LIG    1        6.576  -0.654   1.694  0.00  0.00    +0.075 A 
ATOM     22  C   LIG    1        5.247  -1.045   1.761  0.00  0.00    +0.033 A 
BRANCH  21  23
ATOM     23  N   LIG    1        7.541  -1.529   1.177  0.00  0.00    -0.285 N 
ATOM     24  H   LIG    1        8.290  -1.180   0.670  0.00  0.00    +0.155 HD
ATOM     25  C   LIG    1        7.427  -2.856   1.385  0.00  0.00    +0.330 C 
ATOM     26  O   LIG    1        6.449  -3.300   1.949  0.00  0.00    -0.279 OA
ENDBRANCH  21  23
BRANCH  20  27
ATOM     27  O   LIG    1        8.253   0.997   2.087  0.00  0.00    -0.505 OA
ATOM     28  H   LIG    1        8.764   0.780   2.878  0.00  0.00    +0.292 HD
ENDBRANCH  20  27
ENDBRANCH  16  17
BRANCH  16  29
ATOM     29  O   LIG    1        2.245  -0.042   3.498  0.00  0.00    -0.389 OA
ATOM     30  H   LIG    1        2.260   0.924   3.524  0.00  0.00    +0.210 HD
ENDBRANCH  16  29
ENDBRANCH   1  16
TORSDOF 10
