REMARK  Name = ZINC02555126
REMARK                            x       y       z     vdW  Elec       q    Type
REMARK                         _______ _______ _______ _____ _____    ______ ____
ROOT
ATOM      1  C   LIG    1       -0.762   0.960   0.100  0.00  0.00    +0.003 A 
ATOM      2  C   LIG    1        0.241   1.878   0.033  0.00  0.00    +0.010 A 
ATOM      3  C   LIG    1        1.574   1.446  -0.058  0.00  0.00    +0.002 A 
ATOM      4  C   LIG    1        1.855   0.056  -0.078  0.00  0.00    +0.010 A 
ATOM      5  C   LIG    1        0.793  -0.861  -0.006  0.00  0.00    +0.113 A 
ATOM      6  C   LIG    1        3.189  -0.377  -0.169  0.00  0.00    +0.010 A 
ATOM      7  C   LIG    1        4.191   0.541  -0.237  0.00  0.00    +0.002 A 
ATOM      8  C   LIG    1        3.917   1.907  -0.217  0.00  0.00    +0.020 A 
ATOM      9  C   LIG    1        2.637   2.364  -0.130  0.00  0.00    +0.049 A 
ATOM     10 CL   LIG    1        2.319   4.071  -0.107  0.00  0.00    -0.083 Cl
ATOM     11  C   LIG    1       -0.487  -0.406   0.081  0.00  0.00    +0.029 A 
ENDROOT
BRANCH   5  12
ATOM     12  S   LIG    1        1.117  -2.593  -0.029  0.00  0.00    +0.059 S 
ATOM     13  O   LIG    1        1.983  -2.830  -1.130  0.00  0.00    -0.153 OA
ATOM     14  O   LIG    1       -0.140  -3.243   0.104  0.00  0.00    -0.153 OA
BRANCH  12  15
ATOM     15  N   LIG    1        1.980  -2.948   1.338  0.00  0.00    -0.192 NA
ATOM     16  H   LIG    1        2.888  -3.283   1.265  0.00  0.00    +0.148 HD
BRANCH  15  17
ATOM     17  C   LIG    1        1.374  -2.757   2.658  0.00  0.00    +0.086 C 
BRANCH  17  18
ATOM     18  C   LIG    1        2.189  -3.515   3.708  0.00  0.00    -0.069 C 
BRANCH  18  19
ATOM     19  N   LIG    1        1.581  -3.323   5.032  0.00  0.00    +0.379 N 
ATOM     20  H   LIG    1        0.635  -3.675   5.021  0.00  0.00    -0.090 HD
ATOM     21  H   LIG    1        1.571  -2.340   5.258  0.00  0.00    -0.090 HD
ATOM     22  H   LIG    1        2.118  -3.823   5.724  0.00  0.00    -0.090 HD
ENDBRANCH  18  19
ENDBRANCH  17  18
ENDBRANCH  15  17
ENDBRANCH  12  15
ENDBRANCH   5  12
TORSDOF 5
