REMARK  Name = ZINC03269660
REMARK                            x       y       z     vdW  Elec       q    Type
REMARK                         _______ _______ _______ _____ _____    ______ ____
ROOT
ATOM      1  C   LIG    1        3.611  -2.169  -0.014  0.00  0.00    +0.233 C 
ATOM      2  O   LIG    1        2.528  -2.717  -0.038  0.00  0.00    -0.283 OA
ENDROOT
BRANCH   1   3
ATOM      3  C   LIG    1        4.846  -2.977   0.042  0.00  0.00    +0.026 A 
ATOM      4  C   LIG    1        6.087  -2.349   0.182  0.00  0.00    +0.012 A 
ATOM      5  C   LIG    1        7.239  -3.103   0.234  0.00  0.00    +0.015 A 
ATOM      6  C   LIG    1        7.167  -4.495   0.145  0.00  0.00    +0.059 A 
ATOM      7  C   LIG    1        5.928  -5.124   0.004  0.00  0.00    +0.015 A 
ATOM      8  C   LIG    1        4.775  -4.371  -0.041  0.00  0.00    +0.012 A 
BRANCH   6   9
ATOM      9  C   LIG    1        8.404  -5.303   0.200  0.00  0.00    +0.337 C 
ATOM     10  O   LIG    1        9.489  -4.753   0.323  0.00  0.00    -0.245 OA
BRANCH   9  11
ATOM     11  O   LIG    1        8.341  -6.522   0.122  0.00  0.00    -0.477 OA
ATOM     12  H   LIG    1        7.510  -6.943   0.028  0.00  0.00    +0.295 HD
ENDBRANCH   9  11
ENDBRANCH   6   9
ENDBRANCH   1   3
BRANCH   1  13
ATOM     13  C   LIG    1        3.694  -0.680  -0.039  0.00  0.00    +0.233 C 
ATOM     14  O   LIG    1        3.959  -0.070   0.976  0.00  0.00    -0.283 OA
BRANCH  13  18
ATOM     15  C   LIG    1        3.004   1.422  -3.661  0.00  0.00    +0.000 A 
ATOM     16  C   LIG    1        3.196   2.124  -2.483  0.00  0.00    +0.001 A 
ATOM     17  C   LIG    1        3.420   1.448  -1.303  0.00  0.00    +0.012 A 
ATOM     18  C   LIG    1        3.454   0.050  -1.297  0.00  0.00    +0.026 A 
ATOM     19  C   LIG    1        3.259  -0.652  -2.492  0.00  0.00    +0.012 A 
ATOM     20  C   LIG    1        3.036   0.038  -3.664  0.00  0.00    +0.001 A 
ENDBRANCH  13  18
ENDBRANCH   1  13
TORSDOF 5
