REMARK  Name = ZINC02511843
REMARK                            x       y       z     vdW  Elec       q    Type
REMARK                         _______ _______ _______ _____ _____    ______ ____
ROOT
ATOM      1  C   LIG    1        0.207  -2.114   3.247  0.00  0.00    +0.145 A 
ATOM      2  C   LIG    1       -1.153  -1.844   3.120  0.00  0.00    +0.121 A 
ATOM      3 CL   LIG    1       -1.706  -0.417   2.300  0.00  0.00    -0.076 Cl
ATOM      4  C   LIG    1       -2.059  -2.749   3.668  0.00  0.00    +0.147 A 
ATOM      5  N   LIG    1       -1.594  -3.831   4.290  0.00  0.00    -0.216 NA
ATOM      6  C   LIG    1       -0.299  -4.051   4.389  0.00  0.00    +0.130 A 
ATOM      7  C   LIG    1        0.181  -5.289   5.101  0.00  0.00    +0.088 C 
ATOM      8  N   LIG    1        0.589  -3.222   3.879  0.00  0.00    -0.216 NA
ENDROOT
BRANCH   4   9
ATOM      9  N   LIG    1       -3.425  -2.526   3.569  0.00  0.00    -0.296 N 
ATOM     10  H   LIG    1       -3.758  -1.780   3.045  0.00  0.00    +0.154 HD
BRANCH   9  11
ATOM     11  C   LIG    1       -4.322  -3.377   4.224  0.00  0.00    +0.070 A 
ATOM     12  C   LIG    1       -5.214  -2.863   5.158  0.00  0.00    +0.065 A 
ATOM     13 CL   LIG    1       -5.215  -1.163   5.514  0.00  0.00    -0.082 Cl
ATOM     14  C   LIG    1       -6.099  -3.705   5.803  0.00  0.00    +0.042 A 
ATOM     15  C   LIG    1       -6.098  -5.060   5.520  0.00  0.00    +0.044 A 
ATOM     16 CL   LIG    1       -7.211  -6.115   6.333  0.00  0.00    -0.083 Cl
ATOM     17  C   LIG    1       -5.211  -5.575   4.591  0.00  0.00    +0.042 A 
ATOM     18  C   LIG    1       -4.328  -4.736   3.938  0.00  0.00    +0.065 A 
ATOM     19 CL   LIG    1       -3.221  -5.382   2.766  0.00  0.00    -0.082 Cl
ENDBRANCH   9  11
ENDBRANCH   4   9
BRANCH   1  20
ATOM     20  N   LIG    1        1.149  -1.245   2.718  0.00  0.00    -0.314 N 
BRANCH  20  21
ATOM     21  C   LIG    1        1.767  -0.227   3.571  0.00  0.00    +0.106 C 
BRANCH  21  23
ATOM     22  C   LIG    1        1.653   2.155   4.315  0.00  0.00    +0.005 C 
ATOM     23  C   LIG    1        1.008   1.093   3.424  0.00  0.00    +0.016 C 
ENDBRANCH  21  23
ENDBRANCH  20  21
BRANCH  20  24
ATOM     24  C   LIG    1        1.526  -1.344   1.305  0.00  0.00    +0.110 C 
BRANCH  24  25
ATOM     25  C   LIG    1        2.706  -2.306   1.159  0.00  0.00    +0.006 C 
ATOM     26  C   LIG    1        4.025  -1.732   0.636  0.00  0.00    +0.005 C 
ATOM     27  C   LIG    1        3.176  -2.637  -0.259  0.00  0.00    +0.005 C 
ENDBRANCH  24  25
ENDBRANCH  20  24
ENDBRANCH   1  20
TORSDOF 7
