REMARK  Name = ZINC02507596
REMARK                            x       y       z     vdW  Elec       q    Type
REMARK                         _______ _______ _______ _____ _____    ______ ____
ROOT
ATOM      1  C   LIG    1       -1.261  -0.772   0.010  0.00  0.00    -0.057 C 
ATOM      2  C   LIG    1       -2.062  -0.678  -1.039  0.00  0.00    -0.024 C 
ATOM      3  C   LIG    1       -3.369  -1.410  -1.104  0.00  0.00    +0.026 C 
ATOM      4  C   LIG    1       -3.144  -2.875  -0.741  0.00  0.00    -0.012 C 
ATOM      5  C   LIG    1       -3.402  -3.047   0.770  0.00  0.00    -0.071 C 
ATOM      6  C   LIG    1       -2.239  -3.966   1.261  0.00  0.00    -0.017 C 
ATOM      7  C   LIG    1       -1.009  -3.040   1.077  0.00  0.00    -0.013 C 
ATOM      8  N   LIG    1       -3.042  -1.731   1.391  0.00  0.00    +0.385 N 
ATOM      9  H   LIG    1       -3.269  -1.735   2.374  0.00  0.00    -0.085 HD
ATOM     10  H   LIG    1       -3.525  -0.980   0.922  0.00  0.00    -0.085 HD
ATOM     11  C   LIG    1       -1.567  -1.624   1.202  0.00  0.00    -0.040 C 
ENDROOT
BRANCH   1  18
ATOM     12  C   LIG    1       -0.017   1.395   0.010  0.00  0.00    +0.012 A 
ATOM     13  C   LIG    1        1.192   2.068   0.002  0.00  0.00    +0.041 A 
ATOM     14  C   LIG    1        2.371   1.342  -0.013  0.00  0.00    +0.129 A 
ATOM     15 CL   LIG    1        3.891   2.181  -0.023  0.00  0.00    -0.062 Cl
ATOM     16  N   LIG    1        2.358   0.022  -0.021  0.00  0.00    -0.243 NA
ATOM     17  C   LIG    1        1.232  -0.662  -0.014  0.00  0.00    +0.120 A 
ATOM     18  C   LIG    1        0.002  -0.004   0.002  0.00  0.00    -0.006 A 
ENDBRANCH   1  18
TORSDOF 1
