REMARK  Name = ZINC02398112
REMARK                            x       y       z     vdW  Elec       q    Type
REMARK                         _______ _______ _______ _____ _____    ______ ____
ROOT
ATOM      1  C   LIG    1        0.589   0.537   5.965  0.00  0.00    +0.084 A 
ATOM      2  C   LIG    1        0.795  -0.725   6.530  0.00  0.00    +0.019 A 
ATOM      3  C   LIG    1        0.980  -0.813   7.897  0.00  0.00    +0.029 A 
ATOM      4  C   LIG    1        0.954   0.350   8.666  0.00  0.00    +0.075 A 
ATOM      5  N   LIG    1        0.756   1.536   8.101  0.00  0.00    -0.212 NA
ATOM      6  C   LIG    1        0.582   1.663   6.799  0.00  0.00    +0.226 A 
ENDROOT
BRANCH   4   7
ATOM      7  C   LIG    1        1.151   0.261  10.132  0.00  0.00    +0.001 A 
ATOM      8  C   LIG    1        1.365  -0.978  10.735  0.00  0.00    +0.013 A 
ATOM      9  C   LIG    1        1.547  -1.057  12.099  0.00  0.00    +0.046 A 
ATOM     10  C   LIG    1        1.517   0.096  12.873  0.00  0.00    +0.120 A 
ATOM     11  C   LIG    1        1.304   1.332  12.275  0.00  0.00    +0.046 A 
ATOM     12  C   LIG    1        1.128   1.418  10.911  0.00  0.00    +0.013 A 
BRANCH  10  13
ATOM     13  O   LIG    1        1.696   0.015  14.217  0.00  0.00    -0.495 OA
ATOM     14  C   LIG    1        1.654   1.239  14.952  0.00  0.00    +0.277 C 
ENDBRANCH  10  13
ENDBRANCH   4   7
BRANCH   1  17
ATOM     15  C   LIG    1        0.172   0.153   2.407  0.00  0.00    +0.259 A 
ATOM     16  N   LIG    1        0.375  -0.322   3.613  0.00  0.00    -0.187 NA
ATOM     17  C   LIG    1        0.387   0.682   4.504  0.00  0.00    +0.207 A 
ATOM     18  N   LIG    1        0.191   1.814   3.869  0.00  0.00    -0.055 NA
ATOM     19  O   LIG    1        0.053   1.489   2.494  0.00  0.00    -0.332 OA
BRANCH  15  26
ATOM     20  C   LIG    1       -1.974   0.638   0.528  0.00  0.00    +0.044 C 
ATOM     21  C   LIG    1       -0.936  -0.419   0.251  0.00  0.00    -0.038 A 
ATOM     22  C   LIG    1       -1.000  -1.162  -0.910  0.00  0.00    +0.004 A 
ATOM     23  C   LIG    1       -0.049  -2.133  -1.167  0.00  0.00    +0.000 A 
ATOM     24  C   LIG    1        0.973  -2.366  -0.262  0.00  0.00    +0.001 A 
ATOM     25  C   LIG    1        1.047  -1.630   0.902  0.00  0.00    +0.013 A 
ATOM     26  C   LIG    1        0.094  -0.644   1.164  0.00  0.00    +0.042 A 
ENDBRANCH  15  26
ENDBRANCH   1  17
BRANCH   6  27
ATOM     27  O   LIG    1        0.389   2.893   6.264  0.00  0.00    -0.479 OA
ATOM     28  C   LIG    1        0.392   4.001   7.167  0.00  0.00    +0.279 C 
ENDBRANCH   6  27
TORSDOF 5
