REMARK  Name = ZINC03122869
REMARK                            x       y       z     vdW  Elec       q    Type
REMARK                         _______ _______ _______ _____ _____    ______ ____
ROOT
ATOM      1  C   LIG    1       -3.024  -3.081   1.831  0.00  0.00    +0.160 A 
ATOM      2  C   LIG    1       -3.562  -2.127   2.683  0.00  0.00    +0.049 A 
ATOM      3  C   LIG    1       -4.931  -2.038   2.845  0.00  0.00    +0.007 A 
ATOM      4  C   LIG    1       -5.767  -2.906   2.169  0.00  0.00    +0.046 A 
ATOM      5  C   LIG    1       -5.234  -3.865   1.320  0.00  0.00    +0.132 A 
ATOM      6  C   LIG    1       -3.860  -3.953   1.151  0.00  0.00    +0.094 A 
ENDROOT
BRANCH   1   7
ATOM      7  O   LIG    1       -1.677  -3.165   1.668  0.00  0.00    -0.343 OA
BRANCH   7   8
ATOM      8  S   LIG    1       -1.136  -2.307   0.533  0.00  0.00    +0.144 S 
ATOM      9  O   LIG    1        0.228  -2.666   0.367  0.00  0.00    -0.132 OA
ATOM     10  O   LIG    1       -2.081  -2.390  -0.525  0.00  0.00    -0.132 OA
BRANCH   8  12
ATOM     11  C   LIG    1       -0.012   0.022   1.248  0.00  0.00    +0.030 C 
ATOM     12  C   LIG    1       -1.153  -0.635   1.091  0.00  0.00    +0.178 C 
BRANCH  11  16
ATOM     13  C   LIG    1       -0.052   4.051   2.593  0.00  0.00    +0.000 A 
ATOM     14  C   LIG    1        1.153   3.428   2.319  0.00  0.00    +0.001 A 
ATOM     15  C   LIG    1        1.172   2.120   1.881  0.00  0.00    +0.008 A 
ATOM     16  C   LIG    1       -0.026   1.425   1.716  0.00  0.00    -0.024 A 
ATOM     17  C   LIG    1       -1.238   2.060   1.988  0.00  0.00    +0.008 A 
ATOM     18  C   LIG    1       -1.244   3.367   2.431  0.00  0.00    +0.001 A 
ENDBRANCH  11  16
ENDBRANCH   8  12
ENDBRANCH   7   8
ENDBRANCH   1   7
BRANCH   5  19
ATOM     19  O   LIG    1       -6.056  -4.718   0.655  0.00  0.00    -0.456 OA
BRANCH  19  20
ATOM     20  C   LIG    1       -7.396  -4.588   0.842  0.00  0.00    +0.128 A 
ATOM     21  C   LIG    1       -8.028  -5.295   1.855  0.00  0.00    +0.046 A 
ATOM     22  C   LIG    1       -9.390  -5.157   2.046  0.00  0.00    +0.004 A 
ATOM     23  C   LIG    1      -10.123  -4.323   1.223  0.00  0.00    +0.000 A 
ATOM     24  C   LIG    1       -9.496  -3.622   0.209  0.00  0.00    +0.004 A 
ATOM     25  C   LIG    1       -8.135  -3.752   0.017  0.00  0.00    +0.046 A 
ENDBRANCH  19  20
ENDBRANCH   5  19
TORSDOF 6
