REMARK  Name = ZINC03348213
REMARK                            x       y       z     vdW  Elec       q    Type
REMARK                         _______ _______ _______ _____ _____    ______ ____
ROOT
ATOM      1  C   LIG    1       -4.840  -2.705  -0.825  0.00  0.00    +0.162 A 
ATOM      2  N   LIG    1       -5.398  -2.778  -2.019  0.00  0.00    -0.227 NA
ATOM      3  C   LIG    1       -4.814  -2.202  -3.078  0.00  0.00    +0.077 A 
ATOM      4  C   LIG    1       -5.379  -2.261  -4.360  0.00  0.00    +0.028 A 
ATOM      5  C   LIG    1       -4.743  -1.657  -5.404  0.00  0.00    +0.002 A 
ATOM      6  C   LIG    1       -3.540  -0.982  -5.217  0.00  0.00    +0.001 A 
ATOM      7  C   LIG    1       -2.963  -0.905  -3.983  0.00  0.00    +0.013 A 
ATOM      8  C   LIG    1       -3.589  -1.513  -2.891  0.00  0.00    +0.040 A 
ATOM      9  C   LIG    1       -3.036  -1.467  -1.586  0.00  0.00    +0.131 A 
ATOM     10  N   LIG    1       -3.688  -2.073  -0.606  0.00  0.00    -0.212 NA
ENDROOT
BRANCH   1  14
ATOM     11  C   LIG    1       -6.792  -4.579   2.455  0.00  0.00    +0.000 A 
ATOM     12  C   LIG    1       -7.354  -4.640   1.192  0.00  0.00    +0.001 A 
ATOM     13  C   LIG    1       -6.725  -4.033   0.124  0.00  0.00    +0.011 A 
ATOM     14  C   LIG    1       -5.521  -3.358   0.319  0.00  0.00    +0.019 A 
ATOM     15  C   LIG    1       -4.956  -3.305   1.592  0.00  0.00    +0.011 A 
ATOM     16  C   LIG    1       -5.597  -3.910   2.654  0.00  0.00    +0.001 A 
ENDBRANCH   1  14
BRANCH   9  17
ATOM     17  N   LIG    1       -1.847  -0.812  -1.346  0.00  0.00    -0.324 N 
ATOM     18  H   LIG    1       -1.378  -0.376  -2.074  0.00  0.00    +0.148 HD
BRANCH  17  19
ATOM     19  C   LIG    1       -1.292  -0.775   0.010  0.00  0.00    +0.139 C 
BRANCH  19  20
ATOM     20  C   LIG    1        0.002  -0.004   0.002  0.00  0.00    -0.012 A 
ATOM     21  C   LIG    1        1.209  -0.679  -0.013  0.00  0.00    +0.006 A 
ATOM     22  C   LIG    1        2.396   0.029  -0.021  0.00  0.00    +0.000 A 
ATOM     23  C   LIG    1        2.378   1.411  -0.013  0.00  0.00    +0.001 A 
ATOM     24  C   LIG    1        1.173   2.087   0.002  0.00  0.00    +0.020 A 
ATOM     25  C   LIG    1       -0.017   1.379   0.010  0.00  0.00    +0.046 A 
ATOM     26 CL   LIG    1       -1.532   2.227   0.021  0.00  0.00    -0.083 Cl
ENDBRANCH  19  20
ENDBRANCH  17  19
ENDBRANCH   9  17
TORSDOF 4
