REMARK  Name = ZINC02575702
REMARK                            x       y       z     vdW  Elec       q    Type
REMARK                         _______ _______ _______ _____ _____    ______ ____
ROOT
ATOM      1  C   LIG    1        5.185  -2.986  -1.266  0.00  0.00    +0.082 C 
ATOM      2  C   LIG    1        4.147  -3.369  -0.435  0.00  0.00    +0.099 C 
ENDROOT
BRANCH   1   3
ATOM      3  N   LIG    1        5.599  -3.819  -2.280  0.00  0.00    -0.352 N 
ATOM      4  H   LIG    1        5.314  -4.747  -2.292  0.00  0.00    +0.143 HD
ATOM      5  H   LIG    1        6.174  -3.479  -2.983  0.00  0.00    +0.143 HD
ENDBRANCH   1   3
BRANCH   2   6
ATOM      6  C   LIG    1        3.635  -2.453   0.539  0.00  0.00    +0.103 C 
ATOM      7  N   LIG    1        3.228  -1.727   1.312  0.00  0.00    -0.191 NA
ENDBRANCH   2   6
BRANCH   2   8
ATOM      8  C   LIG    1        3.564  -4.730  -0.555  0.00  0.00    +0.099 C 
ATOM      9  C   LIG    1        4.324  -5.839  -0.230  0.00  0.00    +0.082 C 
BRANCH   9  10
ATOM     10  N   LIG    1        5.579  -5.678   0.315  0.00  0.00    -0.352 N 
ATOM     11  H   LIG    1        6.142  -6.452   0.473  0.00  0.00    +0.143 HD
ATOM     12  H   LIG    1        5.899  -4.791   0.542  0.00  0.00    +0.143 HD
ENDBRANCH   9  10
BRANCH   8  13
ATOM     13  C   LIG    1        2.215  -4.894  -1.006  0.00  0.00    +0.103 C 
ATOM     14  N   LIG    1        1.145  -5.024  -1.365  0.00  0.00    -0.191 NA
ENDBRANCH   8  13
BRANCH   9  15
ATOM     15  S   LIG    1        3.688  -7.457  -0.514  0.00  0.00    -0.072 S 
BRANCH  15  16
ATOM     16  C   LIG    1        3.477  -8.122   1.105  0.00  0.00    +0.035 A 
ATOM     17  C   LIG    1        3.095  -9.454   1.270  0.00  0.00    +0.039 A 
ATOM     18  C   LIG    1        2.931  -9.971   2.546  0.00  0.00    +0.024 A 
ATOM     19  C   LIG    1        3.146  -9.167   3.650  0.00  0.00    +0.002 A 
ATOM     20  C   LIG    1        3.525  -7.847   3.487  0.00  0.00    +0.001 A 
ATOM     21  C   LIG    1        3.697  -7.325   2.218  0.00  0.00    +0.017 A 
BRANCH  17  22
ATOM     22  N   LIG    1        2.877 -10.265   0.151  0.00  0.00    -0.357 N 
ATOM     23  H   LIG    1        2.611 -11.191   0.267  0.00  0.00    +0.142 HD
ATOM     24  H   LIG    1        2.991  -9.902  -0.741  0.00  0.00    +0.142 HD
ENDBRANCH  17  22
ENDBRANCH  15  16
ENDBRANCH   9  15
ENDBRANCH   2   8
BRANCH   1  25
ATOM     25  S   LIG    1        5.978  -1.430  -1.025  0.00  0.00    -0.072 S 
BRANCH  25  29
ATOM     26  C   LIG    1        9.455  -1.510  -3.932  0.00  0.00    +0.002 A 
ATOM     27  C   LIG    1        8.812  -0.316  -3.666  0.00  0.00    +0.024 A 
ATOM     28  C   LIG    1        7.747  -0.284  -2.778  0.00  0.00    +0.039 A 
ATOM     29  C   LIG    1        7.329  -1.461  -2.155  0.00  0.00    +0.035 A 
ATOM     30  C   LIG    1        7.980  -2.655  -2.429  0.00  0.00    +0.017 A 
ATOM     31  C   LIG    1        9.041  -2.676  -3.316  0.00  0.00    +0.001 A 
BRANCH  28  32
ATOM     32  N   LIG    1        7.096   0.923  -2.506  0.00  0.00    -0.357 N 
ATOM     33  H   LIG    1        6.351   0.944  -1.885  0.00  0.00    +0.142 HD
ATOM     34  H   LIG    1        7.388   1.740  -2.940  0.00  0.00    +0.142 HD
ENDBRANCH  28  32
ENDBRANCH  25  29
ENDBRANCH   1  25
TORSDOF 11
