REMARK  Name = ZINC02516778
REMARK                            x       y       z     vdW  Elec       q    Type
REMARK                         _______ _______ _______ _____ _____    ______ ____
ROOT
ATOM      1  C   LIG    1       -2.351   6.797   3.223  0.00  0.00    +0.051 C 
ATOM      2  C   LIG    1       -2.003   7.675   2.049  0.00  0.00    +0.034 A 
ATOM      3  C   LIG    1       -2.303   9.031   2.084  0.00  0.00    +0.130 A 
ATOM      4  C   LIG    1       -1.991   9.855   1.010  0.00  0.00    +0.092 A 
ATOM      5  C   LIG    1       -1.372   9.329  -0.110  0.00  0.00    +0.138 A 
ATOM      6  C   LIG    1       -1.060   7.961  -0.149  0.00  0.00    +0.101 A 
ATOM      7  C   LIG    1       -0.388   7.379  -1.316  0.00  0.00    +0.174 C 
ATOM      8  O   LIG    1        0.108   8.074  -2.179  0.00  0.00    -0.292 OA
ATOM      9  C   LIG    1       -0.345   5.863  -1.390  0.00  0.00    +0.129 C 
ATOM     10  C   LIG    1       -0.070   5.347   0.030  0.00  0.00    +0.211 C 
ATOM     11  O   LIG    1       -1.100   5.805   0.907  0.00  0.00    -0.483 OA
ATOM     12  C   LIG    1       -1.385   7.128   0.939  0.00  0.00    +0.142 A 
ENDROOT
BRANCH  10  13
ATOM     13  C   LIG    1       -0.050   3.840   0.022  0.00  0.00    -0.007 A 
ATOM     14  C   LIG    1        1.156   3.165   0.008  0.00  0.00    +0.007 A 
ATOM     15  C   LIG    1        1.175   1.783   0.000  0.00  0.00    +0.000 A 
ATOM     16  C   LIG    1       -0.013   1.076   0.008  0.00  0.00    +0.000 A 
ATOM     17  C   LIG    1       -1.219   1.751   0.017  0.00  0.00    +0.000 A 
ATOM     18  C   LIG    1       -1.238   3.133   0.029  0.00  0.00    +0.007 A 
ENDBRANCH  10  13
BRANCH   3  19
ATOM     19  O   LIG    1       -2.908   9.556   3.180  0.00  0.00    -0.495 OA
ATOM     20  C   LIG    1       -3.191  10.957   3.156  0.00  0.00    +0.277 C 
ENDBRANCH   3  19
BRANCH   5  21
ATOM     21  O   LIG    1       -1.069  10.129  -1.162  0.00  0.00    -0.494 OA
ATOM     22  C   LIG    1       -1.418  11.510  -1.048  0.00  0.00    +0.277 C 
ENDBRANCH   5  21
TORSDOF 3
