REMARK  Name = ZINC03620786
REMARK                            x       y       z     vdW  Elec       q    Type
REMARK                         _______ _______ _______ _____ _____    ______ ____
ROOT
ATOM      1  C   LIG    1       -1.026  -2.092   0.110  0.00  0.00    +0.223 A 
ATOM      2  N   LIG    1        0.197  -2.569   0.281  0.00  0.00    -0.195 NA
ATOM      3  C   LIG    1        0.404  -3.878   0.381  0.00  0.00    +0.165 A 
ATOM      4  C   LIG    1       -0.692  -4.752   0.304  0.00  0.00    +0.147 A 
ATOM      5  N   LIG    1       -0.208  -6.012   0.434  0.00  0.00    -0.231 NA
ATOM      6  C   LIG    1        1.083  -5.967   0.582  0.00  0.00    +0.198 A 
ATOM      7  C   LIG    1       -1.973  -4.202   0.122  0.00  0.00    +0.152 A 
ATOM      8  N   LIG    1        1.510  -4.671   0.556  0.00  0.00    -0.329 N 
ATOM      9  H   LIG    1        2.427  -4.367   0.645  0.00  0.00    +0.168 HD
ATOM     10  N   LIG    1       -2.090  -2.881   0.037  0.00  0.00    -0.197 NA
ENDROOT
BRANCH   1  11
ATOM     11  N   LIG    1       -1.201  -0.721   0.010  0.00  0.00    -0.284 N 
ATOM     12  H   LIG    1       -2.096  -0.348  -0.029  0.00  0.00    +0.155 HD
BRANCH  11  18
ATOM     13  C   LIG    1        1.074  -0.287  -0.677  0.00  0.00    +0.025 A 
ATOM     14  C   LIG    1        2.172   0.548  -0.723  0.00  0.00    +0.025 A 
ATOM     15  C   LIG    1        2.117   1.802  -0.127  0.00  0.00    +0.030 A 
ATOM     16  C   LIG    1        0.956   2.215   0.513  0.00  0.00    +0.025 A 
ATOM     17  C   LIG    1       -0.142   1.380   0.559  0.00  0.00    +0.025 A 
ATOM     18  C   LIG    1       -0.087   0.127  -0.036  0.00  0.00    +0.034 A 
BRANCH  15  19
ATOM     19  N   LIG    1        3.230   2.648  -0.173  0.00  0.00    -0.326 N 
ATOM     20  C   LIG    1        3.159   4.022   0.350  0.00  0.00    +0.133 C 
ATOM     21  C   LIG    1        4.342   4.239   1.301  0.00  0.00    +0.178 C 
ATOM     22  O   LIG    1        5.554   3.874   0.636  0.00  0.00    -0.377 OA
ATOM     23  C   LIG    1        5.624   2.497   0.260  0.00  0.00    +0.178 C 
ATOM     24  C   LIG    1        4.508   2.189  -0.739  0.00  0.00    +0.133 C 
ENDBRANCH  15  19
ENDBRANCH  11  18
ENDBRANCH   1  11
BRANCH   7  25
ATOM     25  N   LIG    1       -3.087  -5.017   0.039  0.00  0.00    -0.324 N 
ATOM     26  H   LIG    1       -2.990  -5.980   0.107  0.00  0.00    +0.148 HD
BRANCH  25  27
ATOM     27  C   LIG    1       -4.415  -4.426  -0.151  0.00  0.00    +0.072 C 
ATOM     28  C   LIG    1       -4.992  -4.022   1.207  0.00  0.00    +0.022 C 
ATOM     29  C   LIG    1       -6.378  -3.405   1.008  0.00  0.00    +0.002 C 
ATOM     30  C   LIG    1       -7.302  -4.429   0.345  0.00  0.00    +0.000 C 
ATOM     31  C   LIG    1       -6.724  -4.833  -1.012  0.00  0.00    +0.002 C 
ATOM     32  C   LIG    1       -5.338  -5.450  -0.814  0.00  0.00    +0.022 C 
ENDBRANCH  25  27
ENDBRANCH   7  25
TORSDOF 5
