REMARK  Name = ZINC02654728
REMARK                            x       y       z     vdW  Elec       q    Type
REMARK                         _______ _______ _______ _____ _____    ______ ____
ROOT
ATOM      1  C   LIG    1       -7.368   2.316  -0.075  0.00  0.00    -0.048 C 
ENDROOT
BRANCH   1   2
ATOM      2  N   LIG    1       -8.410   3.345  -0.185  0.00  0.00    +0.383 N 
ATOM      3  H   LIG    1       -8.223   3.962  -1.076  0.00  0.00    -0.086 HD
ATOM      4  H   LIG    1       -8.393   3.982   0.712  0.00  0.00    -0.086 HD
BRANCH   2   5
ATOM      5  C   LIG    1       -9.742   2.736  -0.305  0.00  0.00    -0.034 C 
BRANCH   5   6
ATOM      6  C   LIG    1      -10.798   3.837  -0.417  0.00  0.00    +0.194 C 
ATOM      7  C   LIG    1      -12.198   3.209  -0.447  0.00  0.00    +0.271 C 
ATOM      8  O   LIG    1      -13.159   4.263  -0.565  0.00  0.00    -0.485 OA
ATOM      9  C   LIG    1      -12.904   5.222  -1.497  0.00  0.00    +0.162 A 
ATOM     10  C   LIG    1      -13.931   6.054  -1.917  0.00  0.00    +0.049 A 
ATOM     11  C   LIG    1      -13.686   7.035  -2.860  0.00  0.00    +0.004 A 
ATOM     12  C   LIG    1      -12.417   7.189  -3.387  0.00  0.00    +0.004 A 
ATOM     13  C   LIG    1      -11.390   6.362  -2.974  0.00  0.00    +0.049 A 
ATOM     14  C   LIG    1      -11.629   5.375  -2.029  0.00  0.00    +0.162 A 
ATOM     15  O   LIG    1      -10.608   4.566  -1.634  0.00  0.00    -0.484 OA
ENDBRANCH   5   6
ENDBRANCH   2   5
ENDBRANCH   1   2
BRANCH   1  16
ATOM     16  C   LIG    1       -5.999   2.988   0.047  0.00  0.00    +0.123 C 
BRANCH  16  17
ATOM     17  O   LIG    1       -5.936   3.722   1.272  0.00  0.00    -0.391 OA
ATOM     18  H   LIG    1       -6.650   4.537   1.462  0.00  0.00    +0.210 HD
ENDBRANCH  16  17
BRANCH  16  19
ATOM     19  C   LIG    1       -4.904   1.919   0.036  0.00  0.00    +0.189 C 
BRANCH  19  20
ATOM     20  O   LIG    1       -3.622   2.551   0.033  0.00  0.00    -0.373 OA
BRANCH  20  21
ATOM     21  C   LIG    1       -2.524   1.637   0.023  0.00  0.00    +0.196 C 
BRANCH  21  27
ATOM     22  C   LIG    1       -0.059   4.497   0.025  0.00  0.00    +0.000 A 
ATOM     23  C   LIG    1        1.148   3.822   0.011  0.00  0.00    +0.001 A 
ATOM     24  C   LIG    1        1.167   2.440   0.004  0.00  0.00    +0.020 A 
ATOM     25  C   LIG    1       -0.021   1.732   0.012  0.00  0.00    +0.046 A 
ATOM     26 CL   LIG    1        0.002  -0.004   0.002  0.00  0.00    -0.083 Cl
ATOM     27  C   LIG    1       -1.228   2.407   0.021  0.00  0.00    -0.004 A 
ATOM     28  C   LIG    1       -1.247   3.789   0.033  0.00  0.00    +0.007 A 
ENDBRANCH  21  27
ENDBRANCH  20  21
ENDBRANCH  19  20
ENDBRANCH  16  19
ENDBRANCH   1  16
TORSDOF 9
