REMARK  Name = ZINC02540737
REMARK                            x       y       z     vdW  Elec       q    Type
REMARK                         _______ _______ _______ _____ _____    ______ ____
ROOT
ATOM      1  C   LIG    1       -2.779  -2.734  -0.105  0.00  0.00    +0.005 A 
ATOM      2  C   LIG    1       -3.680  -2.932   0.970  0.00  0.00    +0.111 A 
ATOM      3  C   LIG    1       -4.942  -3.207   0.401  0.00  0.00    +0.157 A 
ATOM      4  N   LIG    1       -5.981  -3.434   1.191  0.00  0.00    -0.234 NA
ATOM      5  C   LIG    1       -5.830  -3.403   2.503  0.00  0.00    +0.133 A 
ATOM      6  C   LIG    1       -4.591  -3.133   3.064  0.00  0.00    +0.131 A 
ATOM      7  N   LIG    1       -4.789  -3.171  -0.966  0.00  0.00    -0.338 N 
ATOM      8  H   LIG    1       -5.492  -3.324  -1.617  0.00  0.00    +0.167 HD
ATOM      9  N   LIG    1       -3.545  -2.903   2.295  0.00  0.00    -0.250 NA
ATOM     10  C   LIG    1       -3.476  -2.878  -1.260  0.00  0.00    +0.053 A 
ENDROOT
BRANCH  10  11
ATOM     11  C   LIG    1       -2.914  -2.746  -2.620  0.00  0.00    -0.001 A 
ATOM     12  C   LIG    1       -2.111  -1.650  -2.942  0.00  0.00    +0.013 A 
ATOM     13  C   LIG    1       -1.588  -1.531  -4.212  0.00  0.00    +0.046 A 
ATOM     14  C   LIG    1       -1.859  -2.499  -5.170  0.00  0.00    +0.117 A 
ATOM     15  C   LIG    1       -2.657  -3.591  -4.854  0.00  0.00    +0.046 A 
ATOM     16  C   LIG    1       -3.179  -3.720  -3.585  0.00  0.00    +0.013 A 
BRANCH  14  17
ATOM     17  O   LIG    1       -1.342  -2.378  -6.421  0.00  0.00    -0.507 OA
ATOM     18  H   LIG    1       -0.475  -2.793  -6.530  0.00  0.00    +0.292 HD
ENDBRANCH  14  17
ENDBRANCH  10  11
BRANCH   1  19
ATOM     19  C   LIG    1       -1.311  -2.413   0.012  0.00  0.00    +0.039 C 
BRANCH  19  20
ATOM     20  C   LIG    1       -0.498  -3.705  -0.085  0.00  0.00    +0.004 C 
BRANCH  20  22
ATOM     21  C   LIG    1        1.808  -4.662  -0.186  0.00  0.00    +0.004 C 
ATOM     22  C   LIG    1        0.995  -3.369  -0.089  0.00  0.00    -0.003 C 
ENDBRANCH  20  22
ENDBRANCH  19  20
ENDBRANCH   1  19
TORSDOF 5
