REMARK  Name = ZINC03108912
REMARK                            x       y       z     vdW  Elec       q    Type
REMARK                         _______ _______ _______ _____ _____    ______ ____
ROOT
ATOM      1  C   LIG    1       -6.259   7.330   0.072  0.00  0.00    +0.249 C 
ATOM      2  N   LIG    1       -6.240   5.982   0.064  0.00  0.00    -0.206 N 
ATOM      3  H   LIG    1       -7.074   5.486   0.065  0.00  0.00    +0.177 HD
ATOM      4  O   LIG    1       -5.217   7.950   0.071  0.00  0.00    -0.272 OA
ENDROOT
BRANCH   2   5
ATOM      5  N   LIG    1       -5.018   5.298   0.055  0.00  0.00    -0.188 NA
ATOM      6  C   LIG    1       -5.000   4.000   0.048  0.00  0.00    +0.138 C 
BRANCH   6   7
ATOM      7  C   LIG    1       -3.715   3.280   0.038  0.00  0.00    -0.005 A 
ATOM      8  C   LIG    1       -3.695   1.882   0.030  0.00  0.00    +0.010 A 
ATOM      9  C   LIG    1       -2.503   1.215   0.021  0.00  0.00    +0.015 A 
ATOM     10  C   LIG    1       -1.302   1.931   0.019  0.00  0.00    +0.059 A 
ATOM     11  C   LIG    1       -1.321   3.329   0.032  0.00  0.00    +0.015 A 
ATOM     12  C   LIG    1       -2.513   3.996   0.037  0.00  0.00    +0.010 A 
BRANCH  10  13
ATOM     13  C   LIG    1       -0.014   1.211   0.009  0.00  0.00    +0.337 C 
ATOM     14  O   LIG    1        0.002  -0.004   0.002  0.00  0.00    -0.245 OA
BRANCH  13  15
ATOM     15  O   LIG    1        1.143   1.900   0.001  0.00  0.00    -0.477 OA
ATOM     16  H   LIG    1        1.131   2.837   0.006  0.00  0.00    +0.295 HD
ENDBRANCH  13  15
ENDBRANCH  10  13
ENDBRANCH   6   7
ENDBRANCH   2   5
BRANCH   1  17
ATOM     17  C   LIG    1       -7.574   8.065   0.082  0.00  0.00    +0.202 C 
BRANCH  17  19
ATOM     18  C   LIG    1       -8.362  10.371   0.098  0.00  0.00    +0.251 C 
ATOM     19  N   LIG    1       -7.326   9.509   0.089  0.00  0.00    -0.302 N 
ATOM     20  H   LIG    1       -6.416   9.845   0.087  0.00  0.00    +0.150 HD
ATOM     21  O   LIG    1       -9.504   9.950   0.101  0.00  0.00    -0.270 OA
BRANCH  18  24
ATOM     22  C   LIG    1       -8.518  14.134   0.120  0.00  0.00    +0.008 A 
ATOM     23  C   LIG    1       -9.026  12.859   0.110  0.00  0.00    +0.021 A 
ATOM     24  C   LIG    1       -8.114  11.815   0.106  0.00  0.00    +0.074 A 
ATOM     25  S   LIG    1       -6.558  12.689   0.104  0.00  0.00    -0.092 S 
ATOM     26  C   LIG    1       -7.171  14.311   0.115  0.00  0.00    +0.046 A 
ENDBRANCH  18  24
ENDBRANCH  17  19
ENDBRANCH   1  17
TORSDOF 7
