REMARK  Name = ZINC03359263
REMARK                            x       y       z     vdW  Elec       q    Type
REMARK                         _______ _______ _______ _____ _____    ______ ____
ROOT
ATOM      1  N   LIG    1        3.635  -0.607  -0.206  0.00  0.00    -0.268 N 
ATOM      2  H   LIG    1        3.652  -1.556  -0.006  0.00  0.00    +0.156 HD
ATOM      3  C   LIG    1        4.789   0.080  -0.315  0.00  0.00    +0.308 C 
ATOM      4  N   LIG    1        5.968  -0.571  -0.265  0.00  0.00    -0.269 N 
ATOM      5  H   LIG    1        5.986  -1.540  -0.222  0.00  0.00    +0.156 HD
ATOM      6  O   LIG    1        4.767   1.287  -0.459  0.00  0.00    -0.252 OA
ENDROOT
BRANCH   1  10
ATOM      7  C   LIG    1       -0.012   1.349  -0.729  0.00  0.00    +0.001 A 
ATOM      8  C   LIG    1        1.153   1.894  -1.242  0.00  0.00    +0.002 A 
ATOM      9  C   LIG    1        2.362   1.249  -1.070  0.00  0.00    +0.024 A 
ATOM     10  C   LIG    1        2.416   0.046  -0.380  0.00  0.00    +0.052 A 
ATOM     11  C   LIG    1        1.238  -0.509   0.142  0.00  0.00    +0.073 A 
ATOM     12  C   LIG    1        0.022   0.155  -0.040  0.00  0.00    +0.021 A 
BRANCH  11  13
ATOM     13  C   LIG    1        1.281  -1.750   0.856  0.00  0.00    +0.101 C 
ATOM     14  N   LIG    1        1.315  -2.733   1.423  0.00  0.00    -0.191 NA
ENDBRANCH  11  13
ENDBRANCH   1  10
BRANCH   4  15
ATOM     15  C   LIG    1        7.167   0.150  -0.273  0.00  0.00    +0.035 A 
ATOM     16  C   LIG    1        7.234   1.395   0.338  0.00  0.00    +0.025 A 
ATOM     17  C   LIG    1        8.419   2.106   0.328  0.00  0.00    +0.030 A 
ATOM     18  C   LIG    1        9.537   1.578  -0.290  0.00  0.00    +0.105 A 
ATOM     19  C   LIG    1        9.474   0.338  -0.900  0.00  0.00    +0.030 A 
ATOM     20  C   LIG    1        8.294  -0.379  -0.888  0.00  0.00    +0.025 A 
BRANCH  18  21
ATOM     21  S   LIG    1       11.047   2.487  -0.302  0.00  0.00    +0.056 S 
ATOM     22  O   LIG    1       10.698   3.855  -0.140  0.00  0.00    -0.153 OA
ATOM     23  O   LIG    1       11.795   2.018  -1.416  0.00  0.00    -0.153 OA
BRANCH  21  24
ATOM     24  N   LIG    1       11.892   2.050   1.053  0.00  0.00    -0.204 NA
ATOM     25  H   LIG    1       12.760   2.444   1.232  0.00  0.00    +0.144 HD
ATOM     26  H   LIG    1       11.519   1.400   1.669  0.00  0.00    +0.144 HD
ENDBRANCH  21  24
ENDBRANCH  18  21
ENDBRANCH   4  15
TORSDOF 5
