REMARK  Name = ZINC02386229
REMARK                            x       y       z     vdW  Elec       q    Type
REMARK                         _______ _______ _______ _____ _____    ______ ____
ROOT
ATOM      1  C   LIG    1       -0.012   1.214   0.401  0.00  0.00    +0.251 C 
ATOM      2  N   LIG    1        0.131  -0.108   0.621  0.00  0.00    -0.257 N 
ATOM      3  O   LIG    1        0.883   1.841  -0.133  0.00  0.00    -0.270 OA
ENDROOT
BRANCH   1   7
ATOM      4  C   LIG    1       -3.592   3.186   1.554  0.00  0.00    +0.000 A 
ATOM      5  C   LIG    1       -2.403   3.891   1.505  0.00  0.00    +0.001 A 
ATOM      6  C   LIG    1       -1.236   3.257   1.131  0.00  0.00    +0.013 A 
ATOM      7  C   LIG    1       -1.258   1.900   0.803  0.00  0.00    +0.037 A 
ATOM      8  C   LIG    1       -2.462   1.196   0.850  0.00  0.00    +0.013 A 
ATOM      9  C   LIG    1       -3.620   1.841   1.231  0.00  0.00    +0.001 A 
ENDBRANCH   1   7
BRANCH   2  10
ATOM     10  C   LIG    1        1.264  -0.777   0.149  0.00  0.00    +0.037 A 
ATOM     11  C   LIG    1        1.501  -2.094   0.523  0.00  0.00    +0.023 A 
ATOM     12  C   LIG    1        2.619  -2.753   0.051  0.00  0.00    +0.002 A 
ATOM     13  C   LIG    1        3.508  -2.101  -0.784  0.00  0.00    +0.000 A 
ATOM     14  C   LIG    1        3.278  -0.789  -1.154  0.00  0.00    +0.002 A 
ATOM     15  C   LIG    1        2.159  -0.125  -0.690  0.00  0.00    +0.023 A 
ENDBRANCH   2  10
BRANCH   2  16
ATOM     16  C   LIG    1       -0.902  -0.844   1.354  0.00  0.00    +0.234 C 
BRANCH  16  17
ATOM     17  C   LIG    1       -1.633  -1.761   0.408  0.00  0.00    +0.323 C 
ATOM     18  O   LIG    1       -1.324  -1.796  -0.760  0.00  0.00    -0.249 OA
BRANCH  17  19
ATOM     19  O   LIG    1       -2.629  -2.538   0.862  0.00  0.00    -0.480 OA
ATOM     20  H   LIG    1       -2.869  -2.511   1.767  0.00  0.00    +0.295 HD
ENDBRANCH  17  19
ENDBRANCH  16  17
ENDBRANCH   2  16
TORSDOF 5
