REMARK  Name = ZINC02892122
REMARK                            x       y       z     vdW  Elec       q    Type
REMARK                         _______ _______ _______ _____ _____    ______ ____
ROOT
ATOM      1  N   LIG    1        5.969   2.197  -0.349  0.00  0.00    -0.224 N 
ATOM      2  C   LIG    1        5.001   1.313  -0.529  0.00  0.00    +0.263 C 
ATOM      3  C   LIG    1        3.618   1.808  -0.383  0.00  0.00    +0.078 C 
ATOM      4  S   LIG    1        3.917   3.524   0.018  0.00  0.00    -0.061 S 
ATOM      5  C   LIG    1        2.443   1.142  -0.513  0.00  0.00    +0.028 C 
ATOM      6  O   LIG    1        5.239   0.152  -0.804  0.00  0.00    -0.269 OA
ATOM      7  C   LIG    1        5.701   3.481  -0.036  0.00  0.00    +0.125 C 
ATOM      8  S   LIG    1        6.804   4.761   0.240  0.00  0.00    -0.027 S 
ENDROOT
BRANCH   1  12
ATOM      9  C   LIG    1        9.936   0.981  -0.739  0.00  0.00    +0.000 A 
ATOM     10  C   LIG    1        9.175   0.521   0.319  0.00  0.00    +0.002 A 
ATOM     11  C   LIG    1        7.860   0.922   0.451  0.00  0.00    +0.024 A 
ATOM     12  C   LIG    1        7.303   1.788  -0.480  0.00  0.00    +0.043 A 
ATOM     13  C   LIG    1        8.068   2.243  -1.545  0.00  0.00    +0.024 A 
ATOM     14  C   LIG    1        9.384   1.843  -1.669  0.00  0.00    +0.002 A 
ENDBRANCH   1  12
BRANCH   5  15
ATOM     15  C   LIG    1        1.173   1.877  -0.463  0.00  0.00    -0.020 A 
ATOM     16  C   LIG    1       -0.041   1.180  -0.412  0.00  0.00    +0.012 A 
ATOM     17  C   LIG    1       -1.231   1.873  -0.367  0.00  0.00    +0.050 A 
ATOM     18  C   LIG    1       -1.231   3.261  -0.371  0.00  0.00    +0.158 A 
ATOM     19  C   LIG    1       -0.027   3.963  -0.417  0.00  0.00    +0.159 A 
ATOM     20  C   LIG    1        1.171   3.277  -0.468  0.00  0.00    +0.057 A 
BRANCH  18  21
ATOM     21  O   LIG    1       -2.408   3.938  -0.326  0.00  0.00    -0.503 OA
ATOM     22  H   LIG    1       -2.713   4.137   0.570  0.00  0.00    +0.292 HD
ENDBRANCH  18  21
BRANCH  19  23
ATOM     23  O   LIG    1       -0.032   5.323  -0.416  0.00  0.00    -0.503 OA
ATOM     24  H   LIG    1       -0.071   5.716  -1.298  0.00  0.00    +0.292 HD
ENDBRANCH  19  23
ENDBRANCH   5  15
TORSDOF 4
