REMARK  Name = ZINC03048056
REMARK                            x       y       z     vdW  Elec       q    Type
REMARK                         _______ _______ _______ _____ _____    ______ ____
ROOT
ATOM      1  N   LIG    1        0.074  -4.874   1.188  0.00  0.00    -0.232 N 
ATOM      2  H   LIG    1        0.072  -4.394   2.031  0.00  0.00    +0.173 HD
ATOM      3  C   LIG    1        0.092  -6.222   1.181  0.00  0.00    +0.260 C 
ATOM      4  O   LIG    1        0.095  -6.824   0.125  0.00  0.00    -0.269 OA
ENDROOT
BRANCH   3   5
ATOM      5  C   LIG    1        0.109  -6.968   2.457  0.00  0.00    +0.038 A 
ATOM      6  C   LIG    1        0.100  -6.280   3.672  0.00  0.00    +0.013 A 
ATOM      7  C   LIG    1        0.115  -6.982   4.859  0.00  0.00    +0.001 A 
ATOM      8  C   LIG    1        0.139  -8.366   4.848  0.00  0.00    +0.000 A 
ATOM      9  C   LIG    1        0.148  -9.054   3.648  0.00  0.00    +0.001 A 
ATOM     10  C   LIG    1        0.127  -8.364   2.453  0.00  0.00    +0.013 A 
ENDBRANCH   3   5
BRANCH   1  11
ATOM     11  N   LIG    1        0.059  -4.167  -0.021  0.00  0.00    -0.264 N 
ATOM     12  H   LIG    1        0.060  -4.648  -0.864  0.00  0.00    +0.170 HD
BRANCH  11  17
ATOM     13  C   LIG    1       -0.018   1.503   0.010  0.00  0.00    +0.044 C 
ATOM     14  C   LIG    1        0.002  -0.004   0.002  0.00  0.00    -0.050 A 
ATOM     15  C   LIG    1        0.006  -0.687  -1.200  0.00  0.00    +0.005 A 
ATOM     16  C   LIG    1        0.025  -2.068  -1.212  0.00  0.00    +0.025 A 
ATOM     17  C   LIG    1        0.040  -2.771  -0.013  0.00  0.00    +0.044 A 
ATOM     18  C   LIG    1        0.037  -2.081   1.193  0.00  0.00    +0.025 A 
ATOM     19  C   LIG    1        0.023  -0.700   1.197  0.00  0.00    +0.005 A 
ENDBRANCH  11  17
ENDBRANCH   1  11
TORSDOF 3
