REMARK  Name = ZINC02499433
REMARK                            x       y       z     vdW  Elec       q    Type
REMARK                         _______ _______ _______ _____ _____    ______ ____
ROOT
ATOM      1  N   LIG    1       -2.326  -2.827  -0.002  0.00  0.00    -0.299 N 
ATOM      2  H   LIG    1       -2.292  -3.791  -0.111  0.00  0.00    +0.154 HD
ENDROOT
BRANCH   1   6
ATOM      3  C   LIG    1        1.895  -1.427  -2.075  0.00  0.00    +0.066 C 
ATOM      4  C   LIG    1        0.907  -1.390  -0.938  0.00  0.00    +0.045 A 
ATOM      5  C   LIG    1       -0.263  -2.142  -1.014  0.00  0.00    +0.067 A 
ATOM      6  C   LIG    1       -1.158  -2.097   0.037  0.00  0.00    +0.130 A 
ATOM      7  N   LIG    1       -0.863  -1.315   1.117  0.00  0.00    -0.182 N 
ATOM      8  C   LIG    1        0.298  -0.594   1.146  0.00  0.00    +0.255 A 
ATOM      9  N   LIG    1        0.321   0.065   2.300  0.00  0.00    -0.197 NA
ATOM     10  C   LIG    1       -0.775  -0.211   2.995  0.00  0.00    +0.247 A 
ATOM     11  N   LIG    1       -1.528  -1.045   2.320  0.00  0.00    -0.151 NA
ATOM     12  N   LIG    1        1.157  -0.652   0.122  0.00  0.00    -0.216 NA
ENDBRANCH   1   6
BRANCH   1  13
ATOM     13  C   LIG    1       -3.559  -2.180   0.114  0.00  0.00    +0.032 A 
ATOM     14  C   LIG    1       -3.619  -0.792   0.116  0.00  0.00    +0.023 A 
ATOM     15  C   LIG    1       -4.840  -0.155   0.231  0.00  0.00    +0.006 A 
ATOM     16  C   LIG    1       -6.001  -0.898   0.342  0.00  0.00    -0.045 A 
ATOM     17  C   LIG    1       -5.945  -2.280   0.339  0.00  0.00    +0.006 A 
ATOM     18  C   LIG    1       -4.729  -2.923   0.220  0.00  0.00    +0.023 A 
BRANCH  16  19
ATOM     19  C   LIG    1       -7.331  -0.200   0.467  0.00  0.00    +0.013 C 
ATOM     20  C   LIG    1       -7.995  -0.601   1.785  0.00  0.00    +0.012 C 
ATOM     21  C   LIG    1       -8.231  -0.605  -0.702  0.00  0.00    +0.012 C 
ENDBRANCH  16  19
ENDBRANCH   1  13
TORSDOF 3
