REMARK  Name = ZINC02712358
REMARK                            x       y       z     vdW  Elec       q    Type
REMARK                         _______ _______ _______ _____ _____    ______ ____
ROOT
ATOM      1  C   LIG    1       -3.867  -4.490  -0.631  0.00  0.00    +0.130 A 
ATOM      2  C   LIG    1       -4.943  -3.769  -1.114  0.00  0.00    +0.046 A 
ATOM      3  C   LIG    1       -6.048  -4.417  -1.649  0.00  0.00    +0.004 A 
ATOM      4  C   LIG    1       -6.098  -5.792  -1.710  0.00  0.00    +0.014 A 
ATOM      5  C   LIG    1       -5.025  -6.544  -1.229  0.00  0.00    +0.050 A 
ATOM      6  C   LIG    1       -5.026  -8.010  -1.269  0.00  0.00    +0.260 A 
ATOM      7  O   LIG    1       -5.978  -8.614  -1.730  0.00  0.00    -0.267 OA
ATOM      8  N   LIG    1       -3.953  -8.682  -0.805  0.00  0.00    -0.306 N 
ATOM      9  C   LIG    1       -2.865  -8.044  -0.279  0.00  0.00    +0.090 A 
ATOM     10  C   LIG    1       -2.785  -6.706  -0.199  0.00  0.00    +0.030 A 
ATOM     11  C   LIG    1       -3.895  -5.888  -0.689  0.00  0.00    +0.030 A 
ENDROOT
BRANCH   1  12
ATOM     12  O   LIG    1       -2.790  -3.847  -0.109  0.00  0.00    -0.477 OA
BRANCH  12  13
ATOM     13  C   LIG    1       -2.779  -2.421  -0.200  0.00  0.00    +0.278 C 
ATOM     14  C   LIG    1       -3.553  -1.829   0.980  0.00  0.00    +0.064 C 
BRANCH  13  15
ATOM     15  C   LIG    1       -1.356  -1.926  -0.165  0.00  0.00    +0.348 C 
ATOM     16  O   LIG    1       -0.450  -2.705   0.018  0.00  0.00    -0.247 OA
BRANCH  15  17
ATOM     17  O   LIG    1       -1.095  -0.621  -0.337  0.00  0.00    -0.462 OA
BRANCH  17  19
ATOM     18  C   LIG    1        0.376   1.289  -0.508  0.00  0.00    +0.048 C 
ATOM     19  C   LIG    1        0.277  -0.223  -0.292  0.00  0.00    +0.229 C 
ENDBRANCH  17  19
ENDBRANCH  15  17
ENDBRANCH  13  15
ENDBRANCH  12  13
ENDBRANCH   1  12
BRANCH   8  20
ATOM     20  C   LIG    1       -3.959 -10.146  -0.855  0.00  0.00    +0.220 C 
BRANCH  20  21
ATOM     21  C   LIG    1       -4.561 -10.689   0.416  0.00  0.00    +0.233 C 
ATOM     22  N   LIG    1       -4.670 -12.021   0.594  0.00  0.00    -0.314 N 
ATOM     23  H   LIG    1       -4.362 -12.629  -0.096  0.00  0.00    +0.149 HD
ATOM     24  O   LIG    1       -4.946  -9.928   1.278  0.00  0.00    -0.274 OA
BRANCH  22  25
ATOM     25  C   LIG    1       -5.255 -12.549   1.829  0.00  0.00    +0.109 C 
BRANCH  25  26
ATOM     26  C   LIG    1       -5.261 -14.078   1.777  0.00  0.00    +0.054 C 
BRANCH  26  27
ATOM     27  C   LIG    1       -5.862 -14.621   3.048  0.00  0.00    -0.046 A 
ATOM     28  C   LIG    1       -5.054 -14.886   4.137  0.00  0.00    +0.004 A 
ATOM     29  C   LIG    1       -5.605 -15.385   5.303  0.00  0.00    +0.000 A 
ATOM     30  C   LIG    1       -6.966 -15.617   5.379  0.00  0.00    +0.000 A 
ATOM     31  C   LIG    1       -7.775 -15.351   4.290  0.00  0.00    +0.000 A 
ATOM     32  C   LIG    1       -7.224 -14.848   3.126  0.00  0.00    +0.004 A 
ENDBRANCH  26  27
ENDBRANCH  25  26
ENDBRANCH  22  25
ENDBRANCH  20  21
ENDBRANCH   8  20
TORSDOF 10
