REMARK  Name = ZINC02779401
REMARK                            x       y       z     vdW  Elec       q    Type
REMARK                         _______ _______ _______ _____ _____    ______ ____
ROOT
ATOM      1  C   LIG    1       -1.375   3.253   0.066  0.00  0.00    +0.129 A 
ATOM      2  C   LIG    1       -0.247   3.825  -0.510  0.00  0.00    +0.046 A 
ATOM      3  C   LIG    1       -0.205   5.185  -0.759  0.00  0.00    +0.004 A 
ATOM      4  C   LIG    1       -1.281   5.984  -0.436  0.00  0.00    +0.008 A 
ATOM      5  C   LIG    1       -2.422   5.419   0.144  0.00  0.00    -0.020 A 
ATOM      6  C   LIG    1       -2.465   4.042   0.389  0.00  0.00    +0.054 A 
ENDROOT
BRANCH   5   7
ATOM      7  C   LIG    1       -3.572   6.266   0.490  0.00  0.00    +0.028 C 
ATOM      8  C   LIG    1       -4.619   5.743   1.175  0.00  0.00    +0.077 C 
ATOM      9  C   LIG    1       -5.922   6.353   1.517  0.00  0.00    +0.256 C 
ATOM     10  N   LIG    1       -6.765   5.600   2.203  0.00  0.00    -0.270 N 
ATOM     11  H   LIG    1       -7.631   5.961   2.448  0.00  0.00    +0.156 HD
ATOM     12  C   LIG    1       -6.449   4.341   2.570  0.00  0.00    +0.118 C 
ATOM     13  S   LIG    1       -7.397   3.222   3.452  0.00  0.00    -0.027 S 
ATOM     14  O   LIG    1       -6.204   7.488   1.183  0.00  0.00    -0.269 OA
ATOM     15  S   LIG    1       -4.805   4.123   1.908  0.00  0.00    -0.061 S 
ENDBRANCH   5   7
BRANCH   1  16
ATOM     16  O   LIG    1       -1.410   1.916   0.307  0.00  0.00    -0.456 OA
BRANCH  16  20
ATOM     17  C   LIG    1        1.882  -0.338  -0.742  0.00  0.00    +0.000 A 
ATOM     18  C   LIG    1        1.881   0.371   0.445  0.00  0.00    +0.004 A 
ATOM     19  C   LIG    1        0.781   1.128   0.797  0.00  0.00    +0.046 A 
ATOM     20  C   LIG    1       -0.324   1.176  -0.040  0.00  0.00    +0.128 A 
ATOM     21  C   LIG    1       -0.321   0.464  -1.231  0.00  0.00    +0.046 A 
ATOM     22  C   LIG    1        0.782  -0.292  -1.579  0.00  0.00    +0.004 A 
ENDBRANCH  16  20
ENDBRANCH   1  16
TORSDOF 3
