REMARK  Name = ZINC03157274
REMARK                            x       y       z     vdW  Elec       q    Type
REMARK                         _______ _______ _______ _____ _____    ______ ____
ROOT
ATOM      1  C   LIG    1        1.153   4.088   1.433  0.00  0.00    +0.015 A 
ATOM      2  C   LIG    1       -0.029   4.399   2.077  0.00  0.00    +0.121 A 
ATOM      3  N   LIG    1        0.010   4.832   3.329  0.00  0.00    -0.223 NA
ATOM      4  C   LIG    1        1.163   4.968   3.967  0.00  0.00    +0.214 A 
ATOM      5  N   LIG    1        2.317   4.680   3.386  0.00  0.00    -0.200 NA
ATOM      6  C   LIG    1        2.352   4.237   2.133  0.00  0.00    +0.125 A 
ENDROOT
BRANCH   4   7
ATOM      7  N   LIG    1        1.161   5.423   5.274  0.00  0.00    -0.327 N 
ATOM      8  H   LIG    1        1.998   5.527   5.753  0.00  0.00    +0.145 HD
ATOM      9  H   LIG    1        0.322   5.637   5.712  0.00  0.00    +0.145 HD
ENDBRANCH   4   7
BRANCH   6  10
ATOM     10  N   LIG    1        3.561   3.931   1.529  0.00  0.00    -0.343 N 
ATOM     11  H   LIG    1        4.390   4.037   2.021  0.00  0.00    +0.144 HD
ATOM     12  H   LIG    1        3.578   3.612   0.613  0.00  0.00    +0.144 HD
ENDBRANCH   6  10
BRANCH   1  13
ATOM     13  C   LIG    1        1.147   3.593   0.010  0.00  0.00    +0.075 C 
BRANCH  13  17
ATOM     14  C   LIG    1        1.213  -0.680  -0.013  0.00  0.00    +0.121 A 
ATOM     15  C   LIG    1        0.002  -0.004   0.002  0.00  0.00    +0.046 A 
ATOM     16  C   LIG    1       -0.017   1.377   0.010  0.00  0.00    +0.007 A 
ATOM     17  C   LIG    1        1.171   2.086   0.002  0.00  0.00    -0.043 A 
ATOM     18  C   LIG    1        2.379   1.415  -0.013  0.00  0.00    +0.007 A 
ATOM     19  C   LIG    1        2.403   0.033  -0.021  0.00  0.00    +0.046 A 
BRANCH  14  20
ATOM     20  O   LIG    1        1.234  -2.039  -0.021  0.00  0.00    -0.492 OA
BRANCH  20  21
ATOM     21  C   LIG    1        2.518  -2.668  -0.037  0.00  0.00    +0.229 C 
BRANCH  21  23
ATOM     22  C   LIG    1        3.715  -4.861  -0.061  0.00  0.00    +0.007 C 
ATOM     23  C   LIG    1        2.341  -4.188  -0.044  0.00  0.00    +0.038 C 
ENDBRANCH  21  23
ENDBRANCH  20  21
ENDBRANCH  14  20
ENDBRANCH  13  17
ENDBRANCH   1  13
TORSDOF 7
