REMARK  Name = ZINC02575703
REMARK                            x       y       z     vdW  Elec       q    Type
REMARK                         _______ _______ _______ _____ _____    ______ ____
ROOT
ATOM      1  C   LIG    1        0.165  -4.734  -1.234  0.00  0.00    +0.258 C 
ENDROOT
BRANCH   1   2
ATOM      2  O   LIG    1        0.185  -4.137   0.065  0.00  0.00    -0.489 OA
BRANCH   2   7
ATOM      3  C   LIG    1        0.551   1.475   0.288  0.00  0.00    +0.044 C 
ATOM      4  C   LIG    1        0.453  -0.027   0.229  0.00  0.00    -0.047 A 
ATOM      5  C   LIG    1        0.429  -0.667  -0.995  0.00  0.00    +0.007 A 
ATOM      6  C   LIG    1        0.339  -2.044  -1.053  0.00  0.00    +0.046 A 
ATOM      7  C   LIG    1        0.274  -2.782   0.120  0.00  0.00    +0.124 A 
ATOM      8  C   LIG    1        0.299  -2.138   1.350  0.00  0.00    -0.002 A 
ATOM      9  C   LIG    1        0.241  -2.701   2.754  0.00  0.00    +0.039 C 
ATOM     10  C   LIG    1       -0.119  -1.506   3.656  0.00  0.00    +0.009 C 
ATOM     11  C   LIG    1        0.409  -0.303   2.846  0.00  0.00    +0.036 C 
ATOM     12  C   LIG    1        0.394  -0.760   1.403  0.00  0.00    -0.038 A 
ENDBRANCH   2   7
ENDBRANCH   1   2
BRANCH   1  13
ATOM     13  C   LIG    1        0.062  -6.254  -1.095  0.00  0.00    +0.138 C 
BRANCH  13  14
ATOM     14  O   LIG    1        1.244  -6.755  -0.467  0.00  0.00    -0.390 OA
ATOM     15  H   LIG    1        2.058  -6.567  -0.954  0.00  0.00    +0.210 HD
ENDBRANCH  13  14
BRANCH  13  16
ATOM     16  C   LIG    1       -0.086  -6.884  -2.481  0.00  0.00    -0.042 C 
ATOM     17  C   LIG    1       -0.188  -8.404  -2.342  0.00  0.00    -0.011 C 
BRANCH  16  18
ATOM     18  N   LIG    1        1.085  -6.545  -3.300  0.00  0.00    +0.384 N 
ATOM     19  H   LIG    1        1.908  -6.976  -2.906  0.00  0.00    -0.085 HD
ATOM     20  H   LIG    1        1.206  -5.543  -3.317  0.00  0.00    -0.085 HD
BRANCH  18  21
ATOM     21  C   LIG    1        0.884  -7.036  -4.670  0.00  0.00    -0.078 C 
ATOM     22  C   LIG    1        2.162  -6.820  -5.483  0.00  0.00    -0.014 C 
ATOM     23  C   LIG    1       -0.271  -6.271  -5.321  0.00  0.00    -0.014 C 
ENDBRANCH  18  21
ENDBRANCH  16  18
ENDBRANCH  13  16
ENDBRANCH   1  13
TORSDOF 7
