REMARK  Name = ZINC02562328
REMARK                            x       y       z     vdW  Elec       q    Type
REMARK                         _______ _______ _______ _____ _____    ______ ____
ROOT
ATOM      1  C   LIG    1        0.190   0.956   6.019  0.00  0.00    +0.089 C 
ATOM      2  C   LIG    1        0.232   0.924   4.513  0.00  0.00    +0.141 A 
ATOM      3  C   LIG    1       -0.635   1.525   3.667  0.00  0.00    +0.056 A 
ATOM      4  C   LIG    1       -0.149   1.183   2.378  0.00  0.00    +0.259 A 
ATOM      5  N   LIG    1        0.916   0.452   2.571  0.00  0.00    -0.040 NA
ATOM      6  O   LIG    1        1.140   0.299   3.750  0.00  0.00    -0.356 OA
ENDROOT
BRANCH   3   7
ATOM      7  C   LIG    1       -1.841   2.361   4.012  0.00  0.00    +0.039 C 
BRANCH   7   8
ATOM      8  CA  LIG    1       -3.070   1.458   4.135  0.00  0.00    +0.040 C 
BRANCH   8   9
ATOM      9  N   LIG    1       -3.350   0.851   2.822  0.00  0.00    +0.387 N 
ATOM     10  H1  LIG    1       -2.525   0.328   2.509  0.00  0.00    -0.089 HD
ATOM     11  H2  LIG    1       -3.563   1.577   2.140  0.00  0.00    -0.089 HD
ATOM     12  H3  LIG    1       -4.141   0.212   2.895  0.00  0.00    -0.089 HD
ENDBRANCH   8   9
BRANCH   8  13
ATOM     13  C   LIG    1       -4.248   2.275   4.600  0.00  0.00    +0.290 C 
ATOM     14  O   LIG    1       -5.072   2.656   3.802  0.00  0.00    -0.253 OA
BRANCH  13  15
ATOM     15  OXT LIG    1       -4.383   2.578   5.901  0.00  0.00    -0.482 OA
ATOM     16  HXT LIG    1       -3.744   2.283   6.519  0.00  0.00    +0.295 HD
ENDBRANCH  13  15
ENDBRANCH   8  13
ENDBRANCH   7   8
ENDBRANCH   3   7
BRANCH   4  17
ATOM     17  O   LIG    1       -0.682   1.547   1.184  0.00  0.00    -0.463 OA
BRANCH  17  18
ATOM     18  C   LIG    1       -0.013   1.086   0.008  0.00  0.00    +0.351 C 
BRANCH  18  19
ATOM     19  C   LIG    1       -0.742   1.585  -1.213  0.00  0.00    +0.343 C 
ATOM     20  O   LIG    1       -1.732   2.266  -1.089  0.00  0.00    -0.247 OA
BRANCH  19  21
ATOM     21  O   LIG    1       -0.290   1.274  -2.438  0.00  0.00    -0.478 OA
ATOM     22  H   LIG    1        0.478   0.746  -2.534  0.00  0.00    +0.295 HD
ENDBRANCH  19  21
ENDBRANCH  18  19
ENDBRANCH  17  18
ENDBRANCH   4  17
TORSDOF 9
