REMARK  Name = ZINC02967488
REMARK                            x       y       z     vdW  Elec       q    Type
REMARK                         _______ _______ _______ _____ _____    ______ ____
ROOT
ATOM      1  C   LIG    1       -4.816  -1.051   0.043  0.00  0.00    +0.066 C 
ATOM      2  C   LIG    1       -5.354   0.204   0.054  0.00  0.00    +0.080 C 
ATOM      3  C   LIG    1       -6.766   0.619   0.070  0.00  0.00    +0.258 C 
ATOM      4  N   LIG    1       -7.004   1.920   0.079  0.00  0.00    -0.254 N 
ATOM      5  C   LIG    1       -5.999   2.819   0.075  0.00  0.00    +0.121 C 
ATOM      6  S   LIG    1       -6.100   4.528   0.086  0.00  0.00    -0.027 S 
ATOM      7  O   LIG    1       -7.672  -0.196   0.074  0.00  0.00    -0.269 OA
ATOM      8  S   LIG    1       -4.537   1.794   0.064  0.00  0.00    -0.061 S 
ENDROOT
BRANCH   1  12
ATOM      9  C   LIG    1       -1.264  -0.763   0.011  0.00  0.00    +0.136 A 
ATOM     10  C   LIG    1       -1.376  -2.124  -0.001  0.00  0.00    +0.050 A 
ATOM     11  C   LIG    1       -2.740  -2.426   0.016  0.00  0.00    +0.050 A 
ATOM     12  C   LIG    1       -3.415  -1.218   0.029  0.00  0.00    +0.130 A 
ATOM     13  O   LIG    1       -2.498  -0.227   0.025  0.00  0.00    -0.455 OA
BRANCH   9  16
ATOM     14  C   LIG    1        1.170   2.096   0.002  0.00  0.00    +0.002 A 
ATOM     15  C   LIG    1       -0.017   1.393   0.010  0.00  0.00    +0.011 A 
ATOM     16  C   LIG    1        0.002  -0.004   0.002  0.00  0.00    +0.019 A 
ATOM     17  C   LIG    1        1.225  -0.680  -0.013  0.00  0.00    +0.031 A 
ATOM     18  C   LIG    1        2.405   0.036  -0.021  0.00  0.00    +0.042 A 
ATOM     19 CL   LIG    1        3.926  -0.800  -0.040  0.00  0.00    -0.084 Cl
ATOM     20  C   LIG    1        2.378   1.421  -0.013  0.00  0.00    +0.020 A 
ENDBRANCH   9  16
ENDBRANCH   1  12
BRANCH   4  21
ATOM     21  C   LIG    1       -8.390   2.395   0.094  0.00  0.00    +0.140 C 
BRANCH  21  22
ATOM     22  C   LIG    1       -8.860   2.552   1.542  0.00  0.00    +0.217 C 
BRANCH  22  23
ATOM     23  S   LIG    1      -10.575   3.140   1.560  0.00  0.00    +0.081 S 
ATOM     24  O   LIG    1      -11.443   2.134   1.057  0.00  0.00    -0.147 OA
ATOM     25  O   LIG    1      -10.643   4.470   1.063  0.00  0.00    -0.147 OA
BRANCH  23  26
ATOM     26  O   LIG    1      -10.932   3.259   3.035  0.00  0.00    -0.254 OA
ATOM     27  H   LIG    1      -10.374   3.935   3.449  0.00  0.00    +0.244 HD
ENDBRANCH  23  26
ENDBRANCH  22  23
ENDBRANCH  21  22
ENDBRANCH   4  21
TORSDOF 6
