REMARK  Name = ZINC02567237
REMARK                            x       y       z     vdW  Elec       q    Type
REMARK                         _______ _______ _______ _____ _____    ______ ____
ROOT
ATOM      1  C   LIG    1       -1.413  -2.065   0.003  0.00  0.00    +0.001 C 
ATOM      2  C   LIG    1       -2.829  -2.595  -0.238  0.00  0.00    -0.072 C 
ATOM      3  N   LIG    1       -2.806  -4.063  -0.238  0.00  0.00    +0.385 N 
ATOM      4  H   LIG    1       -2.151  -4.387  -0.934  0.00  0.00    -0.081 HD
ATOM      5  C   LIG    1       -4.141  -4.586  -0.553  0.00  0.00    -0.073 C 
ATOM      6  C   LIG    1       -4.021  -6.080  -0.856  0.00  0.00    +0.017 C 
ATOM      7  C   LIG    1       -3.254  -6.767   0.245  0.00  0.00    -0.044 A 
ATOM      8  C   LIG    1       -3.328  -8.149   0.342  0.00  0.00    +0.053 A 
ATOM      9  C   LIG    1       -2.637  -8.817   1.337  0.00  0.00    +0.162 A 
ATOM     10  C   LIG    1       -1.864  -8.097   2.243  0.00  0.00    +0.162 A 
ATOM     11  C   LIG    1       -1.795  -6.719   2.143  0.00  0.00    +0.051 A 
ATOM     12  C   LIG    1       -2.491  -6.052   1.145  0.00  0.00    -0.054 A 
ATOM     13  C   LIG    1       -2.396  -4.552   1.080  0.00  0.00    -0.035 C 
ATOM     14  C   LIG    1       -0.961  -4.106   1.369  0.00  0.00    +0.021 C 
ATOM     15  C   LIG    1       -0.901  -2.576   1.352  0.00  0.00    +0.115 C 
ENDROOT
BRANCH   9  16
ATOM     16  O   LIG    1       -2.712 -10.172   1.429  0.00  0.00    -0.491 OA
ATOM     17  C   LIG    1       -3.526 -10.843   0.464  0.00  0.00    +0.277 C 
ENDBRANCH   9  16
BRANCH  10  18
ATOM     18  O   LIG    1       -1.179  -8.745   3.223  0.00  0.00    -0.491 OA
ATOM     19  C   LIG    1       -0.407  -7.940   4.116  0.00  0.00    +0.277 C 
ENDBRANCH  10  18
BRANCH  15  20
ATOM     20  O   LIG    1       -1.719  -2.054   2.402  0.00  0.00    -0.392 OA
ATOM     21  H   LIG    1       -1.452  -2.338   3.287  0.00  0.00    +0.210 HD
ENDBRANCH  15  20
BRANCH   1  22
ATOM     22  C   LIG    1       -1.436  -0.535   0.011  0.00  0.00    +0.007 C 
BRANCH  22  24
ATOM     23  C   LIG    1        0.767  -0.374  -1.157  0.00  0.00    +0.007 C 
ATOM     24  C   LIG    1       -0.004  -0.005   0.111  0.00  0.00    -0.017 C 
ATOM     25  C   LIG    1       -0.034   1.517   0.265  0.00  0.00    +0.007 C 
ENDBRANCH  22  24
ENDBRANCH   1  22
TORSDOF 5
