REMARK  Name = ZINC02712341
REMARK                            x       y       z     vdW  Elec       q    Type
REMARK                         _______ _______ _______ _____ _____    ______ ____
ROOT
ATOM      1  C   LIG    1        1.235   2.270  -0.213  0.00  0.00    +0.130 A 
ATOM      2  C   LIG    1        0.009   1.635  -0.163  0.00  0.00    +0.046 A 
ATOM      3  C   LIG    1       -0.070   0.253  -0.062  0.00  0.00    +0.004 A 
ATOM      4  C   LIG    1        1.071  -0.517  -0.008  0.00  0.00    +0.014 A 
ATOM      5  C   LIG    1        2.322   0.099  -0.057  0.00  0.00    +0.050 A 
ATOM      6  C   LIG    1        3.569  -0.672  -0.004  0.00  0.00    +0.260 A 
ATOM      7  O   LIG    1        3.539  -1.886   0.085  0.00  0.00    -0.267 OA
ATOM      8  N   LIG    1        4.748  -0.021  -0.055  0.00  0.00    -0.306 N 
ATOM      9  C   LIG    1        4.826   1.340  -0.156  0.00  0.00    +0.090 A 
ATOM     10  C   LIG    1        3.735   2.120  -0.210  0.00  0.00    +0.030 A 
ATOM     11  C   LIG    1        2.408   1.506  -0.160  0.00  0.00    +0.030 A 
ENDROOT
BRANCH   1  12
ATOM     12  O   LIG    1        1.303   3.623  -0.313  0.00  0.00    -0.477 OA
BRANCH  12  13
ATOM     13  C   LIG    1        0.068   4.340  -0.263  0.00  0.00    +0.278 C 
ATOM     14  C   LIG    1       -0.332   4.567   1.196  0.00  0.00    +0.064 C 
BRANCH  13  15
ATOM     15  C   LIG    1        0.231   5.670  -0.952  0.00  0.00    +0.348 C 
ATOM     16  O   LIG    1        1.296   5.974  -1.436  0.00  0.00    -0.247 OA
BRANCH  15  17
ATOM     17  O   LIG    1       -0.807   6.518  -1.028  0.00  0.00    -0.462 OA
BRANCH  17  19
ATOM     18  C   LIG    1       -1.864   8.609  -1.693  0.00  0.00    +0.048 C 
ATOM     19  C   LIG    1       -0.577   7.782  -1.706  0.00  0.00    +0.229 C 
ENDBRANCH  17  19
ENDBRANCH  15  17
ENDBRANCH  13  15
ENDBRANCH  12  13
ENDBRANCH   1  12
BRANCH   8  20
ATOM     20  C   LIG    1        5.988  -0.798  -0.002  0.00  0.00    +0.220 C 
BRANCH  20  21
ATOM     21  C   LIG    1        6.409  -1.169  -1.401  0.00  0.00    +0.237 C 
ATOM     22  N   LIG    1        7.530  -1.890  -1.599  0.00  0.00    -0.284 N 
ATOM     23  H   LIG    1        8.099  -2.119  -0.847  0.00  0.00    +0.155 HD
ATOM     24  O   LIG    1        5.739  -0.818  -2.349  0.00  0.00    -0.274 OA
BRANCH  22  25
ATOM     25  C   LIG    1        7.875  -2.310  -2.890  0.00  0.00    +0.034 A 
ATOM     26  C   LIG    1        8.496  -3.538  -3.079  0.00  0.00    +0.027 A 
ATOM     27  C   LIG    1        8.830  -3.953  -4.353  0.00  0.00    +0.048 A 
ATOM     28  C   LIG    1        8.557  -3.139  -5.442  0.00  0.00    +0.130 A 
ATOM     29  C   LIG    1        7.941  -1.910  -5.254  0.00  0.00    +0.048 A 
ATOM     30  C   LIG    1        7.601  -1.496  -3.981  0.00  0.00    +0.027 A 
BRANCH  28  31
ATOM     31  O   LIG    1        8.892  -3.546  -6.696  0.00  0.00    -0.406 OA
BRANCH  31  32
ATOM     32  C   LIG    1        9.522  -4.822  -6.817  0.00  0.00    +0.575 C 
ATOM     33  F   LIG    1       10.718  -4.822  -6.090  0.00  0.00    -0.133 F 
ATOM     34  F   LIG    1        9.796  -5.082  -8.164  0.00  0.00    -0.133 F 
ATOM     35  F   LIG    1        8.671  -5.812  -6.315  0.00  0.00    -0.133 F 
ENDBRANCH  31  32
ENDBRANCH  28  31
ENDBRANCH  22  25
ENDBRANCH  20  21
ENDBRANCH   8  20
TORSDOF 10
