REMARK  Name = ZINC02571257
REMARK                            x       y       z     vdW  Elec       q    Type
REMARK                         _______ _______ _______ _____ _____    ______ ____
ROOT
ATOM      1  C   LIG    1       -0.006   1.369  -0.232  0.00  0.00    +0.013 A 
ATOM      2  C   LIG    1        1.179   2.073  -0.239  0.00  0.00    +0.047 A 
ATOM      3  C   LIG    1        2.381   1.417  -0.012  0.00  0.00    +0.130 A 
ATOM      4  C   LIG    1        2.397   0.048   0.223  0.00  0.00    +0.047 A 
ATOM      5  C   LIG    1        1.217  -0.665   0.232  0.00  0.00    +0.013 A 
ATOM      6  C   LIG    1        0.005  -0.009   0.004  0.00  0.00    -0.005 A 
ENDROOT
BRANCH   6   7
ATOM      7  C   LIG    1       -1.259  -0.767   0.014  0.00  0.00    +0.138 C 
ATOM      8  N   LIG    1       -1.247  -2.046   0.233  0.00  0.00    -0.188 NA
BRANCH   8   9
ATOM      9  N   LIG    1       -2.449  -2.767   0.242  0.00  0.00    -0.219 N 
ATOM     10  H   LIG    1       -3.290  -2.309   0.084  0.00  0.00    +0.176 HD
BRANCH   9  11
ATOM     11  C   LIG    1       -2.436  -4.095   0.470  0.00  0.00    +0.147 C 
ATOM     12  S   LIG    1       -3.905  -4.975   0.481  0.00  0.00    -0.017 S 
BRANCH  11  13
ATOM     13  N   LIG    1       -1.268  -4.730   0.690  0.00  0.00    -0.339 N 
ATOM     14  H   LIG    1       -1.259  -5.686   0.854  0.00  0.00    +0.144 HD
ATOM     15  H   LIG    1       -0.436  -4.231   0.684  0.00  0.00    +0.144 HD
ENDBRANCH  11  13
ENDBRANCH   9  11
ENDBRANCH   8   9
ENDBRANCH   6   7
BRANCH   3  16
ATOM     16  O   LIG    1        3.546   2.115  -0.021  0.00  0.00    -0.437 OA
BRANCH  16  17
ATOM     17  C   LIG    1        3.844   2.871   1.066  0.00  0.00    +0.239 A 
ATOM     18  C   LIG    1        4.972   3.684   1.052  0.00  0.00    +0.103 A 
ATOM     19 CL   LIG    1        6.000   3.737  -0.346  0.00  0.00    -0.078 Cl
ATOM     20  C   LIG    1        5.263   4.451   2.167  0.00  0.00    +0.039 A 
ATOM     21  C   LIG    1        4.413   4.377   3.262  0.00  0.00    +0.074 A 
ATOM     22  C   LIG    1        3.311   3.547   3.206  0.00  0.00    +0.127 A 
ATOM     23  N   LIG    1        3.055   2.832   2.127  0.00  0.00    -0.219 NA
BRANCH  21  24
ATOM     24  C   LIG    1        4.690   5.192   4.498  0.00  0.00    +0.419 C 
ATOM     25  F   LIG    1        6.070   5.383   4.632  0.00  0.00    -0.166 F 
ATOM     26  F   LIG    1        4.202   4.517   5.622  0.00  0.00    -0.166 F 
ATOM     27  F   LIG    1        4.056   6.435   4.389  0.00  0.00    -0.166 F 
ENDBRANCH  21  24
ENDBRANCH  16  17
ENDBRANCH   3  16
TORSDOF 7
