REMARK  Name = ZINC03109867
REMARK                            x       y       z     vdW  Elec       q    Type
REMARK                         _______ _______ _______ _____ _____    ______ ____
ROOT
ATOM      1  CA  TRP A  1        0.236  -3.589  -1.455  0.00  0.00    +0.186 C 
ENDROOT
BRANCH   1   2
ATOM      2  N   TRP A  1       -0.550  -2.472  -1.985  0.00  0.00    -0.298 N 
ATOM      3  H   TRP A  1       -1.024  -1.882  -1.378  0.00  0.00    +0.150 HD
ATOM      4  C   UNK A  0       -0.613  -2.263  -3.315  0.00  0.00    +0.246 C 
ATOM      5  O   UNK A  0       -0.019  -3.002  -4.075  0.00  0.00    -0.270 OA
BRANCH   4   6
ATOM      6  C   UNK A  0       -1.406  -1.136  -3.849  0.00  0.00    +0.055 A 
ATOM      7  C   UNK A  0       -2.085  -0.282  -2.978  0.00  0.00    +0.014 A 
ATOM      8  C   UNK A  0       -2.823   0.768  -3.483  0.00  0.00    +0.001 A 
ATOM      9  C   UNK A  0       -2.891   0.977  -4.850  0.00  0.00    +0.001 A 
ATOM     10  C   UNK A  0       -2.222   0.135  -5.719  0.00  0.00    +0.021 A 
ATOM     11  C   UNK A  0       -1.474  -0.917  -5.227  0.00  0.00    +0.053 A 
ATOM     12 CL   UNK A  0       -0.627  -1.968  -6.319  0.00  0.00    -0.083 Cl
ENDBRANCH   4   6
ENDBRANCH   1   2
BRANCH   1  13
ATOM     13  C   TRP A  1       -0.602  -4.842  -1.466  0.00  0.00    +0.326 C 
ATOM     14  O   TRP A  1       -1.796  -4.775  -1.702  0.00  0.00    -0.249 OA
BRANCH  13  15
ATOM     15  OXT TRP A  1       -0.085  -5.923  -1.238  0.00  0.00    -0.479 OA
ATOM     16  HXT TRP A  1        0.833  -5.974  -1.056  0.00  0.00    +0.295 HD
ENDBRANCH  13  15
ENDBRANCH   1  13
BRANCH   1  17
ATOM     17  CB  TRP A  1        0.666  -3.275  -0.021  0.00  0.00    +0.071 C 
BRANCH  17  23
ATOM     18  CZ3 TRP A  1       -0.017   1.362   0.009  0.00  0.00    +0.001 A 
ATOM     19  CH2 TRP A  1        1.170   2.083   0.002  0.00  0.00    +0.002 A 
ATOM     20  CZ2 TRP A  1        2.386   1.436  -0.013  0.00  0.00    +0.026 A 
ATOM     21  CE2 TRP A  1        2.428   0.046  -0.021  0.00  0.00    +0.047 A 
ATOM     22  CD2 TRP A  1        1.223  -0.681  -0.013  0.00  0.00    +0.003 A 
ATOM     23  CG  TRP A  1        1.604  -2.095  -0.025  0.00  0.00    -0.020 A 
ATOM     24  CD1 TRP A  1        2.945  -2.141  -0.038  0.00  0.00    +0.087 A 
ATOM     25  NE1 TRP A  1        3.455  -0.871  -0.036  0.00  0.00    -0.360 N 
ATOM     26  HE1 TRP A  1        4.399  -0.650  -0.044  0.00  0.00    +0.165 HD
ATOM     27  CE3 TRP A  1        0.002  -0.004   0.002  0.00  0.00    +0.010 A 
ENDBRANCH  17  23
ENDBRANCH   1  17
TORSDOF 6
