REMARK  Name = ZINC02872412
REMARK                            x       y       z     vdW  Elec       q    Type
REMARK                         _______ _______ _______ _____ _____    ______ ____
ROOT
ATOM      1  C   LIG    1       -3.222  -6.523   0.093  0.00  0.00    +0.135 C 
ATOM      2  S   LIG    1       -4.597  -5.503   0.106  0.00  0.00    -0.019 S 
ENDROOT
BRANCH   1   3
ATOM      3  N   LIG    1       -1.989  -5.990  -0.012  0.00  0.00    -0.297 N 
ATOM      4  H   LIG    1       -1.216  -6.569  -0.100  0.00  0.00    +0.154 HD
BRANCH   3   8
ATOM      5  C   LIG    1       -1.495  -1.850   0.042  0.00  0.00    +0.121 A 
ATOM      6  C   LIG    1       -2.385  -2.453   0.918  0.00  0.00    +0.047 A 
ATOM      7  C   LIG    1       -2.549  -3.824   0.901  0.00  0.00    +0.027 A 
ATOM      8  C   LIG    1       -1.823  -4.599   0.006  0.00  0.00    +0.033 A 
ATOM      9  C   LIG    1       -0.932  -3.994  -0.871  0.00  0.00    +0.027 A 
ATOM     10  C   LIG    1       -0.773  -2.623  -0.856  0.00  0.00    +0.047 A 
BRANCH   5  11
ATOM     11  O   LIG    1       -1.333  -0.500   0.059  0.00  0.00    -0.492 OA
BRANCH  11  13
ATOM     12  C   LIG    1       -1.794   1.726   0.881  0.00  0.00    +0.048 C 
ATOM     13  C   LIG    1       -2.108   0.234   1.010  0.00  0.00    +0.225 C 
ENDBRANCH  11  13
ENDBRANCH   5  11
ENDBRANCH   3   8
ENDBRANCH   1   3
BRANCH   1  14
ATOM     14  N   LIG    1       -3.373  -7.859   0.189  0.00  0.00    -0.326 N 
ATOM     15  H   LIG    1       -2.594  -8.437   0.182  0.00  0.00    +0.148 HD
BRANCH  14  16
ATOM     16  C   LIG    1       -4.714  -8.438   0.303  0.00  0.00    +0.105 C 
BRANCH  16  17
ATOM     17  C   LIG    1       -4.605  -9.961   0.396  0.00  0.00    +0.040 C 
BRANCH  17  18
ATOM     18  C   LIG    1       -6.005 -10.567   0.515  0.00  0.00    +0.124 C 
BRANCH  18  19
ATOM     19  N   LIG    1       -5.900 -12.025   0.604  0.00  0.00    -0.337 N 
ATOM     20  C   LIG    1       -5.900 -12.905  -0.445  0.00  0.00    +0.106 A 
ATOM     21  C   LIG    1       -5.785 -14.139   0.082  0.00  0.00    +0.130 A 
ATOM     22  N   LIG    1       -5.718 -14.016   1.416  0.00  0.00    -0.244 NA
ATOM     23  C   LIG    1       -5.781 -12.753   1.735  0.00  0.00    +0.199 A 
ENDBRANCH  18  19
ENDBRANCH  17  18
ENDBRANCH  16  17
ENDBRANCH  14  16
ENDBRANCH   1  14
TORSDOF 9
