REMARK  Name = ZINC02558217
REMARK                            x       y       z     vdW  Elec       q    Type
REMARK                         _______ _______ _______ _____ _____    ______ ____
ROOT
ATOM      1  C   LIG    1        2.286  -4.535  -3.707  0.00  0.00    -0.016 A 
ATOM      2  C   LIG    1        1.724  -4.565  -4.970  0.00  0.00    +0.006 A 
ATOM      3  C   LIG    1        2.465  -5.009  -6.049  0.00  0.00    +0.004 A 
ATOM      4  C   LIG    1        3.769  -5.426  -5.868  0.00  0.00    +0.045 A 
ATOM      5  C   LIG    1        4.336  -5.397  -4.602  0.00  0.00    +0.121 A 
ATOM      6  C   LIG    1        3.592  -4.945  -3.522  0.00  0.00    +0.051 A 
ENDROOT
BRANCH   1   7
ATOM      7  C   LIG    1        1.476  -4.051  -2.532  0.00  0.00    +0.145 C 
BRANCH   7   8
ATOM      8  O   LIG    1        0.139  -4.545  -2.640  0.00  0.00    -0.387 OA
ATOM      9  H   LIG    1       -0.322  -4.261  -3.441  0.00  0.00    +0.210 HD
ENDBRANCH   7   8
BRANCH   7  10
ATOM     10  C   LIG    1        1.455  -2.521  -2.524  0.00  0.00    +0.036 C 
BRANCH  10  11
ATOM     11  C   LIG    1        0.739  -2.027  -1.265  0.00  0.00    +0.003 C 
BRANCH  11  12
ATOM     12  C   LIG    1        0.718  -0.497  -1.257  0.00  0.00    -0.000 C 
BRANCH  12  14
ATOM     13  C   LIG    1       -0.019   1.526   0.010  0.00  0.00    +0.004 C 
ATOM     14  C   LIG    1        0.002  -0.004   0.002  0.00  0.00    -0.003 C 
ENDBRANCH  12  14
ENDBRANCH  11  12
ENDBRANCH  10  11
ENDBRANCH   7  10
ENDBRANCH   1   7
BRANCH   5  15
ATOM     15  O   LIG    1        5.620  -5.806  -4.422  0.00  0.00    -0.486 OA
BRANCH  15  16
ATOM     16  C   LIG    1        6.327  -6.253  -5.580  0.00  0.00    +0.284 C 
BRANCH  16  17
ATOM     17  C   LIG    1        7.723  -6.663  -5.189  0.00  0.00    +0.079 A 
ATOM     18  C   LIG    1        8.110  -6.566  -3.853  0.00  0.00    +0.027 A 
ATOM     19  C   LIG    1        9.371  -6.934  -3.481  0.00  0.00    +0.012 A 
ATOM     20  C   LIG    1       10.248  -7.404  -4.476  0.00  0.00    +0.000 A 
ATOM     21  C   LIG    1       11.559  -7.800  -4.168  0.00  0.00    +0.010 A 
ATOM     22  C   LIG    1       12.376  -8.250  -5.160  0.00  0.00    +0.001 A 
ATOM     23  C   LIG    1       11.929  -8.323  -6.478  0.00  0.00    +0.002 A 
ATOM     24  C   LIG    1       10.664  -7.947  -6.811  0.00  0.00    +0.028 A 
ATOM     25  C   LIG    1        9.790  -7.477  -5.815  0.00  0.00    +0.071 A 
ATOM     26  N   LIG    1        8.541  -7.107  -6.113  0.00  0.00    -0.248 NA
ENDBRANCH  16  17
ENDBRANCH  15  16
ENDBRANCH   5  15
TORSDOF 9
