REMARK  Name = ZINC02530708
REMARK                            x       y       z     vdW  Elec       q    Type
REMARK                         _______ _______ _______ _____ _____    ______ ____
ROOT
ATOM      1  C   LIG    1       -0.017   1.367   0.010  0.00  0.00    +0.134 A 
ATOM      2  C   LIG    1        1.148   2.051   0.002  0.00  0.00    +0.204 A 
ATOM      3  F   LIG    1        1.149   3.402   0.009  0.00  0.00    -0.198 F 
ATOM      4  C   LIG    1        2.369   1.332  -0.013  0.00  0.00    +0.289 A 
ATOM      5  N   LIG    1        2.344  -0.016  -0.020  0.00  0.00    -0.273 N 
ATOM      6  C   LIG    1        1.169  -0.673  -0.013  0.00  0.00    +0.329 A 
ATOM      7  O   LIG    1        1.163  -1.889  -0.019  0.00  0.00    -0.246 OA
ATOM      8  H   LIG    1        3.176  -0.515  -0.031  0.00  0.00    +0.174 HD
ATOM      9  O   LIG    1        3.432   1.926  -0.020  0.00  0.00    -0.265 OA
ATOM     10  N   LIG    1        0.002  -0.004   0.002  0.00  0.00    -0.299 N 
ENDROOT
BRANCH  10  11
ATOM     11  C   LIG    1       -1.260  -0.747   0.011  0.00  0.00    +0.121 C 
BRANCH  11  12
ATOM     12  CA  LIG    1       -1.714  -0.998  -1.429  0.00  0.00    +0.056 C 
BRANCH  12  13
ATOM     13  N   LIG    1       -1.792   0.281  -2.148  0.00  0.00    +0.388 N 
ATOM     14  H1  LIG    1       -2.455   0.886  -1.687  0.00  0.00    -0.089 HD
ATOM     15  H2  LIG    1       -2.091   0.115  -3.097  0.00  0.00    -0.089 HD
ATOM     16  H3  LIG    1       -0.883   0.719  -2.153  0.00  0.00    -0.089 HD
ENDBRANCH  12  13
BRANCH  12  17
ATOM     17  C   LIG    1       -3.072  -1.653  -1.421  0.00  0.00    +0.292 C 
ATOM     18  O   LIG    1       -4.051  -1.032  -1.798  0.00  0.00    -0.253 OA
BRANCH  17  19
ATOM     19  OXT LIG    1       -3.191  -2.804  -1.037  0.00  0.00    -0.482 OA
ATOM     20  HXT LIG    1       -2.438  -3.281  -0.746  0.00  0.00    +0.295 HD
ENDBRANCH  17  19
ENDBRANCH  12  17
ENDBRANCH  11  12
ENDBRANCH  10  11
TORSDOF 5
