REMARK  Name = ZINC02568051
REMARK                            x       y       z     vdW  Elec       q    Type
REMARK                         _______ _______ _______ _____ _____    ______ ____
ROOT
ATOM      1  C   LIG    1       -0.017   1.378   0.010  0.00  0.00    +0.009 A 
ATOM      2  C   LIG    1        1.169   2.087   0.002  0.00  0.00    +0.046 A 
ATOM      3  C   LIG    1        2.380   1.409  -0.013  0.00  0.00    +0.117 A 
ATOM      4  C   LIG    1        2.396   0.022  -0.021  0.00  0.00    +0.046 A 
ATOM      5  C   LIG    1        1.207  -0.681  -0.013  0.00  0.00    +0.009 A 
ATOM      6  C   LIG    1        0.002  -0.004   0.002  0.00  0.00    -0.027 A 
ENDROOT
BRANCH   3   7
ATOM      7  O   LIG    1        3.548   2.104  -0.021  0.00  0.00    -0.507 OA
ATOM      8  H   LIG    1        3.895   2.300   0.860  0.00  0.00    +0.292 HD
ENDBRANCH   3   7
BRANCH   6   9
ATOM      9  C   LIG    1       -1.293  -0.774   0.011  0.00  0.00    +0.158 C 
BRANCH   9  10
ATOM     10  N   LIG    1       -1.727  -1.016  -1.368  0.00  0.00    -0.322 N 
ATOM     11  C   LIG    1       -2.536  -0.183  -2.125  0.00  0.00    +0.106 A 
ATOM     12  C   LIG    1       -2.701  -0.748  -3.317  0.00  0.00    +0.102 A 
ATOM     13  N   LIG    1       -1.998  -1.942  -3.325  0.00  0.00    -0.340 N 
ATOM     14  H   LIG    1       -1.940  -2.565  -4.066  0.00  0.00    +0.167 HD
ATOM     15  C   LIG    1       -1.404  -2.084  -2.123  0.00  0.00    +0.158 A 
ATOM     16  S   LIG    1       -0.415  -3.396  -1.639  0.00  0.00    -0.013 S 
ENDBRANCH   9  10
ENDBRANCH   6   9
TORSDOF 3
