REMARK  Name = ZINC02570817
REMARK                            x       y       z     vdW  Elec       q    Type
REMARK                         _______ _______ _______ _____ _____    ______ ____
ROOT
ATOM      1  C   LIG    1        0.009   1.389  -0.009  0.00  0.00    +0.001 A 
ATOM      2  C   LIG    1        1.194   2.107   0.052  0.00  0.00    +0.006 A 
ATOM      3  C   LIG    1        2.408   1.453   0.088  0.00  0.00    -0.015 A 
ATOM      4  C   LIG    1        2.451   0.064   0.061  0.00  0.00    +0.039 A 
ATOM      5  C   LIG    1        1.253  -0.667  -0.001  0.00  0.00    +0.043 A 
ATOM      6  C   LIG    1        0.031   0.012  -0.036  0.00  0.00    +0.013 A 
ENDROOT
BRANCH   4   7
ATOM      7  N   LIG    1        3.671  -0.597   0.096  0.00  0.00    -0.357 N 
ATOM      8  H   LIG    1        3.697  -1.564   0.153  0.00  0.00    +0.142 HD
ATOM      9  H   LIG    1        4.498  -0.090   0.063  0.00  0.00    +0.142 HD
ENDBRANCH   4   7
BRANCH   5  10
ATOM     10  C   LIG    1        1.284  -2.140  -0.030  0.00  0.00    +0.195 C 
ATOM     11  O   LIG    1        1.078  -2.732  -1.072  0.00  0.00    -0.287 OA
BRANCH  10  12
ATOM     12  C   LIG    1        1.566  -2.897   1.207  0.00  0.00    +0.022 A 
ATOM     13  C   LIG    1        1.685  -2.228   2.428  0.00  0.00    +0.013 A 
ATOM     14  C   LIG    1        1.948  -2.941   3.579  0.00  0.00    +0.016 A 
ATOM     15  C   LIG    1        2.094  -4.317   3.526  0.00  0.00    +0.018 A 
ATOM     16 BR   LIG    1        2.456  -5.286   5.109  0.00  0.00    -0.050 Br
ATOM     17  C   LIG    1        1.978  -4.986   2.319  0.00  0.00    +0.016 A 
ATOM     18  C   LIG    1        1.709  -4.286   1.162  0.00  0.00    +0.013 A 
ENDBRANCH  10  12
ENDBRANCH   5  10
BRANCH   3  19
ATOM     19  C   LIG    1        3.688   2.245   0.154  0.00  0.00    +0.157 C 
BRANCH  19  20
ATOM     20  C   LIG    1        4.236   2.432  -1.237  0.00  0.00    +0.309 C 
ATOM     21  O   LIG    1        3.642   1.965  -2.194  0.00  0.00    -0.251 OA
BRANCH  20  22
ATOM     22  O   LIG    1        5.274   3.050  -1.405  0.00  0.00    -0.480 OA
ATOM     23  H   LIG    1        5.730   3.408  -0.670  0.00  0.00    +0.295 HD
ENDBRANCH  20  22
ENDBRANCH  19  20
ENDBRANCH   3  19
TORSDOF 6
