REMARK  Name = ZINC02510054
REMARK                            x       y       z     vdW  Elec       q    Type
REMARK                         _______ _______ _______ _____ _____    ______ ____
ROOT
ATOM      1  N   LIG    1        1.626  -0.818   0.586  0.00  0.00    -0.245 N 
ATOM      2  H   LIG    1        1.274  -0.628  -0.297  0.00  0.00    +0.265 HD
ENDROOT
BRANCH   1   8
ATOM      3  C   LIG    1        4.349   1.441   1.588  0.00  0.00    +0.003 A 
ATOM      4  C   LIG    1        5.410   0.556   1.661  0.00  0.00    +0.002 A 
ATOM      5  C   LIG    1        5.218  -0.783   1.378  0.00  0.00    +0.023 A 
ATOM      6  C   LIG    1        3.965  -1.243   1.021  0.00  0.00    +0.079 A 
ATOM      7 CL   LIG    1        3.724  -2.925   0.664  0.00  0.00    -0.080 Cl
ATOM      8  C   LIG    1        2.897  -0.356   0.947  0.00  0.00    +0.118 A 
ATOM      9  C   LIG    1        3.095   0.989   1.228  0.00  0.00    +0.043 A 
ENDBRANCH   1   8
BRANCH   1  10
ATOM     10  C   LIG    1        0.875  -1.541   1.485  0.00  0.00    +0.346 C 
ATOM     11  N   LIG    1       -0.284  -2.100   1.170  0.00  0.00    -0.292 N 
ATOM     12  H   LIG    1       -0.768  -2.696   1.851  0.00  0.00    +0.255 HD
ATOM     13  H   LIG    1       -0.695  -1.938   0.251  0.00  0.00    +0.255 HD
BRANCH  10  14
ATOM     14  N   LIG    1        1.325  -1.715   2.773  0.00  0.00    -0.292 N 
ATOM     15  H   LIG    1        2.170  -1.327   3.048  0.00  0.00    +0.255 HD
ATOM     16  H   LIG    1        0.795  -2.224   3.407  0.00  0.00    +0.255 HD
ENDBRANCH  10  14
ENDBRANCH   1  10
TORSDOF 3
