REMARK  Name = ZINC02627968
REMARK                            x       y       z     vdW  Elec       q    Type
REMARK                         _______ _______ _______ _____ _____    ______ ____
ROOT
ATOM      1  N   LIG    1        1.785   3.153  -2.416  0.00  0.00    -0.327 N 
ATOM      2  C   LIG    1        0.675   4.047  -2.770  0.00  0.00    +0.124 C 
ATOM      3  C   LIG    1        0.543   5.139  -1.704  0.00  0.00    +0.127 C 
ATOM      4  N   LIG    1        1.847   5.800  -1.547  0.00  0.00    -0.294 N 
ATOM      5  C   LIG    1        1.954   7.142  -1.604  0.00  0.00    +0.254 C 
ATOM      6  O   LIG    1        0.975   7.821  -1.848  0.00  0.00    -0.270 OA
ATOM      7  C   LIG    1        3.032   4.957  -1.325  0.00  0.00    +0.127 C 
ATOM      8  C   LIG    1        3.067   3.872  -2.406  0.00  0.00    +0.124 C 
ENDROOT
BRANCH   5   9
ATOM      9  C   LIG    1        3.258   7.787  -1.371  0.00  0.00    +0.122 A 
ATOM     10  C   LIG    1        4.134   7.284  -0.425  0.00  0.00    +0.031 A 
ATOM     11  C   LIG    1        5.378   7.937  -0.234  0.00  0.00    +0.018 A 
ATOM     12  C   LIG    1        6.290   7.454   0.717  0.00  0.00    +0.011 A 
ATOM     13  C   LIG    1        7.485   8.087   0.896  0.00  0.00    +0.001 A 
ATOM     14  C   LIG    1        7.807   9.209   0.144  0.00  0.00    +0.004 A 
ATOM     15  C   LIG    1        6.927   9.701  -0.796  0.00  0.00    +0.047 A 
ATOM     16  C   LIG    1        5.702   9.073  -0.997  0.00  0.00    +0.139 A 
ATOM     17  O   LIG    1        4.841   9.557  -1.917  0.00  0.00    -0.422 OA
ATOM     18  C   LIG    1        3.653   8.972  -2.142  0.00  0.00    +0.350 A 
ATOM     19  O   LIG    1        2.900   9.428  -2.982  0.00  0.00    -0.244 OA
ENDBRANCH   5   9
BRANCH   1  23
ATOM     20  C   LIG    1        1.934  -0.132  -4.978  0.00  0.00    +0.120 A 
ATOM     21  C   LIG    1        0.771   0.148  -4.276  0.00  0.00    +0.047 A 
ATOM     22  C   LIG    1        0.721   1.236  -3.427  0.00  0.00    +0.027 A 
ATOM     23  C   LIG    1        1.835   2.050  -3.275  0.00  0.00    +0.030 A 
ATOM     24  C   LIG    1        3.000   1.768  -3.977  0.00  0.00    +0.027 A 
ATOM     25  C   LIG    1        3.048   0.680  -4.827  0.00  0.00    +0.047 A 
BRANCH  20  27
ATOM     26  C   LIG    1        3.212  -1.432  -6.505  0.00  0.00    +0.277 C 
ATOM     27  O   LIG    1        1.982  -1.203  -5.814  0.00  0.00    -0.495 OA
ENDBRANCH  20  27
ENDBRANCH   1  23
TORSDOF 3
