REMARK  Name = ZINC02601603
REMARK                            x       y       z     vdW  Elec       q    Type
REMARK                         _______ _______ _______ _____ _____    ______ ____
ROOT
ATOM      1  C   LIG    1       -1.311   3.793   0.037  0.00  0.00    +0.138 C 
ATOM      2  C   LIG    1        0.037   4.466   0.033  0.00  0.00    +0.036 C 
ATOM      3  C   LIG    1        1.176   3.745   0.013  0.00  0.00    +0.018 C 
ATOM      4  N   LIG    1        1.140   2.377   0.004  0.00  0.00    -0.300 N 
ATOM      5  H   LIG    1        2.078   1.802  -0.010  0.00  0.00    +0.154 HD
ATOM      6  C   LIG    1       -0.021   1.708   0.011  0.00  0.00    +0.135 C 
ATOM      7  S   LIG    1        0.002  -0.004   0.002  0.00  0.00    -0.019 S 
ATOM      8  C   LIG    1        2.525   4.424  -0.004  0.00  0.00    +0.051 C 
ATOM      9  C   LIG    1        2.439   5.756   0.744  0.00  0.00    +0.014 C 
ATOM     10  C   LIG    1        1.373   6.623   0.067  0.00  0.00    +0.080 C 
ATOM     11  C   LIG    1        0.070   5.873   0.050  0.00  0.00    +0.163 C 
ATOM     12  O   LIG    1       -0.975   6.493   0.052  0.00  0.00    -0.292 OA
ATOM     13  N   LIG    1       -1.199   2.344   0.021  0.00  0.00    -0.315 N 
ATOM     14  H   LIG    1       -2.106   1.722   0.015  0.00  0.00    +0.149 HD
ENDROOT
BRANCH   1  17
ATOM     15  C   LIG    1       -2.483   4.002   3.621  0.00  0.00    +0.004 A 
ATOM     16  C   LIG    1       -1.797   3.612   2.486  0.00  0.00    +0.006 A 
ATOM     17  C   LIG    1       -2.066   4.216   1.271  0.00  0.00    -0.019 A 
ATOM     18  C   LIG    1       -3.029   5.203   1.187  0.00  0.00    +0.051 A 
ATOM     19  C   LIG    1       -3.723   5.592   2.324  0.00  0.00    +0.117 A 
ATOM     20  C   LIG    1       -3.447   4.989   3.542  0.00  0.00    +0.045 A 
BRANCH  19  21
ATOM     21  O   LIG    1       -4.670   6.563   2.244  0.00  0.00    -0.507 OA
ATOM     22  H   LIG    1       -5.220   6.871   3.146  0.00  0.00    +0.292 HD
ENDBRANCH  19  21
ENDBRANCH   1  17
TORSDOF 2
