REMARK  Name = ZINC03083921
REMARK                            x       y       z     vdW  Elec       q    Type
REMARK                         _______ _______ _______ _____ _____    ______ ____
ROOT
ATOM      1  N   LIG    1        1.411  -0.195   0.097  0.00  0.00    -0.207 N 
ATOM      2  H   LIG    1        2.285   0.224   0.074  0.00  0.00    +0.177 HD
ATOM      3  C   LIG    1        1.306  -1.538   0.090  0.00  0.00    +0.233 C 
ATOM      4  O   LIG    1        0.213  -2.062   0.119  0.00  0.00    -0.274 OA
ENDROOT
BRANCH   1   6
ATOM      5  C   LIG    1        0.356   1.895   0.143  0.00  0.00    +0.139 C 
ATOM      6  N   LIG    1        0.255   0.597   0.137  0.00  0.00    -0.188 NA
BRANCH   5  19
ATOM      7  C   LIG    1       -0.595   6.895   0.558  0.00  0.00    +0.001 A 
ATOM      8  C   LIG    1        0.558   6.111   0.524  0.00  0.00    +0.001 A 
ATOM      9  C   LIG    1        0.497   4.758   0.402  0.00  0.00    +0.009 A 
ATOM     10  C   LIG    1       -0.754   4.124   0.312  0.00  0.00    -0.009 A 
ATOM     11  C   LIG    1       -1.966   4.945   0.343  0.00  0.00    -0.017 A 
ATOM     12  C   LIG    1       -3.224   4.349   0.250  0.00  0.00    +0.017 A 
ATOM     13  C   LIG    1       -3.331   2.963   0.123  0.00  0.00    -0.017 A 
ATOM     14  C   LIG    1       -4.593   2.338   0.028  0.00  0.00    +0.008 A 
ATOM     15  C   LIG    1       -4.663   0.987  -0.096  0.00  0.00    +0.001 A 
ATOM     16  C   LIG    1       -3.517   0.195  -0.131  0.00  0.00    +0.001 A 
ATOM     17  C   LIG    1       -2.272   0.737  -0.043  0.00  0.00    +0.009 A 
ATOM     18  C   LIG    1       -2.128   2.129   0.086  0.00  0.00    -0.009 A 
ATOM     19  C   LIG    1       -0.853   2.724   0.179  0.00  0.00    +0.010 A 
ATOM     20  C   LIG    1       -1.833   6.344   0.471  0.00  0.00    +0.008 A 
ENDBRANCH   5  19
ENDBRANCH   1   6
BRANCH   3  21
ATOM     21  C   LIG    1        2.549  -2.390   0.047  0.00  0.00    +0.107 C 
BRANCH  21  22
ATOM     22  C   LIG    1        2.154  -3.868   0.049  0.00  0.00    +0.105 C 
BRANCH  22  23
ATOM     23  C   LIG    1        3.397  -4.720   0.006  0.00  0.00    +0.218 C 
ATOM     24  N   LIG    1        3.293  -6.064  -0.001  0.00  0.00    -0.285 N 
ATOM     25  H   LIG    1        2.420  -6.482  -0.057  0.00  0.00    +0.155 HD
ATOM     26  O   LIG    1        4.490  -4.196  -0.023  0.00  0.00    -0.275 OA
BRANCH  24  27
ATOM     27  C   LIG    1        4.445  -6.855   0.073  0.00  0.00    +0.035 A 
ATOM     28  C   LIG    1        4.502  -8.066  -0.604  0.00  0.00    +0.023 A 
ATOM     29  C   LIG    1        5.641  -8.842  -0.534  0.00  0.00    +0.003 A 
ATOM     30  C   LIG    1        6.722  -8.421   0.219  0.00  0.00    +0.020 A 
ATOM     31  C   LIG    1        6.667  -7.218   0.900  0.00  0.00    +0.043 A 
ATOM     32 CL   LIG    1        8.025  -6.692   1.845  0.00  0.00    -0.083 Cl
ATOM     33  C   LIG    1        5.530  -6.433   0.829  0.00  0.00    +0.043 A 
ENDBRANCH  24  27
ENDBRANCH  22  23
ENDBRANCH  21  22
ENDBRANCH   3  21
TORSDOF 6
