REMARK  Name = ZINC02585424
REMARK                            x       y       z     vdW  Elec       q    Type
REMARK                         _______ _______ _______ _____ _____    ______ ____
ROOT
ATOM      1  C   LIG    1        1.403   3.582  -0.012  0.00  0.00    -0.011 C 
ATOM      2  C   LIG    1        1.419   2.052  -0.001  0.00  0.00    -0.043 C 
ATOM      3  N   LIG    1        2.116   1.567  -1.207  0.00  0.00    +0.384 N 
ATOM      4  H   LIG    1        1.606   1.881  -2.041  0.00  0.00    -0.085 HD
ATOM      5  H   LIG    1        3.068   1.951  -1.224  0.00  0.00    -0.085 HD
ATOM      6  C   LIG    1        2.186   0.094  -1.205  0.00  0.00    -0.048 C 
ATOM      7  C   LIG    1        0.771  -0.489  -1.230  0.00  0.00    +0.128 C 
ATOM      8  C   LIG    1        0.002  -0.004   0.002  0.00  0.00    +0.168 C 
ATOM      9  C   LIG    1       -0.019   1.527   0.010  0.00  0.00    +0.131 C 
ENDROOT
BRANCH   7  10
ATOM     10  O   LIG    1        0.843  -1.917  -1.216  0.00  0.00    -0.391 OA
ATOM     11  H   LIG    1        1.318  -2.294  -1.969  0.00  0.00    +0.210 HD
ENDBRANCH   7  10
BRANCH   8  12
ATOM     12  O   LIG    1       -1.337  -0.500  -0.044  0.00  0.00    -0.387 OA
ATOM     13  H   LIG    1       -1.400  -1.464  -0.051  0.00  0.00    +0.210 HD
ENDBRANCH   8  12
BRANCH   9  14
ATOM     14  O   LIG    1       -0.709   2.001  -1.148  0.00  0.00    -0.391 OA
ATOM     15  H   LIG    1       -1.627   1.704  -1.208  0.00  0.00    +0.210 HD
ENDBRANCH   9  14
TORSDOF 3
