REMARK  Name = ZINC02516056
REMARK                            x       y       z     vdW  Elec       q    Type
REMARK                         _______ _______ _______ _____ _____    ______ ____
ROOT
ATOM      1  C   LIG    1       -2.551  -4.195   0.004  0.00  0.00    -0.007 A 
ATOM      2  C   LIG    1       -2.544  -5.060  -1.179  0.00  0.00    +0.007 A 
ATOM      3  C   LIG    1       -2.554  -4.820  -2.555  0.00  0.00    +0.056 A 
ATOM      4  C   LIG    1       -2.543  -5.885  -3.433  0.00  0.00    +0.121 A 
ATOM      5  C   LIG    1       -2.523  -7.191  -2.951  0.00  0.00    +0.047 A 
ATOM      6  C   LIG    1       -2.514  -7.439  -1.597  0.00  0.00    +0.030 A 
ATOM      7  C   LIG    1       -2.524  -6.380  -0.696  0.00  0.00    +0.048 A 
ATOM      8  N   LIG    1       -2.519  -6.309   0.682  0.00  0.00    -0.349 N 
ATOM      9  H   LIG    1       -2.506  -7.073   1.280  0.00  0.00    +0.166 HD
ATOM     10  C   LIG    1       -2.529  -5.000   1.079  0.00  0.00    +0.082 A 
ATOM     11  I   LIG    1       -2.517  -4.346   3.070  0.00  0.00    -0.024 I 
ENDROOT
BRANCH   4  12
ATOM     12  O   LIG    1       -2.553  -5.657  -4.773  0.00  0.00    -0.495 OA
ATOM     13  C   LIG    1       -2.541  -6.804  -5.626  0.00  0.00    +0.277 C 
ENDBRANCH   4  12
BRANCH   1  14
ATOM     14  C   LIG    1       -2.571  -2.688   0.012  0.00  0.00    +0.057 C 
BRANCH  14  15
ATOM     15  C   LIG    1       -1.136  -2.159   0.001  0.00  0.00    +0.109 C 
BRANCH  15  18
ATOM     16  C   LIG    1       -0.018   1.503   0.010  0.00  0.00    +0.109 C 
ATOM     17  C   LIG    1        0.002  -0.004   0.002  0.00  0.00    +0.210 C 
ATOM     18  N   LIG    1       -1.156  -0.694   0.009  0.00  0.00    -0.315 N 
ATOM     19  H   LIG    1       -2.002  -0.220   0.020  0.00  0.00    +0.149 HD
ATOM     20  O   LIG    1        1.060  -0.596  -0.011  0.00  0.00    -0.276 OA
ENDBRANCH  15  18
ENDBRANCH  14  15
ENDBRANCH   1  14
TORSDOF 4
