REMARK  Name = ZINC02965966
REMARK                            x       y       z     vdW  Elec       q    Type
REMARK                         _______ _______ _______ _____ _____    ______ ____
ROOT
ATOM      1  N   LIG    1        4.158  -1.349   2.015  0.00  0.00    -0.194 N 
ENDROOT
BRANCH   1   2
ATOM      2  C   LIG    1        4.883  -0.188   2.295  0.00  0.00    +0.052 A 
ATOM      3  C   LIG    1        6.191  -0.059   1.846  0.00  0.00    +0.025 A 
ATOM      4  C   LIG    1        6.905   1.089   2.125  0.00  0.00    +0.005 A 
ATOM      5  C   LIG    1        6.320   2.110   2.851  0.00  0.00    -0.050 A 
ATOM      6  C   LIG    1        7.102   3.362   3.154  0.00  0.00    +0.044 C 
ATOM      7  C   LIG    1        5.017   1.985   3.299  0.00  0.00    +0.005 A 
ATOM      8  C   LIG    1        4.296   0.842   3.019  0.00  0.00    +0.025 A 
ENDBRANCH   1   2
BRANCH   1   9
ATOM      9  S   LIG    1        4.599  -2.788   2.705  0.00  0.00    +0.075 S 
ATOM     10  O   LIG    1        3.409  -3.553   2.844  0.00  0.00    -0.150 OA
ATOM     11  O   LIG    1        5.434  -2.470   3.809  0.00  0.00    -0.150 OA
BRANCH   9  12
ATOM     12  C   LIG    1        5.610  -3.637   1.538  0.00  0.00    +0.109 A 
ATOM     13  C   LIG    1        5.026  -4.378   0.527  0.00  0.00    +0.029 A 
ATOM     14  C   LIG    1        5.819  -5.044  -0.388  0.00  0.00    +0.005 A 
ATOM     15  C   LIG    1        7.196  -4.969  -0.294  0.00  0.00    -0.050 A 
ATOM     16  C   LIG    1        8.060  -5.696  -1.292  0.00  0.00    +0.044 C 
ATOM     17  C   LIG    1        7.780  -4.227   0.716  0.00  0.00    +0.005 A 
ATOM     18  C   LIG    1        6.987  -3.557   1.629  0.00  0.00    +0.029 A 
ENDBRANCH   9  12
ENDBRANCH   1   9
BRANCH   1  19
ATOM     19  C   LIG    1        3.007  -1.292   1.110  0.00  0.00    +0.227 C 
BRANCH  19  21
ATOM     20  N   LIG    1        2.591  -1.391  -1.327  0.00  0.00    -0.301 N 
ATOM     21  C   LIG    1        3.482  -1.417  -0.315  0.00  0.00    +0.235 C 
ATOM     22  O   LIG    1        4.665  -1.542  -0.551  0.00  0.00    -0.274 OA
BRANCH  20  24
ATOM     23  C   LIG    1        3.347  -0.122  -3.275  0.00  0.00    +0.024 C 
ATOM     24  C   LIG    1        3.053  -1.513  -2.712  0.00  0.00    +0.104 C 
ENDBRANCH  20  24
BRANCH  20  25
ATOM     25  C   LIG    1        1.162  -1.242  -1.041  0.00  0.00    +0.104 C 
ATOM     26  C   LIG    1        0.530  -2.623  -0.860  0.00  0.00    +0.024 C 
ENDBRANCH  20  25
ENDBRANCH  19  21
ENDBRANCH   1  19
TORSDOF 7
