REMARK  Name = ZINC02567709
REMARK                            x       y       z     vdW  Elec       q    Type
REMARK                         _______ _______ _______ _____ _____    ______ ____
ROOT
ATOM      1  C   LIG    1       -0.904  -0.304  -1.242  0.00  0.00    +0.007 C 
ATOM      2  C   LIG    1       -0.882   1.182  -0.880  0.00  0.00    -0.014 C 
ATOM      3  C   LIG    1       -1.080   2.018  -2.146  0.00  0.00    +0.002 C 
ATOM      4  C   LIG    1        0.047   1.719  -3.136  0.00  0.00    -0.007 C 
ATOM      5  C   LIG    1        1.393   2.069  -2.499  0.00  0.00    -0.039 C 
ATOM      6  C   LIG    1        1.591   1.232  -1.233  0.00  0.00    -0.007 C 
ATOM      7  C   LIG    1        0.464   1.532  -0.242  0.00  0.00    +0.002 C 
ENDROOT
BRANCH   5   8
ATOM      8  N   LIG    1        1.394   3.499  -2.128  0.00  0.00    +0.386 N 
ATOM      9  H   LIG    1        0.744   3.641  -1.346  0.00  0.00    -0.081 HD
ATOM     10  C   LIG    1        2.750   3.910  -1.705  0.00  0.00    -0.078 C 
ATOM     11  C   LIG    1        2.700   5.358  -1.215  0.00  0.00    -0.019 C 
ATOM     12  C   LIG    1        2.219   6.261  -2.354  0.00  0.00    -0.004 C 
ATOM     13  C   LIG    1        0.846   5.779  -2.832  0.00  0.00    -0.019 C 
ATOM     14  C   LIG    1        0.950   4.319  -3.276  0.00  0.00    -0.078 C 
ENDBRANCH   5   8
BRANCH   5  15
ATOM     15  C   LIG    1        2.503   1.774  -3.474  0.00  0.00    -0.058 A 
ATOM     16  C   LIG    1        3.187   2.812  -4.078  0.00  0.00    +0.002 A 
ATOM     17  C   LIG    1        4.208   2.542  -4.969  0.00  0.00    +0.000 A 
ATOM     18  C   LIG    1        4.538   1.232  -5.265  0.00  0.00    +0.000 A 
ATOM     19  C   LIG    1        3.850   0.194  -4.666  0.00  0.00    +0.000 A 
ATOM     20  C   LIG    1        2.833   0.464  -3.771  0.00  0.00    +0.002 A 
ENDBRANCH   5  15
TORSDOF 2
