REMARK  Name = ZINC02567976
REMARK                            x       y       z     vdW  Elec       q    Type
REMARK                         _______ _______ _______ _____ _____    ______ ____
ROOT
ATOM      1  C   LIG    1       -0.830   1.655   6.043  0.00  0.00    +0.012 C 
ATOM      2  C   LIG    1       -1.937   2.416   6.010  0.00  0.00    +0.008 C 
ENDROOT
BRANCH   1   7
ATOM      3  C   LIG    1       -0.148   1.182   2.380  0.00  0.00    +0.121 A 
ATOM      4  C   LIG    1        0.993   0.391   2.418  0.00  0.00    +0.049 A 
ATOM      5  C   LIG    1        1.545   0.020   3.630  0.00  0.00    +0.050 A 
ATOM      6  C   LIG    1        0.957   0.426   4.816  0.00  0.00    +0.127 A 
ATOM      7  C   LIG    1       -0.198   1.219   4.785  0.00  0.00    +0.020 A 
ATOM      8  C   LIG    1       -0.747   1.595   3.557  0.00  0.00    +0.057 A 
BRANCH   3  10
ATOM      9  C   LIG    1       -0.013   1.086   0.008  0.00  0.00    +0.277 C 
ATOM     10  O   LIG    1       -0.682   1.547   1.184  0.00  0.00    -0.495 OA
ENDBRANCH   3  10
BRANCH   6  11
ATOM     11  O   LIG    1        1.498   0.056   6.006  0.00  0.00    -0.495 OA
ATOM     12  C   LIG    1        2.675  -0.753   5.960  0.00  0.00    +0.277 C 
ENDBRANCH   6  11
ENDBRANCH   1   7
BRANCH   2  13
ATOM     13  C   LIG    1       -2.568   2.852   7.268  0.00  0.00    -0.025 A 
ATOM     14  C   LIG    1       -2.020   2.470   8.496  0.00  0.00    +0.010 A 
ATOM     15  C   LIG    1       -2.611   2.884   9.670  0.00  0.00    +0.023 A 
ATOM     16  C   LIG    1       -3.756   3.672   9.634  0.00  0.00    +0.025 A 
ATOM     17  C   LIG    1       -4.308   4.049   8.414  0.00  0.00    +0.023 A 
ATOM     18  C   LIG    1       -3.720   3.643   7.236  0.00  0.00    +0.010 A 
BRANCH  16  19
ATOM     19  N   LIG    1       -4.355   4.084  10.825  0.00  0.00    -0.358 N 
ATOM     20  H   LIG    1       -3.971   3.822  11.676  0.00  0.00    +0.142 HD
ATOM     21  H   LIG    1       -5.154   4.633  10.801  0.00  0.00    +0.142 HD
ENDBRANCH  16  19
ENDBRANCH   2  13
TORSDOF 5
