REMARK  Name = ZINC03632919
REMARK                            x       y       z     vdW  Elec       q    Type
REMARK                         _______ _______ _______ _____ _____    ______ ____
ROOT
ATOM      1  C   LIG    1        1.084  -4.751  -1.112  0.00  0.00    -0.047 A 
ATOM      2  C   LIG    1       -0.029  -4.172  -1.692  0.00  0.00    +0.004 A 
ATOM      3  C   LIG    1       -0.148  -2.796  -1.739  0.00  0.00    +0.004 A 
ATOM      4  C   LIG    1        0.847  -1.998  -1.206  0.00  0.00    -0.049 A 
ATOM      5  C   LIG    1        1.963  -2.577  -0.631  0.00  0.00    +0.004 A 
ATOM      6  C   LIG    1        2.080  -3.953  -0.580  0.00  0.00    +0.004 A 
ENDROOT
BRANCH   1   7
ATOM      7  C   LIG    1        1.213  -6.252  -1.060  0.00  0.00    +0.035 C 
BRANCH   7   9
ATOM      8  C   LIG    1        2.058  -8.270  -2.267  0.00  0.00    +0.004 C 
ATOM      9  C   LIG    1        1.928  -6.746  -2.319  0.00  0.00    +0.001 C 
ENDBRANCH   7   9
ENDBRANCH   1   7
BRANCH   4  10
ATOM     10  C   LIG    1        0.718  -0.497  -1.257  0.00  0.00    +0.019 C 
BRANCH  10  11
ATOM     11  C   LIG    1        0.002  -0.004   0.002  0.00  0.00    -0.071 C 
ATOM     12  C   LIG    1       -0.019   1.526   0.010  0.00  0.00    -0.013 C 
BRANCH  11  13
ATOM     13  N   LIG    1       -1.382  -0.515   0.004  0.00  0.00    +0.379 N 
ATOM     14  H   LIG    1       -1.976   0.115  -0.547  0.00  0.00    -0.086 HD
ATOM     15  H   LIG    1       -1.397  -1.453  -0.415  0.00  0.00    -0.086 HD
ATOM     16  C   LIG    1       -1.898  -0.590   1.383  0.00  0.00    -0.100 C 
ENDBRANCH  11  13
ENDBRANCH  10  11
ENDBRANCH   4  10
TORSDOF 5
