REMARK  Name = ZINC03171364
REMARK                            x       y       z     vdW  Elec       q    Type
REMARK                         _______ _______ _______ _____ _____    ______ ____
ROOT
ATOM      1  C   LIG    1       -0.100   5.117   0.114  0.00  0.00    -0.091 C 
ATOM      2  N   LIG    1       -0.077   3.648   0.104  0.00  0.00    +0.383 N 
ATOM      3  C   LIG    1        1.317   3.200   0.094  0.00  0.00    -0.074 C 
ATOM      4  C   LIG    1        1.406   1.677  -0.002  0.00  0.00    -0.007 C 
ATOM      5  C   LIG    1       -0.013   1.086   0.008  0.00  0.00    +0.050 C 
ATOM      6  C   LIG    1       -0.711   1.638   1.247  0.00  0.00    +0.120 C 
ATOM      7  O   LIG    1       -1.174   0.929   2.108  0.00  0.00    -0.299 OA
ATOM      8  C   LIG    1       -0.752   1.656  -1.215  0.00  0.00    -0.007 C 
ATOM      9  C   LIG    1       -0.761   3.156   1.312  0.00  0.00    +0.000 C 
ATOM     10  C   LIG    1       -0.780   3.174  -1.088  0.00  0.00    -0.074 C 
ENDROOT
TORSDOF 0
