REMARK  Name = ZINC03097194
REMARK                            x       y       z     vdW  Elec       q    Type
REMARK                         _______ _______ _______ _____ _____    ______ ____
ROOT
ATOM      1  C   LIG    1        1.167   3.150   0.451  0.00  0.00    +0.009 A 
ATOM      2  C   LIG    1       -0.026   3.788   0.628  0.00  0.00    +0.018 A 
ATOM      3  C   LIG    1       -1.222   3.079   0.515  0.00  0.00    +0.045 A 
ATOM      4  C   LIG    1       -1.205   1.717   0.216  0.00  0.00    +0.136 A 
ATOM      5  C   LIG    1       -0.018   1.069   0.042  0.00  0.00    +0.041 A 
ATOM      6  C   LIG    1        1.190   1.778   0.154  0.00  0.00    -0.022 A 
ENDROOT
BRANCH   6   7
ATOM      7  C   LIG    1        2.427   1.110  -0.030  0.00  0.00    +0.026 C 
ATOM      8  C   LIG    1        3.416   1.688  -0.805  0.00  0.00    +0.101 C 
ATOM      9  C   LIG    1        3.140   2.857  -1.661  0.00  0.00    +0.256 C 
ATOM     10  N   LIG    1        4.155   3.372  -2.385  0.00  0.00    -0.238 N 
ATOM     11  H   LIG    1        3.985   4.249  -3.026  0.00  0.00    +0.159 HD
ATOM     12  C   LIG    1        5.385   2.838  -2.345  0.00  0.00    +0.278 C 
ATOM     13  N   LIG    1        5.707   1.775  -1.595  0.00  0.00    -0.127 NA
ATOM     14  O   LIG    1        2.027   3.347  -1.710  0.00  0.00    -0.270 OA
ATOM     15  C   LIG    1        4.794   1.160  -0.815  0.00  0.00    +0.276 C 
ATOM     16  O   LIG    1        5.099   0.196  -0.139  0.00  0.00    -0.268 OA
BRANCH  12  17
ATOM     17  O   LIG    1        6.254   3.347  -3.026  0.00  0.00    -0.483 OA
ATOM     18  H   LIG    1        6.056   4.091  -3.559  0.00  0.00    +0.295 HD
ENDBRANCH  12  17
ENDBRANCH   6   7
BRANCH   4  19
ATOM     19  N   LIG    1       -2.478   0.973   0.091  0.00  0.00    +0.007 N 
ATOM     20  O   LIG    1       -2.465  -0.217  -0.166  0.00  0.00    -0.130 OA
BRANCH  19  21
ATOM     21  O   LIG    1       -3.539   1.551   0.246  0.00  0.00    -0.396 OA
ATOM     22  H   LIG    1       -3.549   2.467   0.445  0.00  0.00    +0.329 HD
ENDBRANCH  19  21
ENDBRANCH   4  19
BRANCH   3  23
ATOM     23  S   LIG    1       -2.759   3.909   0.746  0.00  0.00    -0.060 S 
BRANCH  23  24
ATOM     24  C   LIG    1       -3.174   3.340   2.361  0.00  0.00    +0.140 A 
ATOM     25  N   LIG    1       -2.467   2.594   3.179  0.00  0.00    -0.232 NA
ATOM     26  C   LIG    1       -2.914   2.234   4.402  0.00  0.00    +0.080 A 
ATOM     27  C   LIG    1       -2.256   1.446   5.374  0.00  0.00    +0.031 A 
ATOM     28  C   LIG    1       -2.858   1.166   6.573  0.00  0.00    +0.035 A 
ATOM     29  C   LIG    1       -4.125   1.643   6.877  0.00  0.00    +0.123 A 
ATOM     30  C   LIG    1       -4.797   2.418   5.949  0.00  0.00    +0.049 A 
ATOM     31  C   LIG    1       -4.202   2.703   4.745  0.00  0.00    +0.042 A 
ATOM     32  S   LIG    1       -4.668   3.624   3.300  0.00  0.00    -0.061 S 
BRANCH  29  33
ATOM     33  N   LIG    1       -4.751   1.327   8.180  0.00  0.00    +0.006 N 
ATOM     34  O   LIG    1       -5.863   1.749   8.440  0.00  0.00    -0.130 OA
BRANCH  33  35
ATOM     35  O   LIG    1       -4.153   0.644   8.992  0.00  0.00    -0.396 OA
ATOM     36  H   LIG    1       -3.297   0.319   8.792  0.00  0.00    +0.329 HD
ENDBRANCH  33  35
ENDBRANCH  29  33
ENDBRANCH  23  24
ENDBRANCH   3  23
TORSDOF 8
