REMARK  Name = ZINC03596260
REMARK                            x       y       z     vdW  Elec       q    Type
REMARK                         _______ _______ _______ _____ _____    ______ ____
ROOT
ATOM      1  C   LIG    1       -0.018   1.461   0.010  0.00  0.00    +0.152 C 
ATOM      2  N   LIG    1        0.002  -0.004   0.002  0.00  0.00    -0.314 N 
ATOM      3  C   LIG    1       -1.195  -0.691   0.004  0.00  0.00    +0.055 A 
ATOM      4  C   LIG    1       -2.407  -0.007   0.013  0.00  0.00    +0.026 A 
ATOM      5  C   LIG    1       -3.593  -0.708   0.015  0.00  0.00    +0.002 A 
ATOM      6  C   LIG    1       -3.594  -2.096   0.008  0.00  0.00    +0.001 A 
ATOM      7  C   LIG    1       -2.406  -2.792  -0.001  0.00  0.00    +0.014 A 
ATOM      8  C   LIG    1       -1.198  -2.096  -0.004  0.00  0.00    +0.046 A 
ATOM      9  C   LIG    1        0.093  -2.809  -0.013  0.00  0.00    +0.208 A 
ATOM     10  O   LIG    1        0.138  -4.028  -0.020  0.00  0.00    -0.286 OA
ATOM     11  C   LIG    1        1.281  -2.032  -0.014  0.00  0.00    +0.174 A 
ATOM     12  C   LIG    1        1.194  -0.646  -0.013  0.00  0.00    +0.212 A 
ENDROOT
BRANCH  11  13
ATOM     13  C   LIG    1        2.598  -2.692  -0.024  0.00  0.00    +0.358 C 
ATOM     14  N   LIG    1        3.646  -1.928  -0.019  0.00  0.00    +0.096 NA
ATOM     15  S   LIG    1        5.172  -2.575  -0.040  0.00  0.00    +0.183 S 
ATOM     16  C   LIG    1        4.974  -4.269  -0.489  0.00  0.00    +0.179 A 
ATOM     17  C   LIG    1        6.055  -5.026  -0.881  0.00  0.00    +0.035 A 
ATOM     18  C   LIG    1        5.875  -6.353  -1.232  0.00  0.00    +0.002 A 
ATOM     19  C   LIG    1        4.613  -6.915  -1.190  0.00  0.00    +0.004 A 
ATOM     20  C   LIG    1        3.526  -6.159  -0.797  0.00  0.00    +0.051 A 
ATOM     21  C   LIG    1        3.701  -4.827  -0.441  0.00  0.00    +0.148 A 
ATOM     22  O   LIG    1        5.644  -2.555   1.301  0.00  0.00    -0.125 OA
ATOM     23  O   LIG    1        5.870  -1.947  -1.106  0.00  0.00    -0.125 OA
ATOM     24  N   LIG    1        2.614  -4.057  -0.031  0.00  0.00    -0.196 N 
ATOM     25  H   LIG    1        1.805  -4.528   0.273  0.00  0.00    +0.299 HD
ENDBRANCH  11  13
BRANCH  12  26
ATOM     26  O   LIG    1        2.329   0.082  -0.020  0.00  0.00    -0.493 OA
ATOM     27  H   LIG    1        2.286   1.018  -0.019  0.00  0.00    +0.294 HD
ENDBRANCH  12  26
TORSDOF 2
