REMARK  Name = ZINC02562448
REMARK                            x       y       z     vdW  Elec       q    Type
REMARK                         _______ _______ _______ _____ _____    ______ ____
ROOT
ATOM      1  C   LIG    1       -1.196  -0.739   0.009  0.00  0.00    +0.102 A 
ATOM      2  C   LIG    1       -1.142  -2.139  -0.103  0.00  0.00    +0.134 A 
ATOM      3  C   LIG    1        0.085  -2.794  -0.118  0.00  0.00    +0.047 A 
ATOM      4  C   LIG    1        1.251  -2.091  -0.024  0.00  0.00    +0.015 A 
ATOM      5  C   LIG    1        1.227  -0.694   0.088  0.00  0.00    +0.019 A 
ATOM      6  C   LIG    1        2.470   0.074   0.189  0.00  0.00    +0.018 A 
ATOM      7  C   LIG    1        2.381   1.426   0.296  0.00  0.00    +0.092 A 
ATOM      8  C   LIG    1        1.116   2.046   0.306  0.00  0.00    +0.337 A 
ATOM      9  O   LIG    1        1.049   3.259   0.402  0.00  0.00    -0.245 OA
ATOM     10  O   LIG    1       -0.018   1.334   0.214  0.00  0.00    -0.421 OA
ATOM     11  C   LIG    1        0.001  -0.009   0.106  0.00  0.00    +0.153 A 
ENDROOT
BRANCH   1  13
ATOM     12  C   LIG    1       -3.193   0.201   1.332  0.00  0.00    +0.092 C 
ATOM     13  C   LIG    1       -2.487  -0.048   0.025  0.00  0.00    +0.167 C 
ATOM     14  O   LIG    1       -2.988   0.325  -1.016  0.00  0.00    -0.292 OA
ENDBRANCH   1  13
BRANCH   2  15
ATOM     15  O   LIG    1       -2.289  -2.853  -0.196  0.00  0.00    -0.494 OA
ATOM     16  C   LIG    1       -2.163  -4.272  -0.308  0.00  0.00    +0.277 C 
ENDBRANCH   2  15
TORSDOF 2
