REMARK  Name = ZINC03609144
REMARK                            x       y       z     vdW  Elec       q    Type
REMARK                         _______ _______ _______ _____ _____    ______ ____
ROOT
ATOM      1  C   LIG    1       -2.680   3.583   0.047  0.00  0.00    +0.256 C 
ATOM      2  C   LIG    1       -1.236   3.152   0.031  0.00  0.00    +0.045 A 
ATOM      3  C   LIG    1       -0.049   3.852   0.023  0.00  0.00    +0.011 A 
ATOM      4  C   LIG    1        1.155   3.168   0.008  0.00  0.00    +0.001 A 
ATOM      5  C   LIG    1        1.171   1.785   0.001  0.00  0.00    +0.001 A 
ATOM      6  C   LIG    1       -0.013   1.076   0.008  0.00  0.00    +0.016 A 
ATOM      7  C   LIG    1       -1.228   1.760   0.017  0.00  0.00    +0.071 A 
ATOM      8  C   LIG    1       -2.635   1.271   0.035  0.00  0.00    +0.276 C 
ATOM      9  N   LIG    1       -3.265   0.121   0.035  0.00  0.00    -0.271 N 
ATOM     10  H   LIG    1       -2.809  -0.799   0.026  0.00  0.00    +0.304 HD
ATOM     11  C   LIG    1       -4.718   0.341   0.050  0.00  0.00    +0.277 C 
ATOM     12  C   LIG    1       -4.872   1.873   0.060  0.00  0.00    +0.274 C 
ATOM     13  N   LIG    1       -3.479   2.352   0.049  0.00  0.00    -0.183 N 
ENDROOT
BRANCH   1  17
ATOM     14  C   LIG    1       -3.490   5.862   3.569  0.00  0.00    +0.120 A 
ATOM     15  C   LIG    1       -3.094   6.502   2.404  0.00  0.00    +0.046 A 
ATOM     16  C   LIG    1       -2.832   5.763   1.266  0.00  0.00    +0.014 A 
ATOM     17  C   LIG    1       -2.966   4.386   1.289  0.00  0.00    +0.031 A 
ATOM     18  C   LIG    1       -3.366   3.748   2.448  0.00  0.00    +0.014 A 
ATOM     19  C   LIG    1       -3.623   4.482   3.590  0.00  0.00    +0.046 A 
BRANCH  14  21
ATOM     20  C   LIG    1       -4.152   5.863   5.853  0.00  0.00    +0.277 C 
ATOM     21  O   LIG    1       -3.748   6.588   4.690  0.00  0.00    -0.495 OA
ENDBRANCH  14  21
ENDBRANCH   1  17
BRANCH   1  22
ATOM     22  O   LIG    1       -2.973   4.358  -1.117  0.00  0.00    -0.346 OA
ATOM     23  H   LIG    1       -2.458   5.173  -1.187  0.00  0.00    +0.215 HD
ENDBRANCH   1  22
TORSDOF 3
