REMARK  Name = ZINC03525495
REMARK                            x       y       z     vdW  Elec       q    Type
REMARK                         _______ _______ _______ _____ _____    ______ ____
ROOT
ATOM      1  N   LIG    1        2.412  -4.186  -0.047  0.00  0.00    -0.218 N 
ATOM      2  H   LIG    1        1.581  -4.686  -0.041  0.00  0.00    +0.176 HD
ENDROOT
BRANCH   1   4
ATOM      3  C   LIG    1        1.250  -2.157  -0.023  0.00  0.00    +0.141 C 
ATOM      4  N   LIG    1        2.385  -2.785  -0.038  0.00  0.00    -0.188 NA
BRANCH   3   9
ATOM      5  C   LIG    1       -0.017   1.375   0.010  0.00  0.00    +0.001 A 
ATOM      6  C   LIG    1        1.169   2.089   0.002  0.00  0.00    +0.004 A 
ATOM      7  C   LIG    1        2.383   1.428  -0.013  0.00  0.00    +0.046 A 
ATOM      8  C   LIG    1        2.420   0.043  -0.022  0.00  0.00    +0.125 A 
ATOM      9  C   LIG    1        1.222  -0.684  -0.014  0.00  0.00    +0.036 A 
ATOM     10  C   LIG    1        0.002  -0.004   0.002  0.00  0.00    +0.013 A 
BRANCH   8  11
ATOM     11  O   LIG    1        3.612  -0.607  -0.038  0.00  0.00    -0.506 OA
ATOM     12  H   LIG    1        3.967  -0.800   0.841  0.00  0.00    +0.292 HD
ENDBRANCH   8  11
ENDBRANCH   3   9
ENDBRANCH   1   4
BRANCH   1  13
ATOM     13  C   LIG    1        3.591  -4.838  -0.063  0.00  0.00    +0.150 C 
ATOM     14  S   LIG    1        3.623  -6.549  -0.073  0.00  0.00    -0.017 S 
BRANCH  13  15
ATOM     15  N   LIG    1        4.745  -4.142  -0.071  0.00  0.00    -0.322 N 
ATOM     16  H   LIG    1        4.727  -3.172  -0.065  0.00  0.00    +0.148 HD
BRANCH  15  17
ATOM     17  C   LIG    1        6.028  -4.851  -0.088  0.00  0.00    +0.072 C 
ATOM     18  C   LIG    1        6.428  -5.216   1.343  0.00  0.00    +0.022 C 
ATOM     19  C   LIG    1        7.767  -5.956   1.325  0.00  0.00    +0.002 C 
ATOM     20  C   LIG    1        8.839  -5.055   0.709  0.00  0.00    +0.000 C 
ATOM     21  C   LIG    1        8.439  -4.690  -0.722  0.00  0.00    +0.002 C 
ATOM     22  C   LIG    1        7.100  -3.950  -0.703  0.00  0.00    +0.022 C 
ENDBRANCH  15  17
ENDBRANCH  13  15
ENDBRANCH   1  13
TORSDOF 6
