REMARK  Name = ZINC03276920
REMARK                            x       y       z     vdW  Elec       q    Type
REMARK                         _______ _______ _______ _____ _____    ______ ____
ROOT
ATOM      1  C   LIG    1        4.145   0.733  -1.478  0.00  0.00    +0.054 C 
ENDROOT
BRANCH   1   5
ATOM      2  C   LIG    1        8.418   0.791  -1.521  0.00  0.00    +0.120 A 
ATOM      3  C   LIG    1        7.739  -0.419  -1.521  0.00  0.00    +0.046 A 
ATOM      4  C   LIG    1        6.358  -0.435  -1.507  0.00  0.00    +0.007 A 
ATOM      5  C   LIG    1        5.652   0.753  -1.493  0.00  0.00    -0.046 A 
ATOM      6  C   LIG    1        6.325   1.960  -1.498  0.00  0.00    +0.007 A 
ATOM      7  C   LIG    1        7.707   1.982  -1.506  0.00  0.00    +0.046 A 
BRANCH   2   9
ATOM      8  C   LIG    1       10.408   2.091  -1.533  0.00  0.00    +0.277 C 
ATOM      9  O   LIG    1        9.776   0.809  -1.534  0.00  0.00    -0.495 OA
ENDBRANCH   2   9
ENDBRANCH   1   5
BRANCH   1  10
ATOM     10  C   LIG    1        3.650   0.717  -0.030  0.00  0.00    +0.121 C 
BRANCH  10  11
ATOM     11  N   LIG    1        2.185   0.697  -0.015  0.00  0.00    -0.235 N 
ATOM     12  C   LIG    1        1.394   1.786  -0.002  0.00  0.00    +0.246 C 
ATOM     13  C   LIG    1       -0.016   1.339   0.009  0.00  0.00    +0.073 C 
ATOM     14  C   LIG    1        0.002  -0.004   0.002  0.00  0.00    +0.073 C 
ATOM     15  O   LIG    1        1.774   2.939   0.000  0.00  0.00    -0.270 OA
ATOM     16  C   LIG    1        1.424  -0.412  -0.014  0.00  0.00    +0.246 C 
ATOM     17  O   LIG    1        1.835  -1.555  -0.024  0.00  0.00    -0.270 OA
ENDBRANCH  10  11
ENDBRANCH   1  10
TORSDOF 4
