REMARK  Name = ZINC03079336
REMARK                            x       y       z     vdW  Elec       q    Type
REMARK                         _______ _______ _______ _____ _____    ______ ____
ROOT
ATOM      1  C   LIG    1       -1.111  -2.331   0.102  0.00  0.00    +0.214 C 
ENDROOT
BRANCH   1   2
ATOM      2  O   LIG    1       -0.991  -0.907   0.142  0.00  0.00    -0.467 OA
BRANCH   2   4
ATOM      3  C   LIG    1        0.457   1.091   0.207  0.00  0.00    +0.136 C 
ATOM      4  C   LIG    1        0.252  -0.401   0.164  0.00  0.00    +0.304 C 
ATOM      5  O   LIG    1        1.206  -1.141   0.148  0.00  0.00    -0.251 OA
ENDBRANCH   2   4
ENDBRANCH   1   2
BRANCH   1   6
ATOM      6  C   LIG    1       -2.591  -2.718   0.082  0.00  0.00    -0.035 C 
BRANCH   6   7
ATOM      7  N   LIG    1       -3.197  -2.271  -1.179  0.00  0.00    +0.377 N 
ATOM      8  C   LIG    1       -3.191  -0.803  -1.233  0.00  0.00    -0.093 C 
ATOM      9  C   LIG    1       -4.581  -2.758  -1.256  0.00  0.00    -0.093 C 
ATOM     10  C   LIG    1       -2.426  -2.806  -2.309  0.00  0.00    -0.093 C 
ENDBRANCH   6   7
ENDBRANCH   1   6
TORSDOF 4
