REMARK  Name = ZINC02560357
REMARK                            x       y       z     vdW  Elec       q    Type
REMARK                         _______ _______ _______ _____ _____    ______ ____
ROOT
ATOM      1  C   LIG    1       -0.017   1.372   0.010  0.00  0.00    +0.001 A 
ATOM      2  C   LIG    1        1.160   2.101   0.002  0.00  0.00    +0.002 A 
ATOM      3  C   LIG    1        2.377   1.434  -0.013  0.00  0.00    +0.030 A 
ATOM      4  C   LIG    1        2.398   0.070  -0.021  0.00  0.00    +0.125 A 
ATOM      5  C   LIG    1        1.223  -0.696  -0.013  0.00  0.00    +0.065 A 
ATOM      6  C   LIG    1        1.503  -2.139  -0.025  0.00  0.00    +0.241 C 
ATOM      7  N   LIG    1        2.730  -2.546  -0.039  0.00  0.00    -0.091 NA
ATOM      8  S   LIG    1        3.671  -1.163  -0.040  0.00  0.00    +0.103 S 
ATOM      9  O   LIG    1        4.328  -1.087  -1.298  0.00  0.00    -0.146 OA
ATOM     10  O   LIG    1        4.353  -1.101   1.205  0.00  0.00    -0.146 OA
ATOM     11  C   LIG    1        0.002  -0.004   0.002  0.00  0.00    +0.015 A 
ENDROOT
BRANCH   6  12
ATOM     12  O   LIG    1        0.487  -3.032  -0.020  0.00  0.00    -0.491 OA
ATOM     13  H   LIG    1       -0.400  -2.731  -0.010  0.00  0.00    +0.294 HD
ENDBRANCH   6  12
TORSDOF 1
