REMARK  Name = ZINC02516023
REMARK                            x       y       z     vdW  Elec       q    Type
REMARK                         _______ _______ _______ _____ _____    ______ ____
ROOT
ATOM      1  C   LIG    1       -1.352  -0.741  -0.019  0.00  0.00    -0.006 A 
ATOM      2  C   LIG    1       -1.973  -1.081   1.180  0.00  0.00    +0.014 A 
ATOM      3  C   LIG    1       -1.515  -1.251   2.567  0.00  0.00    +0.011 A 
ATOM      4  C   LIG    1       -0.273  -1.131   3.190  0.00  0.00    +0.060 A 
ATOM      5  C   LIG    1       -0.159  -1.361   4.546  0.00  0.00    +0.162 A 
ATOM      6  C   LIG    1       -1.284  -1.713   5.293  0.00  0.00    +0.163 A 
ATOM      7  C   LIG    1       -2.519  -1.834   4.683  0.00  0.00    +0.075 A 
ATOM      8  C   LIG    1       -2.647  -1.605   3.317  0.00  0.00    +0.051 A 
ATOM      9  N   LIG    1       -3.738  -1.654   2.465  0.00  0.00    -0.353 N 
ATOM     10  H   LIG    1       -4.643  -1.875   2.735  0.00  0.00    +0.166 HD
ATOM     11  C   LIG    1       -3.356  -1.343   1.179  0.00  0.00    +0.066 A 
ATOM     12  C   LIG    1       -4.052  -1.252  -0.027  0.00  0.00    +0.137 A 
ATOM     13  N   LIG    1       -3.431  -0.929  -1.137  0.00  0.00    -0.246 NA
ATOM     14  C   LIG    1       -2.126  -0.667  -1.174  0.00  0.00    +0.151 A 
ENDROOT
BRANCH   1  16
ATOM     15  C   LIG    1        0.354   1.057   0.043  0.00  0.00    +0.009 C 
ATOM     16  C   LIG    1        0.126  -0.452  -0.064  0.00  0.00    +0.035 C 
ENDBRANCH   1  16
BRANCH   5  17
ATOM     17  O   LIG    1        1.052  -1.245   5.155  0.00  0.00    -0.491 OA
ATOM     18  C   LIG    1        2.161  -0.882   4.331  0.00  0.00    +0.277 C 
ENDBRANCH   5  17
BRANCH   6  19
ATOM     19  O   LIG    1       -1.165  -1.938   6.628  0.00  0.00    -0.491 OA
ATOM     20  C   LIG    1       -2.355  -2.295   7.334  0.00  0.00    +0.277 C 
ENDBRANCH   6  19
BRANCH  14  21
ATOM     21  C   LIG    1       -1.490  -0.303  -2.457  0.00  0.00    +0.358 C 
ATOM     22  O   LIG    1       -0.322   0.031  -2.483  0.00  0.00    -0.243 OA
BRANCH  21  23
ATOM     23  O   LIG    1       -2.205  -0.341  -3.598  0.00  0.00    -0.463 OA
ATOM     24  C   LIG    1       -1.526   0.025  -4.801  0.00  0.00    +0.280 C 
ENDBRANCH  21  23
ENDBRANCH  14  21
TORSDOF 5
