REMARK  Name = ZINC02576376
REMARK                            x       y       z     vdW  Elec       q    Type
REMARK                         _______ _______ _______ _____ _____    ______ ____
ROOT
ATOM      1  C   LIG    1       -3.389  -6.535  -0.002  0.00  0.00    +0.064 A 
ATOM      2  C   LIG    1       -4.396  -5.624   0.013  0.00  0.00    +0.208 A 
ATOM      3  O   LIG    1       -4.173  -4.307   0.018  0.00  0.00    -0.462 OA
ATOM      4  C   LIG    1       -2.939  -3.765   0.009  0.00  0.00    +0.142 A 
ATOM      5  C   LIG    1       -2.773  -2.386   0.016  0.00  0.00    +0.092 A 
ATOM      6  C   LIG    1       -1.498  -1.847   0.006  0.00  0.00    +0.124 A 
ATOM      7  C   LIG    1       -0.377  -2.674  -0.015  0.00  0.00    +0.046 A 
ATOM      8  C   LIG    1       -0.523  -4.032  -0.016  0.00  0.00    +0.019 A 
ATOM      9  C   LIG    1       -1.802  -4.591  -0.006  0.00  0.00    +0.065 A 
ATOM     10  C   LIG    1       -1.998  -6.052  -0.013  0.00  0.00    +0.200 A 
ATOM     11  O   LIG    1       -1.054  -6.824  -0.027  0.00  0.00    -0.286 OA
ENDROOT
BRANCH   1  17
ATOM     12  C   LIG    1       -3.078  -8.821  -0.947  0.00  0.00    +0.012 A 
ATOM     13  C   LIG    1       -3.352 -10.173  -0.947  0.00  0.00    +0.046 A 
ATOM     14  C   LIG    1       -4.238 -10.703  -0.020  0.00  0.00    +0.117 A 
ATOM     15  C   LIG    1       -4.848  -9.876   0.913  0.00  0.00    +0.046 A 
ATOM     16  C   LIG    1       -4.575  -8.524   0.921  0.00  0.00    +0.012 A 
ATOM     17  C   LIG    1       -3.685  -7.989  -0.008  0.00  0.00    -0.011 A 
BRANCH  14  18
ATOM     18  O   LIG    1       -4.509 -12.035  -0.025  0.00  0.00    -0.507 OA
ATOM     19  H   LIG    1       -5.256 -12.282  -0.587  0.00  0.00    +0.292 HD
ENDBRANCH  14  18
ENDBRANCH   1  17
BRANCH   6  20
ATOM     20  O   LIG    1       -1.339  -0.499   0.012  0.00  0.00    -0.492 OA
BRANCH  20  21
ATOM     21  C   LIG    1        0.002  -0.004   0.002  0.00  0.00    +0.230 C 
BRANCH  21  22
ATOM     22  C   LIG    1       -0.019   1.526   0.010  0.00  0.00    +0.052 C 
BRANCH  22  23
ATOM     23  C   LIG    1        1.417   2.055  -0.000  0.00  0.00    +0.083 C 
ATOM     24 BR   LIG    1        1.390   4.021   0.010  0.00  0.00    -0.092 Br
ENDBRANCH  22  23
ENDBRANCH  21  22
ENDBRANCH  20  21
ENDBRANCH   6  20
TORSDOF 6
