REMARK  Name = ZINC02976359
REMARK                            x       y       z     vdW  Elec       q    Type
REMARK                         _______ _______ _______ _____ _____    ______ ____
ROOT
ATOM      1  C   LIG    1        2.351   1.425  -0.162  0.00  0.00    +0.028 A 
ATOM      2  C   LIG    1        2.389   0.046  -0.173  0.00  0.00    +0.019 A 
ATOM      3  C   LIG    1        1.211  -0.683  -0.010  0.00  0.00    +0.045 A 
ATOM      4  C   LIG    1        0.000  -0.012   0.165  0.00  0.00    +0.137 A 
ATOM      5  C   LIG    1       -0.026   1.366   0.174  0.00  0.00    +0.061 A 
ATOM      6  C   LIG    1        1.146   2.085   0.012  0.00  0.00    +0.100 A 
ENDROOT
BRANCH   6   7
ATOM      7  S   LIG    1        1.105   3.847   0.025  0.00  0.00    +0.091 S 
ATOM      8  O   LIG    1       -0.210   4.182  -0.397  0.00  0.00    -0.161 OA
ATOM      9  O   LIG    1        2.234   4.242  -0.742  0.00  0.00    -0.161 OA
BRANCH   7  10
ATOM     10  C   LIG    1        1.339   4.306   1.764  0.00  0.00    +0.526 C 
ATOM     11  F   LIG    1        0.307   3.758   2.534  0.00  0.00    -0.150 F 
ATOM     12  F   LIG    1        1.321   5.699   1.885  0.00  0.00    -0.150 F 
ATOM     13  F   LIG    1        2.568   3.814   2.215  0.00  0.00    -0.150 F 
ENDBRANCH   7  10
ENDBRANCH   6   7
BRANCH   4  14
ATOM     14  N   LIG    1       -1.254  -0.779   0.338  0.00  0.00    +0.007 N 
ATOM     15  O   LIG    1       -2.396  -0.145   0.502  0.00  0.00    -0.130 OA
BRANCH  14  16
ATOM     16  O   LIG    1       -1.227  -2.096   0.329  0.00  0.00    -0.396 OA
ATOM     17  H   LIG    1       -0.414  -2.547   0.212  0.00  0.00    +0.329 HD
ENDBRANCH  14  16
ENDBRANCH   4  14
BRANCH   3  18
ATOM     18  S   LIG    1        1.252  -2.444  -0.024  0.00  0.00    -0.059 S 
BRANCH  18  19
ATOM     19  C   LIG    1        0.666  -2.743  -1.604  0.00  0.00    +0.164 A 
ATOM     20  N   LIG    1        0.368  -3.922  -2.200  0.00  0.00    -0.134 NA
ATOM     21  N   LIG    1       -0.060  -3.968  -3.387  0.00  0.00    -0.134 NA
ATOM     22  C   LIG    1       -0.228  -2.816  -4.087  0.00  0.00    +0.156 A 
ATOM     23  S   LIG    1        0.286  -1.612  -2.869  0.00  0.00    -0.033 S 
BRANCH  22  24
ATOM     24  S   LIG    1       -0.784  -2.582  -5.689  0.00  0.00    -0.114 S 
ATOM     25  H   LIG    1       -1.064  -3.788  -6.253  0.00  0.00    +0.109 HD
ENDBRANCH  22  24
ENDBRANCH  18  19
ENDBRANCH   3  18
TORSDOF 7
