REMARK  Name = ZINC03589671
REMARK                            x       y       z     vdW  Elec       q    Type
REMARK                         _______ _______ _______ _____ _____    ______ ____
ROOT
ATOM      1  C   LIG    1       -1.295  -0.772   0.010  0.00  0.00    +0.070 C 
ENDROOT
BRANCH   1   7
ATOM      2  C   LIG    1       -0.017   1.382   0.010  0.00  0.00    +0.007 A 
ATOM      3  C   LIG    1        1.164   2.097   0.002  0.00  0.00    +0.046 A 
ATOM      4  C   LIG    1        2.381   1.431  -0.013  0.00  0.00    +0.131 A 
ATOM      5  C   LIG    1        2.405   0.028  -0.021  0.00  0.00    +0.100 A 
ATOM      6  C   LIG    1        1.200  -0.683  -0.013  0.00  0.00    +0.022 A 
ATOM      7  C   LIG    1        0.002  -0.004   0.002  0.00  0.00    -0.042 A 
BRANCH   4   8
ATOM      8  O   LIG    1        3.541   2.132  -0.022  0.00  0.00    -0.506 OA
ATOM      9  H   LIG    1        3.887   2.331   0.859  0.00  0.00    +0.292 HD
ENDBRANCH   4   8
BRANCH   5  10
ATOM     10  C   LIG    1        3.689  -0.691  -0.038  0.00  0.00    +0.340 C 
ATOM     11  O   LIG    1        3.705  -1.914  -0.045  0.00  0.00    -0.245 OA
BRANCH  10  12
ATOM     12  O   LIG    1        4.740  -0.065  -0.046  0.00  0.00    -0.477 OA
ATOM     13  H   LIG    1        4.727   0.872  -0.041  0.00  0.00    +0.295 HD
ENDBRANCH  10  12
ENDBRANCH   5  10
ENDBRANCH   1   7
BRANCH   1  14
ATOM     14  C   LIG    1       -1.741  -1.020  -1.408  0.00  0.00    -0.042 A 
ATOM     15  C   LIG    1       -2.552  -0.096  -2.047  0.00  0.00    +0.007 A 
ATOM     16  C   LIG    1       -2.967  -0.311  -3.346  0.00  0.00    +0.046 A 
ATOM     17  C   LIG    1       -2.574  -1.457  -4.021  0.00  0.00    +0.131 A 
ATOM     18  C   LIG    1       -1.752  -2.395  -3.378  0.00  0.00    +0.100 A 
ATOM     19  C   LIG    1       -1.335  -2.161  -2.064  0.00  0.00    +0.022 A 
BRANCH  17  20
ATOM     20  O   LIG    1       -2.982  -1.669  -5.297  0.00  0.00    -0.506 OA
ATOM     21  H   LIG    1       -2.384  -1.309  -5.966  0.00  0.00    +0.292 HD
ENDBRANCH  17  20
BRANCH  18  22
ATOM     22  C   LIG    1       -1.328  -3.615  -4.084  0.00  0.00    +0.340 C 
ATOM     23  O   LIG    1       -0.612  -4.430  -3.519  0.00  0.00    -0.245 OA
BRANCH  22  24
ATOM     24  O   LIG    1       -1.692  -3.813  -5.235  0.00  0.00    -0.477 OA
ATOM     25  H   LIG    1       -2.240  -3.189  -5.667  0.00  0.00    +0.295 HD
ENDBRANCH  22  24
ENDBRANCH  18  22
ENDBRANCH   1  14
TORSDOF 8
