REMARK  Name = ZINC02465917
REMARK                            x       y       z     vdW  Elec       q    Type
REMARK                         _______ _______ _______ _____ _____    ______ ____
ROOT
ATOM      1  C   LIG    1        4.943   0.915  -2.586  0.00  0.00    +0.270 C 
ATOM      2  N   LIG    1        6.102   1.169  -3.226  0.00  0.00    -0.278 N 
ATOM      3  H   LIG    1        6.409   0.573  -3.927  0.00  0.00    +0.155 HD
ATOM      4  O   LIG    1        4.558   1.662  -1.708  0.00  0.00    -0.268 OA
ENDROOT
BRANCH   1  10
ATOM      5  C   LIG    1        0.718  -0.497  -1.257  0.00  0.00    -0.001 C 
ATOM      6  C   LIG    1        0.739  -2.029  -1.265  0.00  0.00    +0.012 C 
ATOM      7  C   LIG    1        1.226  -2.525  -2.632  0.00  0.00    +0.078 C 
ATOM      8  C   LIG    1        2.501  -1.796  -2.978  0.00  0.00    +0.141 A 
ATOM      9  C   LIG    1        2.913  -0.663  -2.372  0.00  0.00    +0.027 A 
ATOM     10  C   LIG    1        4.138  -0.275  -2.953  0.00  0.00    +0.171 A 
ATOM     11  N   LIG    1        4.438  -1.157  -3.878  0.00  0.00    -0.073 NA
ATOM     12  O   LIG    1        3.405  -2.128  -3.905  0.00  0.00    -0.359 OA
ATOM     13  C   LIG    1        2.157   0.033  -1.268  0.00  0.00    +0.045 C 
BRANCH   5  15
ATOM     14  C   LIG    1       -0.019   1.526   0.010  0.00  0.00    +0.011 C 
ATOM     15  C   LIG    1        0.002  -0.004   0.002  0.00  0.00    -0.035 C 
ATOM     16  C   LIG    1       -1.433  -0.534   0.013  0.00  0.00    +0.011 C 
ATOM     17  C   LIG    1        0.742  -0.511   1.242  0.00  0.00    +0.011 C 
ENDBRANCH   5  15
ENDBRANCH   1  10
BRANCH   2  18
ATOM     18  C   LIG    1        6.865   2.298  -2.878  0.00  0.00    +0.072 A 
ATOM     19  C   LIG    1        6.546   3.237  -1.886  0.00  0.00    +0.157 A 
ATOM     20  N   LIG    1        7.492   4.140  -1.855  0.00  0.00    -0.177 NA
ATOM     21  N   LIG    1        8.448   3.812  -2.825  0.00  0.00    -0.265 N 
ATOM     22  C   LIG    1        8.044   2.670  -3.439  0.00  0.00    +0.132 A 
BRANCH  21  23
ATOM     23  C   LIG    1        9.671   4.564  -3.119  0.00  0.00    +0.178 C 
BRANCH  23  24
ATOM     24  C   LIG    1        9.318   5.996  -3.427  0.00  0.00    -0.026 A 
ATOM     25  C   LIG    1        9.040   6.375  -4.727  0.00  0.00    +0.008 A 
ATOM     26  C   LIG    1        8.716   7.688  -5.011  0.00  0.00    +0.038 A 
ATOM     27  C   LIG    1        8.669   8.624  -3.991  0.00  0.00    +0.123 A 
ATOM     28  F   LIG    1        8.352   9.908  -4.267  0.00  0.00    -0.205 F 
ATOM     29  C   LIG    1        8.947   8.243  -2.690  0.00  0.00    +0.038 A 
ATOM     30  C   LIG    1        9.266   6.929  -2.408  0.00  0.00    +0.008 A 
ENDBRANCH  23  24
ENDBRANCH  21  23
ENDBRANCH   2  18
TORSDOF 5
