REMARK  Name = ZINC02867405
REMARK                            x       y       z     vdW  Elec       q    Type
REMARK                         _______ _______ _______ _____ _____    ______ ____
ROOT
ATOM      1  C   LIG    1       -1.433  -0.534   0.013  0.00  0.00    +0.148 C 
ATOM      2  C   LIG    1       -2.062  -0.167   1.344  0.00  0.00    +0.240 C 
ATOM      3  N   LIG    1       -3.184   0.583   1.319  0.00  0.00    -0.239 N 
ATOM      4  H   LIG    1       -3.603   0.829   2.158  0.00  0.00    +0.159 HD
ATOM      5  C   LIG    1       -3.734   0.996   0.172  0.00  0.00    +0.312 C 
ATOM      6  N   LIG    1       -3.254   0.724  -1.046  0.00  0.00    -0.239 N 
ATOM      7  H   LIG    1       -3.721   1.067  -1.824  0.00  0.00    +0.159 HD
ATOM      8  O   LIG    1       -4.744   1.668   0.242  0.00  0.00    -0.252 OA
ATOM      9  O   LIG    1       -1.574  -0.535   2.392  0.00  0.00    -0.274 OA
ATOM     10  C   LIG    1       -2.138  -0.014  -1.226  0.00  0.00    +0.240 C 
ATOM     11  O   LIG    1       -1.714  -0.253  -2.337  0.00  0.00    -0.274 OA
ENDROOT
BRANCH   1  12
ATOM     12  C   LIG    1       -1.376  -2.037  -0.076  0.00  0.00    -0.024 A 
ATOM     13  C   LIG    1       -0.151  -2.677  -0.143  0.00  0.00    +0.006 A 
ATOM     14  C   LIG    1       -0.093  -4.053  -0.225  0.00  0.00    +0.009 A 
ATOM     15  C   LIG    1       -1.270  -4.798  -0.240  0.00  0.00    -0.018 A 
ATOM     16  C   LIG    1       -2.501  -4.149  -0.172  0.00  0.00    +0.009 A 
ATOM     17  C   LIG    1       -2.547  -2.772  -0.085  0.00  0.00    +0.006 A 
BRANCH  15  18
ATOM     18  C   LIG    1       -1.213  -6.279  -0.328  0.00  0.00    -0.018 A 
ATOM     19  C   LIG    1        0.018  -6.929  -0.390  0.00  0.00    +0.008 A 
ATOM     20  C   LIG    1        0.065  -8.306  -0.471  0.00  0.00    +0.001 A 
ATOM     21  C   LIG    1       -1.107  -9.040  -0.492  0.00  0.00    +0.000 A 
ATOM     22  C   LIG    1       -2.332  -8.400  -0.430  0.00  0.00    +0.001 A 
ATOM     23  C   LIG    1       -2.390  -7.024  -0.343  0.00  0.00    +0.008 A 
ENDBRANCH  15  18
ENDBRANCH   1  12
BRANCH   1  25
ATOM     24  C   LIG    1       -0.019   1.526   0.010  0.00  0.00    +0.006 C 
ATOM     25  C   LIG    1        0.002  -0.004   0.002  0.00  0.00    +0.027 C 
ENDBRANCH   1  25
TORSDOF 3
