REMARK  Name = ZINC03202988
REMARK                            x       y       z     vdW  Elec       q    Type
REMARK                         _______ _______ _______ _____ _____    ______ ____
ROOT
ATOM      1  N   LIG    1        4.636  -3.373  -5.207  0.00  0.00    -0.308 N 
ATOM      2  H   LIG    1        4.121  -3.592  -5.999  0.00  0.00    +0.149 HD
ATOM      3  C   LIG    1        5.951  -3.666  -5.155  0.00  0.00    +0.285 C 
ATOM      4  O   LIG    1        6.596  -3.392  -4.163  0.00  0.00    -0.267 OA
ENDROOT
BRANCH   3   5
ATOM      5  C   LIG    1        6.614  -4.328  -6.316  0.00  0.00    +0.249 C 
ATOM      6  O   LIG    1        5.968  -4.603  -7.309  0.00  0.00    -0.282 OA
BRANCH   5   7
ATOM      7  C   LIG    1        8.039  -4.646  -6.260  0.00  0.00    +0.052 A 
ATOM      8  C   LIG    1        8.903  -4.405  -5.208  0.00  0.00    +0.095 A 
ATOM      9  N   LIG    1       10.136  -4.838  -5.529  0.00  0.00    -0.360 N 
ATOM     10  C   LIG    1       10.149  -5.383  -6.798  0.00  0.00    +0.047 A 
ATOM     11  C   LIG    1       11.150  -5.955  -7.575  0.00  0.00    +0.026 A 
ATOM     12  C   LIG    1       10.855  -6.436  -8.833  0.00  0.00    +0.002 A 
ATOM     13  C   LIG    1        9.568  -6.346  -9.340  0.00  0.00    +0.001 A 
ATOM     14  C   LIG    1        8.562  -5.779  -8.586  0.00  0.00    +0.011 A 
ATOM     15  H   LIG    1       10.910  -4.777  -4.948  0.00  0.00    +0.165 HD
ATOM     16  C   LIG    1        8.845  -5.296  -7.312  0.00  0.00    +0.011 A 
ENDBRANCH   5   7
ENDBRANCH   3   5
BRANCH   1  17
ATOM     17  C   LIG    1        3.986  -2.723  -4.066  0.00  0.00    +0.109 C 
BRANCH  17  18
ATOM     18  C   LIG    1        2.505  -2.503  -4.381  0.00  0.00    +0.054 C 
BRANCH  18  22
ATOM     19  C   LIG    1        0.606  -0.607  -1.056  0.00  0.00    +0.120 A 
ATOM     20  C   LIG    1        1.173   0.161  -2.062  0.00  0.00    +0.046 A 
ATOM     21  C   LIG    1        1.786  -0.455  -3.136  0.00  0.00    +0.007 A 
ATOM     22  C   LIG    1        1.835  -1.835  -3.209  0.00  0.00    -0.046 A 
ATOM     23  C   LIG    1        1.270  -2.602  -2.207  0.00  0.00    +0.007 A 
ATOM     24  C   LIG    1        0.661  -1.992  -1.128  0.00  0.00    +0.046 A 
BRANCH  19  26
ATOM     25  C   LIG    1       -0.017   1.425   0.010  0.00  0.00    +0.277 C 
ATOM     26  O   LIG    1        0.002  -0.004   0.002  0.00  0.00    -0.495 OA
ENDBRANCH  19  26
ENDBRANCH  18  22
ENDBRANCH  17  18
ENDBRANCH   1  17
TORSDOF 6
