REMARK  Name = ZINC02560145
REMARK                            x       y       z     vdW  Elec       q    Type
REMARK                         _______ _______ _______ _____ _____    ______ ____
ROOT
ATOM      1  CA  LIG    1       -2.556   4.146   0.048  0.00  0.00    +0.069 C 
ENDROOT
BRANCH   1   4
ATOM      2  C   LIG    1        1.153   3.438   0.010  0.00  0.00    +0.003 A 
ATOM      3  C   LIG    1       -0.053   4.113   0.025  0.00  0.00    +0.005 A 
ATOM      4  C   LIG    1       -1.242   3.408   0.032  0.00  0.00    -0.013 A 
ATOM      5  C   LIG    1       -1.226   2.024   0.019  0.00  0.00    +0.160 A 
ATOM      6  F   LIG    1       -2.387   1.335   0.021  0.00  0.00    -0.202 F 
ATOM      7  C   LIG    1       -0.016   1.347   0.009  0.00  0.00    +0.159 A 
ATOM      8  F   LIG    1        0.002  -0.004   0.002  0.00  0.00    -0.202 F 
ATOM      9  C   LIG    1        1.172   2.056   0.002  0.00  0.00    +0.041 A 
ENDBRANCH   1   4
BRANCH   1  10
ATOM     10  N   LIG    1       -2.397   5.493  -0.529  0.00  0.00    +0.390 N 
ATOM     11  H1  LIG    1       -3.294   5.990  -0.478  0.00  0.00    -0.088 HD
ATOM     12  H2  LIG    1       -2.110   5.423  -1.504  0.00  0.00    -0.088 HD
ATOM     13  H3  LIG    1       -1.696   6.016  -0.007  0.00  0.00    -0.088 HD
ENDBRANCH   1  10
BRANCH   1  14
ATOM     14  C   LIG    1       -3.041   4.277   1.469  0.00  0.00    +0.294 C 
ATOM     15  O   LIG    1       -2.879   5.313   2.070  0.00  0.00    -0.253 OA
BRANCH  14  16
ATOM     16  OXT LIG    1       -3.653   3.243   2.067  0.00  0.00    -0.482 OA
ATOM     17  HXT LIG    1       -3.779   2.440   1.601  0.00  0.00    +0.295 HD
ENDBRANCH  14  16
ENDBRANCH   1  14
TORSDOF 4
