REMARK  Name = ZINC02573080
REMARK                            x       y       z     vdW  Elec       q    Type
REMARK                         _______ _______ _______ _____ _____    ______ ____
ROOT
ATOM      1  C   LIG    1        0.663  -4.152  -1.643  0.00  0.00    +0.074 A 
ATOM      2  C   LIG    1       -0.035  -5.288  -2.023  0.00  0.00    +0.027 A 
ATOM      3  C   LIG    1        0.644  -6.465  -2.276  0.00  0.00    +0.002 A 
ATOM      4  C   LIG    1        2.021  -6.514  -2.152  0.00  0.00    +0.002 A 
ATOM      5  C   LIG    1        2.725  -5.386  -1.774  0.00  0.00    +0.027 A 
ATOM      6  C   LIG    1        2.052  -4.200  -1.523  0.00  0.00    +0.074 A 
ENDROOT
BRANCH   1   7
ATOM      7  N   LIG    1       -0.023  -2.959  -1.386  0.00  0.00    -0.197 N 
BRANCH   7   8
ATOM      8  S   LIG    1       -0.376  -2.525   0.172  0.00  0.00    +0.075 S 
ATOM      9  O   LIG    1        0.377  -3.388   1.014  0.00  0.00    -0.150 OA
ATOM     10  O   LIG    1       -0.265  -1.110   0.236  0.00  0.00    -0.150 OA
BRANCH   8  15
ATOM     11  C   LIG    1       -6.188  -3.840   1.120  0.00  0.00    +0.044 C 
ATOM     12  C   LIG    1       -4.737  -3.512   0.883  0.00  0.00    -0.050 A 
ATOM     13  C   LIG    1       -3.771  -4.487   1.048  0.00  0.00    +0.005 A 
ATOM     14  C   LIG    1       -2.440  -4.186   0.831  0.00  0.00    +0.029 A 
ATOM     15  C   LIG    1       -2.074  -2.910   0.448  0.00  0.00    +0.109 A 
ATOM     16  C   LIG    1       -3.039  -1.934   0.282  0.00  0.00    +0.029 A 
ATOM     17  C   LIG    1       -4.371  -2.236   0.495  0.00  0.00    +0.005 A 
ENDBRANCH   8  15
ENDBRANCH   7   8
BRANCH   7  18
ATOM     18  C   LIG    1       -0.428  -2.093  -2.497  0.00  0.00    +0.158 C 
BRANCH  18  19
ATOM     19  C   LIG    1        0.777  -1.365  -3.033  0.00  0.00    -0.014 C 
ATOM     20  C   LIG    1        1.005  -1.335  -4.322  0.00  0.00    +0.005 C 
ENDBRANCH  18  19
ENDBRANCH   7  18
ENDBRANCH   1   7
BRANCH   6  21
ATOM     21  N   LIG    1        2.764  -3.055  -1.145  0.00  0.00    -0.197 N 
BRANCH  21  22
ATOM     22  S   LIG    1        2.471  -2.345   0.322  0.00  0.00    +0.075 S 
ATOM     23  O   LIG    1        2.404  -3.396   1.276  0.00  0.00    -0.150 OA
ATOM     24  O   LIG    1        1.405  -1.427   0.124  0.00  0.00    -0.150 OA
BRANCH  22  25
ATOM     25  C   LIG    1        3.892  -1.386   0.730  0.00  0.00    +0.109 A 
ATOM     26  C   LIG    1        4.932  -1.958   1.438  0.00  0.00    +0.029 A 
ATOM     27  C   LIG    1        6.047  -1.205   1.758  0.00  0.00    +0.005 A 
ATOM     28  C   LIG    1        6.122   0.119   1.368  0.00  0.00    -0.050 A 
ATOM     29  C   LIG    1        7.337   0.940   1.717  0.00  0.00    +0.044 C 
ATOM     30  C   LIG    1        5.082   0.691   0.659  0.00  0.00    +0.005 A 
ATOM     31  C   LIG    1        3.970  -0.063   0.335  0.00  0.00    +0.029 A 
ENDBRANCH  22  25
ENDBRANCH  21  22
BRANCH  21  32
ATOM     32  C   LIG    1        3.768  -2.485  -2.047  0.00  0.00    +0.158 C 
BRANCH  32  33
ATOM     33  C   LIG    1        3.216  -1.238  -2.689  0.00  0.00    -0.014 C 
ATOM     34  C   LIG    1        3.971  -0.174  -2.808  0.00  0.00    +0.005 C 
ENDBRANCH  32  33
ENDBRANCH  21  32
ENDBRANCH   6  21
TORSDOF 10
