REMARK  Name = ZINC02568228
REMARK                            x       y       z     vdW  Elec       q    Type
REMARK                         _______ _______ _______ _____ _____    ______ ____
ROOT
ATOM      1  C   LIG    1       -0.087  -4.152  -2.785  0.00  0.00    -0.013 A 
ATOM      2  C   LIG    1        1.023  -5.096  -2.660  0.00  0.00    +0.007 A 
ATOM      3  C   LIG    1        2.414  -4.960  -2.678  0.00  0.00    +0.056 A 
ATOM      4  C   LIG    1        3.211  -6.077  -2.530  0.00  0.00    +0.121 A 
ATOM      5  C   LIG    1        2.634  -7.333  -2.363  0.00  0.00    +0.047 A 
ATOM      6  C   LIG    1        1.265  -7.480  -2.344  0.00  0.00    +0.030 A 
ATOM      7  C   LIG    1        0.444  -6.367  -2.491  0.00  0.00    +0.047 A 
ATOM      8  N   LIG    1       -0.926  -6.202  -2.512  0.00  0.00    -0.354 N 
ATOM      9  H   LIG    1       -1.575  -6.917  -2.417  0.00  0.00    +0.166 HD
ATOM     10  C   LIG    1       -1.232  -4.872  -2.683  0.00  0.00    +0.051 A 
ENDROOT
BRANCH  10  11
ATOM     11  C   LIG    1       -2.599  -4.313  -2.749  0.00  0.00    -0.001 A 
ATOM     12  C   LIG    1       -2.934  -3.189  -1.993  0.00  0.00    +0.010 A 
ATOM     13  C   LIG    1       -4.212  -2.672  -2.059  0.00  0.00    +0.001 A 
ATOM     14  C   LIG    1       -5.160  -3.266  -2.874  0.00  0.00    +0.000 A 
ATOM     15  C   LIG    1       -4.834  -4.381  -3.625  0.00  0.00    +0.001 A 
ATOM     16  C   LIG    1       -3.559  -4.904  -3.572  0.00  0.00    +0.010 A 
ENDBRANCH  10  11
BRANCH   4  17
ATOM     17  O   LIG    1        4.565  -5.950  -2.548  0.00  0.00    -0.495 OA
ATOM     18  C   LIG    1        5.330  -7.146  -2.389  0.00  0.00    +0.277 C 
ENDBRANCH   4  17
BRANCH   1  19
ATOM     19  C   LIG    1        0.021  -2.662  -2.983  0.00  0.00    +0.056 C 
BRANCH  19  20
ATOM     20  C   LIG    1       -0.078  -2.338  -4.474  0.00  0.00    +0.109 C 
BRANCH  20  23
ATOM     21  C   LIG    1       -0.188   1.133  -6.087  0.00  0.00    +0.109 C 
ATOM     22  C   LIG    1       -0.174  -0.362  -5.898  0.00  0.00    +0.210 C 
ATOM     23  N   LIG    1       -0.092  -0.884  -4.658  0.00  0.00    -0.315 N 
ATOM     24  H   LIG    1       -0.041  -0.298  -3.887  0.00  0.00    +0.149 HD
ATOM     25  O   LIG    1       -0.238  -1.096  -6.862  0.00  0.00    -0.276 OA
ENDBRANCH  20  23
ENDBRANCH  19  20
ENDBRANCH   1  19
TORSDOF 5
