REMARK  Name = ZINC02894260
REMARK                            x       y       z     vdW  Elec       q    Type
REMARK                         _______ _______ _______ _____ _____    ______ ____
ROOT
ATOM      1  N   LIG    1        0.100  -2.718   0.190  0.00  0.00    -0.229 N 
ATOM      2  H   LIG    1        0.930  -2.222   0.111  0.00  0.00    +0.173 HD
ATOM      3  C   LIG    1        0.126  -4.063   0.284  0.00  0.00    +0.261 C 
ATOM      4  O   LIG    1       -0.913  -4.685   0.382  0.00  0.00    -0.269 OA
ENDROOT
BRANCH   3   5
ATOM      5  C   LIG    1        1.418  -4.780   0.267  0.00  0.00    +0.056 A 
ATOM      6  C   LIG    1        2.614  -4.068   0.154  0.00  0.00    +0.047 A 
ATOM      7  C   LIG    1        3.816  -4.743   0.140  0.00  0.00    +0.125 A 
ATOM      8  C   LIG    1        3.840  -6.124   0.237  0.00  0.00    +0.066 A 
ATOM      9  C   LIG    1        2.660  -6.836   0.349  0.00  0.00    +0.138 A 
ATOM     10  C   LIG    1        1.449  -6.172   0.370  0.00  0.00    +0.060 A 
ATOM     11 BR   LIG    1       -0.163  -7.147   0.531  0.00  0.00    -0.047 Br
BRANCH   7  12
ATOM     12  N   LIG    1        5.085  -3.990   0.021  0.00  0.00    +0.006 N 
ATOM     13  O   LIG    1        5.066  -2.775  -0.065  0.00  0.00    -0.130 OA
BRANCH  12  14
ATOM     14  O   LIG    1        6.148  -4.585   0.008  0.00  0.00    -0.396 OA
ATOM     15  H   LIG    1        6.162  -5.519   0.074  0.00  0.00    +0.329 HD
ENDBRANCH  12  14
ENDBRANCH   7  12
BRANCH   9  16
ATOM     16  N   LIG    1        2.695  -8.312   0.453  0.00  0.00    +0.007 N 
ATOM     17  O   LIG    1        3.763  -8.898   0.439  0.00  0.00    -0.130 OA
BRANCH  16  18
ATOM     18  O   LIG    1        1.657  -8.941   0.551  0.00  0.00    -0.396 OA
ATOM     19  H   LIG    1        0.835  -8.490   0.562  0.00  0.00    +0.329 HD
ENDBRANCH  16  18
ENDBRANCH   9  16
ENDBRANCH   3   5
BRANCH   1  23
ATOM     20  N   LIG    1        0.002  -0.004   0.002  0.00  0.00    -0.268 N 
ATOM     21  H   LIG    1        0.845  -0.477  -0.077  0.00  0.00    +0.156 HD
ATOM     22  C   LIG    1       -1.150  -0.694   0.111  0.00  0.00    +0.320 C 
ATOM     23  N   LIG    1       -1.125  -2.038   0.205  0.00  0.00    -0.218 N 
ATOM     24  H   LIG    1       -1.954  -2.535   0.284  0.00  0.00    +0.174 HD
ATOM     25  O   LIG    1       -2.213  -0.104   0.124  0.00  0.00    -0.251 OA
BRANCH  20  29
ATOM     26  C   LIG    1       -0.057   4.162   0.004  0.00  0.00    +0.000 A 
ATOM     27  C   LIG    1        0.994   3.486   0.597  0.00  0.00    +0.002 A 
ATOM     28  C   LIG    1        1.016   2.105   0.598  0.00  0.00    +0.023 A 
ATOM     29  C   LIG    1       -0.018   1.395   0.003  0.00  0.00    +0.035 A 
ATOM     30  C   LIG    1       -1.068   2.077  -0.597  0.00  0.00    +0.023 A 
ATOM     31  C   LIG    1       -1.088   3.458  -0.590  0.00  0.00    +0.002 A 
ENDBRANCH  20  29
ENDBRANCH   1  23
TORSDOF 7
