REMARK  Name = ZINC03612873
REMARK                            x       y       z     vdW  Elec       q    Type
REMARK                         _______ _______ _______ _____ _____    ______ ____
ROOT
ATOM      1  C   LIG    1        1.446   4.310   0.011  0.00  0.00    +0.022 C 
ATOM      2  C   LIG    1        0.587   5.541  -0.347  0.00  0.00    +0.048 C 
ATOM      3  C   LIG    1        0.706   5.683  -1.850  0.00  0.00    -0.043 A 
ATOM      4  C   LIG    1       -0.076   6.391  -2.748  0.00  0.00    +0.007 A 
ATOM      5  C   LIG    1        0.227   6.375  -4.095  0.00  0.00    +0.038 A 
ATOM      6  C   LIG    1        1.315   5.650  -4.550  0.00  0.00    +0.124 A 
ATOM      7  F   LIG    1        1.614   5.633  -5.868  0.00  0.00    -0.205 F 
ATOM      8  C   LIG    1        2.096   4.944  -3.654  0.00  0.00    +0.042 A 
ATOM      9  C   LIG    1        1.792   4.959  -2.303  0.00  0.00    -0.041 A 
ATOM     10  C   LIG    1        2.478   4.281  -1.136  0.00  0.00    +0.049 C 
ENDROOT
BRANCH   1  11
ATOM     11  C   LIG    1        0.611   3.055   0.013  0.00  0.00    +0.066 A 
ATOM     12  C   LIG    1        1.079   1.793   0.001  0.00  0.00    +0.107 A 
ATOM     13  N   LIG    1       -0.011   0.966   0.007  0.00  0.00    -0.351 N 
ATOM     14  C   LIG    1       -1.109   1.752   0.016  0.00  0.00    +0.196 A 
ATOM     15  H   LIG    1        0.003  -0.034   0.006  0.00  0.00    +0.166 HD
ATOM     16  N   LIG    1       -0.729   3.001   0.025  0.00  0.00    -0.240 NA
ENDBRANCH   1  11
BRANCH   1  18
ATOM     17  C   LIG    1        3.030   3.297   1.657  0.00  0.00    +0.005 C 
ATOM     18  C   LIG    1        2.135   4.503   1.364  0.00  0.00    +0.010 C 
ENDBRANCH   1  18
TORSDOF 2
