REMARK  Name = ZINC03070330
REMARK                            x       y       z     vdW  Elec       q    Type
REMARK                         _______ _______ _______ _____ _____    ______ ____
ROOT
ATOM      1  N   ALA A  1        2.634   3.529  -0.004  0.00  0.00    -0.299 N 
ATOM      2  H   ALA A  1        3.320   2.947  -0.369  0.00  0.00    +0.150 HD
ATOM      3  C   UNK A  0        2.969   4.736   0.492  0.00  0.00    +0.246 C 
ATOM      4  O   UNK A  0        2.110   5.465   0.950  0.00  0.00    -0.270 OA
ENDROOT
BRANCH   3   5
ATOM      5  C   UNK A  0        4.380   5.174   0.481  0.00  0.00    +0.051 A 
ATOM      6  C   UNK A  0        5.370   4.338  -0.038  0.00  0.00    +0.014 A 
ATOM      7  C   UNK A  0        6.684   4.755  -0.049  0.00  0.00    +0.001 A 
ATOM      8  C   UNK A  0        7.026   5.995   0.461  0.00  0.00    +0.001 A 
ATOM      9  C   UNK A  0        6.051   6.827   0.982  0.00  0.00    +0.016 A 
ATOM     10  C   UNK A  0        4.730   6.425   0.995  0.00  0.00    +0.030 A 
ATOM     11 BR   UNK A  0        3.399   7.564   1.708  0.00  0.00    -0.050 Br
ENDBRANCH   3   5
BRANCH   1  13
ATOM     12  CB  ALA A  1        0.522   3.639  -1.233  0.00  0.00    +0.040 C 
ATOM     13  CA  ALA A  1        1.235   3.094   0.007  0.00  0.00    +0.179 C 
BRANCH  13  14
ATOM     14  C   ALA A  1        1.177   1.588  -0.001  0.00  0.00    +0.325 C 
ATOM     15  O   ALA A  1        2.199   0.944  -0.014  0.00  0.00    -0.249 OA
BRANCH  14  16
ATOM     16  OXT ALA A  1       -0.011   0.963   0.007  0.00  0.00    -0.479 OA
ATOM     17  HXT ALA A  1       -0.804   1.462   0.018  0.00  0.00    +0.295 HD
ENDBRANCH  14  16
ENDBRANCH  13  14
ENDBRANCH   1  13
TORSDOF 4
