REMARK  Name = ZINC03079337
REMARK                            x       y       z     vdW  Elec       q    Type
REMARK                         _______ _______ _______ _____ _____    ______ ____
ROOT
ATOM      1  C   LIG    1        0.535   1.328  -0.008  0.00  0.00    -0.093 C 
ATOM      2  N   LIG    1        0.020  -0.047   0.049  0.00  0.00    +0.376 N 
ATOM      3  C   LIG    1       -1.449  -0.018   0.062  0.00  0.00    -0.093 C 
ATOM      4  C   LIG    1        0.508  -0.703   1.269  0.00  0.00    -0.093 C 
ENDROOT
BRANCH   2   5
ATOM      5  C   LIG    1        0.484  -0.793  -1.128  0.00  0.00    -0.048 C 
BRANCH   5   6
ATOM      6  C   LIG    1        2.011  -0.722  -1.207  0.00  0.00    +0.138 C 
BRANCH   6   7
ATOM      7  O   LIG    1        2.578  -1.450  -0.116  0.00  0.00    -0.397 OA
ATOM      8  H   LIG    1        3.545  -1.448  -0.102  0.00  0.00    +0.209 HD
ENDBRANCH   6   7
ENDBRANCH   5   6
ENDBRANCH   2   5
TORSDOF 3
