REMARK  Name = ZINC03377215
REMARK                            x       y       z     vdW  Elec       q    Type
REMARK                         _______ _______ _______ _____ _____    ______ ____
ROOT
ATOM      1  C   LIG    1       -9.536  -1.167  -4.708  0.00  0.00    +0.010 C 
ATOM      2  C   LIG    1       -9.351   0.364  -4.689  0.00  0.00    +0.037 C 
ATOM      3  C   LIG    1       -8.034   0.607  -3.951  0.00  0.00    -0.023 A 
ATOM      4  C   LIG    1       -7.716  -0.507  -3.268  0.00  0.00    -0.004 A 
ATOM      5  S   LIG    1       -6.186  -0.117  -2.455  0.00  0.00    -0.077 S 
ATOM      6  C   LIG    1       -5.972   1.506  -3.017  0.00  0.00    +0.084 A 
ATOM      7  C   LIG    1       -7.086   1.712  -3.813  0.00  0.00    +0.068 A 
ATOM      8  C   LIG    1       -8.737  -1.596  -3.457  0.00  0.00    +0.043 C 
ENDROOT
BRANCH   7   9
ATOM      9  C   LIG    1       -7.306   2.991  -4.495  0.00  0.00    +0.244 C 
ATOM     10  N   LIG    1       -7.996   3.973  -3.881  0.00  0.00    -0.325 N 
ATOM     11  H   LIG    1       -8.141   4.819  -4.333  0.00  0.00    +0.145 HD
ATOM     12  H   LIG    1       -8.347   3.833  -2.988  0.00  0.00    +0.145 HD
ATOM     13  O   LIG    1       -6.865   3.167  -5.616  0.00  0.00    -0.270 OA
ENDBRANCH   7   9
BRANCH   6  14
ATOM     14  N   LIG    1       -4.940   2.387  -2.735  0.00  0.00    -0.278 N 
ATOM     15  H   LIG    1       -4.943   3.277  -3.120  0.00  0.00    +0.155 HD
ATOM     16  C   LIG    1       -3.932   2.006  -1.925  0.00  0.00    +0.235 C 
ATOM     17  O   LIG    1       -3.928   0.893  -1.444  0.00  0.00    -0.274 OA
BRANCH  16  18
ATOM     18  C   LIG    1       -2.809   2.964  -1.618  0.00  0.00    +0.212 C 
BRANCH  18  19
ATOM     19  N   LIG    1       -1.847   2.318  -0.723  0.00  0.00    -0.233 N 
ATOM     20  C   LIG    1       -0.799   1.614  -1.172  0.00  0.00    +0.223 C 
ATOM     21  C   LIG    1       -0.013   1.086   0.008  0.00  0.00    +0.105 C 
ATOM     22  C   LIG    1       -0.791   1.611   1.231  0.00  0.00    +0.105 C 
ATOM     23  O   LIG    1       -0.525   1.430  -2.338  0.00  0.00    -0.275 OA
ATOM     24  C   LIG    1       -1.942   2.381   0.611  0.00  0.00    +0.223 C 
ATOM     25  O   LIG    1       -2.808   2.964   1.226  0.00  0.00    -0.275 OA
ENDBRANCH  18  19
ENDBRANCH  16  18
ENDBRANCH   6  14
TORSDOF 4
