REMARK  Name = ZINC02526554
REMARK                            x       y       z     vdW  Elec       q    Type
REMARK                         _______ _______ _______ _____ _____    ______ ____
ROOT
ATOM      1  C   LIG    1       -0.756   1.523   0.304  0.00  0.00    +0.046 C 
ATOM      2  C   LIG    1       -0.440   0.053   0.207  0.00  0.00    -0.022 A 
ATOM      3  C   LIG    1       -0.416  -0.754  -1.016  0.00  0.00    +0.006 A 
ATOM      4  C   LIG    1       -0.653  -0.478  -2.364  0.00  0.00    +0.048 A 
ATOM      5  C   LIG    1       -0.547  -1.488  -3.295  0.00  0.00    +0.124 A 
ATOM      6  F   LIG    1       -0.775  -1.226  -4.601  0.00  0.00    -0.205 F 
ATOM      7  C   LIG    1       -0.207  -2.777  -2.897  0.00  0.00    +0.040 A 
ATOM      8  C   LIG    1        0.028  -3.063  -1.571  0.00  0.00    +0.029 A 
ATOM      9  C   LIG    1       -0.073  -2.057  -0.615  0.00  0.00    +0.050 A 
ATOM     10  N   LIG    1        0.098  -2.030   0.752  0.00  0.00    -0.339 N 
ATOM     11  C   LIG    1       -0.119  -0.764   1.223  0.00  0.00    +0.024 A 
ENDROOT
BRANCH  10  12
ATOM     12  C   LIG    1        0.463  -3.184   1.578  0.00  0.00    +0.157 C 
BRANCH  12  13
ATOM     13  C   LIG    1        1.961  -3.349   1.577  0.00  0.00    -0.028 A 
ATOM     14  C   LIG    1        2.578  -4.047   0.555  0.00  0.00    +0.007 A 
ATOM     15  C   LIG    1        3.952  -4.198   0.553  0.00  0.00    +0.020 A 
ATOM     16  C   LIG    1        4.709  -3.651   1.574  0.00  0.00    +0.041 A 
ATOM     17 CL   LIG    1        6.435  -3.842   1.572  0.00  0.00    -0.084 Cl
ATOM     18  C   LIG    1        4.091  -2.953   2.596  0.00  0.00    +0.020 A 
ATOM     19  C   LIG    1        2.718  -2.797   2.593  0.00  0.00    +0.007 A 
ENDBRANCH  12  13
ENDBRANCH  10  12
BRANCH  11  20
ATOM     20  C   LIG    1       -0.018  -0.349   2.668  0.00  0.00    +0.071 C 
BRANCH  20  21
ATOM     21  C   LIG    1       -1.377  -0.530   3.347  0.00  0.00    +0.067 C 
ATOM     22  C   LIG    1       -1.738  -2.016   3.377  0.00  0.00    +0.023 C 
ATOM     23  C   LIG    1       -2.444   0.239   2.565  0.00  0.00    +0.023 C 
BRANCH  21  24
ATOM     24  C   LIG    1       -1.308  -0.001   4.756  0.00  0.00    +0.311 C 
ATOM     25  O   LIG    1       -2.306   0.461   5.283  0.00  0.00    -0.250 OA
BRANCH  24  26
ATOM     26  O   LIG    1       -0.255  -0.035   5.370  0.00  0.00    -0.480 OA
ATOM     27  H   LIG    1        0.511  -0.391   4.965  0.00  0.00    +0.295 HD
ENDBRANCH  24  26
ENDBRANCH  21  24
ENDBRANCH  20  21
ENDBRANCH  11  20
TORSDOF 6
