REMARK  Name = ZINC03137566
REMARK                            x       y       z     vdW  Elec       q    Type
REMARK                         _______ _______ _______ _____ _____    ______ ____
ROOT
ATOM      1  C   LIG    1        0.718  -0.497  -1.257  0.00  0.00    +0.150 C 
ATOM      2  C   LIG    1       -0.126  -0.119  -2.460  0.00  0.00    +0.240 C 
ATOM      3  N   LIG    1        0.454   0.660  -3.399  0.00  0.00    -0.241 N 
ATOM      4  H   LIG    1       -0.057   0.921  -4.181  0.00  0.00    +0.159 HD
ATOM      5  C   LIG    1        1.739   1.087  -3.272  0.00  0.00    +0.278 C 
ATOM      6  N   LIG    1        2.527   0.801  -2.264  0.00  0.00    -0.130 NA
ATOM      7  O   LIG    1       -1.271  -0.500  -2.573  0.00  0.00    -0.274 OA
ATOM      8  C   LIG    1        2.135   0.044  -1.237  0.00  0.00    +0.260 C 
ATOM      9  O   LIG    1        2.889  -0.204  -0.317  0.00  0.00    -0.272 OA
ENDROOT
BRANCH   1  10
ATOM     10  C   LIG    1        0.789  -2.002  -1.193  0.00  0.00    -0.024 A 
ATOM     11  C   LIG    1        0.246  -2.674  -0.115  0.00  0.00    +0.005 A 
ATOM     12  C   LIG    1        0.312  -4.054  -0.056  0.00  0.00    +0.000 A 
ATOM     13  C   LIG    1        0.920  -4.761  -1.077  0.00  0.00    +0.000 A 
ATOM     14  C   LIG    1        1.462  -4.088  -2.156  0.00  0.00    +0.000 A 
ATOM     15  C   LIG    1        1.393  -2.709  -2.216  0.00  0.00    +0.005 A 
ENDBRANCH   1  10
BRANCH   1  17
ATOM     16  C   LIG    1       -0.019   1.526   0.010  0.00  0.00    +0.006 C 
ATOM     17  C   LIG    1        0.002  -0.004   0.002  0.00  0.00    +0.027 C 
ENDBRANCH   1  17
BRANCH   5  18
ATOM     18  O   LIG    1        2.238   1.860  -4.253  0.00  0.00    -0.483 OA
ATOM     19  H   LIG    1        1.705   2.085  -4.990  0.00  0.00    +0.295 HD
ENDBRANCH   5  18
TORSDOF 3
