REMARK  Name = ZINC03080663
REMARK                            x       y       z     vdW  Elec       q    Type
REMARK                         _______ _______ _______ _____ _____    ______ ____
ROOT
ATOM      1  C   LIG    1        2.354   5.670   0.009  0.00  0.00    +0.013 A 
ATOM      2  C   LIG    1        2.367   4.278   0.002  0.00  0.00    +0.019 A 
ATOM      3  C   LIG    1        1.168   3.571   0.010  0.00  0.00    -0.017 A 
ATOM      4  C   LIG    1       -0.044   4.255   0.019  0.00  0.00    +0.019 A 
ATOM      5  C   LIG    1       -0.057   5.647   0.030  0.00  0.00    +0.013 A 
ATOM      6  C   LIG    1        1.142   6.354   0.024  0.00  0.00    +0.137 A 
ENDROOT
BRANCH   1  11
ATOM      7  C   LIG    1        7.314   8.597  -0.018  0.00  0.00    +0.044 C 
ATOM      8  C   LIG    1        6.016   7.831  -0.011  0.00  0.00    -0.050 A 
ATOM      9  C   LIG    1        5.822   6.812   0.904  0.00  0.00    +0.004 A 
ATOM     10  C   LIG    1        4.636   6.107   0.915  0.00  0.00    +0.009 A 
ATOM     11  C   LIG    1        3.632   6.424   0.002  0.00  0.00    -0.016 A 
ATOM     12  C   LIG    1        3.835   7.447  -0.921  0.00  0.00    +0.009 A 
ATOM     13  C   LIG    1        5.023   8.149  -0.920  0.00  0.00    +0.004 A 
ENDBRANCH   1  11
BRANCH   3  14
ATOM     14  C   LIG    1        1.182   2.086   0.002  0.00  0.00    -0.018 A 
ATOM     15  C   LIG    1       -0.017   1.376   0.010  0.00  0.00    +0.008 A 
ATOM     16  C   LIG    1        0.002  -0.004   0.002  0.00  0.00    +0.001 A 
ATOM     17  C   LIG    1        1.208  -0.682  -0.013  0.00  0.00    +0.000 A 
ATOM     18  C   LIG    1        2.401   0.018  -0.020  0.00  0.00    +0.001 A 
ATOM     19  C   LIG    1        2.393   1.399  -0.013  0.00  0.00    +0.008 A 
ENDBRANCH   3  14
BRANCH   5  20
ATOM     20  C   LIG    1       -1.349   6.377   0.046  0.00  0.00    -0.016 A 
ATOM     21  C   LIG    1       -1.571   7.386   0.981  0.00  0.00    +0.008 A 
ATOM     22  C   LIG    1       -2.773   8.065   0.988  0.00  0.00    +0.001 A 
ATOM     23  C   LIG    1       -3.760   7.738   0.076  0.00  0.00    +0.000 A 
ATOM     24  C   LIG    1       -3.547   6.733  -0.851  0.00  0.00    +0.001 A 
ATOM     25  C   LIG    1       -2.347   6.052  -0.870  0.00  0.00    +0.008 A 
ENDBRANCH   5  20
BRANCH   6  26
ATOM     26  N   LIG    1        1.128   7.835   0.032  0.00  0.00    +0.007 N 
ATOM     27  O   LIG    1        1.113   8.450  -1.019  0.00  0.00    -0.130 OA
BRANCH  26  28
ATOM     28  O   LIG    1        1.131   8.438   1.090  0.00  0.00    -0.396 OA
ATOM     29  H   LIG    1        1.143   7.964   1.899  0.00  0.00    +0.329 HD
ENDBRANCH  26  28
ENDBRANCH   6  26
TORSDOF 5
