REMARK  Name = ZINC02981476
REMARK                            x       y       z     vdW  Elec       q    Type
REMARK                         _______ _______ _______ _____ _____    ______ ____
ROOT
ATOM      1  C   LIG    1       -2.467   3.830   0.045  0.00  0.00    -0.008 A 
ATOM      2  C   LIG    1       -1.240   3.127   0.030  0.00  0.00    -0.010 A 
ATOM      3  C   LIG    1       -1.210   1.724   0.017  0.00  0.00    +0.009 A 
ATOM      4  C   LIG    1       -0.013   1.076   0.008  0.00  0.00    +0.001 A 
ATOM      5  C   LIG    1        1.194   1.772   0.000  0.00  0.00    +0.001 A 
ATOM      6  C   LIG    1        1.233   3.130   0.006  0.00  0.00    +0.008 A 
ATOM      7  C   LIG    1        0.026   3.861   0.021  0.00  0.00    -0.017 A 
ATOM      8  C   LIG    1        0.032   5.258   0.028  0.00  0.00    +0.017 A 
ATOM      9  C   LIG    1       -1.174   5.962   0.044  0.00  0.00    -0.017 A 
ATOM     10  C   LIG    1       -1.190   7.373   0.051  0.00  0.00    +0.008 A 
ATOM     11  C   LIG    1       -2.380   8.030   0.067  0.00  0.00    +0.001 A 
ATOM     12  C   LIG    1       -3.592   7.344   0.075  0.00  0.00    +0.001 A 
ATOM     13  C   LIG    1       -3.643   5.984   0.068  0.00  0.00    +0.009 A 
ATOM     14  C   LIG    1       -2.450   5.245   0.052  0.00  0.00    -0.010 A 
ENDROOT
BRANCH   1  19
ATOM     15  C   LIG    1       -6.279   4.365   2.923  0.00  0.00    +0.102 C 
ATOM     16  N   LIG    1       -6.723   3.380   2.158  0.00  0.00    -0.168 NA
ATOM     17  C   LIG    1       -6.004   2.868   1.183  0.00  0.00    +0.275 C 
ATOM     18  C   LIG    1       -4.662   3.450   0.979  0.00  0.00    +0.078 C 
ATOM     19  C   LIG    1       -3.693   3.130   0.054  0.00  0.00    +0.029 C 
ATOM     20  O   LIG    1       -6.425   1.959   0.482  0.00  0.00    -0.267 OA
ATOM     21  S   LIG    1       -4.645   4.681   2.276  0.00  0.00    -0.066 S 
BRANCH  15  25
ATOM     22  C   LIG    1       -8.255   6.290   6.151  0.00  0.00    +0.000 A 
ATOM     23  C   LIG    1       -8.891   5.270   5.464  0.00  0.00    +0.001 A 
ATOM     24  C   LIG    1       -8.255   4.640   4.415  0.00  0.00    +0.010 A 
ATOM     25  C   LIG    1       -6.967   5.034   4.045  0.00  0.00    +0.005 A 
ATOM     26  C   LIG    1       -6.329   6.061   4.747  0.00  0.00    +0.010 A 
ATOM     27  C   LIG    1       -6.979   6.685   5.791  0.00  0.00    +0.001 A 
ENDBRANCH  15  25
ENDBRANCH   1  19
TORSDOF 2
