REMARK  Name = ZINC02579321
REMARK                            x       y       z     vdW  Elec       q    Type
REMARK                         _______ _______ _______ _____ _____    ______ ____
ROOT
ATOM      1  C   LIG    1        2.396   5.396  -0.104  0.00  0.00    +0.184 A 
ATOM      2  C   LIG    1        3.511   6.211  -0.220  0.00  0.00    +0.039 A 
ATOM      3  C   LIG    1        2.990   7.585  -0.291  0.00  0.00    +0.029 A 
ATOM      4  C   LIG    1        3.585   8.841  -0.412  0.00  0.00    +0.012 A 
ATOM      5  C   LIG    1        2.802   9.961  -0.451  0.00  0.00    +0.001 A 
ATOM      6  C   LIG    1        1.421   9.855  -0.372  0.00  0.00    +0.004 A 
ATOM      7  C   LIG    1        0.815   8.623  -0.252  0.00  0.00    +0.047 A 
ATOM      8  C   LIG    1        1.592   7.470  -0.210  0.00  0.00    +0.136 A 
ATOM      9  O   LIG    1        1.284   6.162  -0.106  0.00  0.00    -0.451 OA
ENDROOT
BRANCH   2  10
ATOM     10  C   LIG    1        4.926   5.789  -0.264  0.00  0.00    -0.014 A 
ATOM     11  C   LIG    1        5.799   6.160   0.762  0.00  0.00    +0.009 A 
ATOM     12  C   LIG    1        7.115   5.762   0.722  0.00  0.00    +0.009 A 
ATOM     13  C   LIG    1        7.581   4.996  -0.347  0.00  0.00    -0.018 A 
ATOM     14  C   LIG    1        6.712   4.629  -1.375  0.00  0.00    +0.009 A 
ATOM     15  C   LIG    1        5.393   5.022  -1.335  0.00  0.00    +0.009 A 
BRANCH  13  16
ATOM     16  C   LIG    1        9.001   4.572  -0.392  0.00  0.00    -0.018 A 
ATOM     17  C   LIG    1        9.467   3.802  -1.457  0.00  0.00    +0.012 A 
ATOM     18  C   LIG    1       10.789   3.413  -1.498  0.00  0.00    +0.046 A 
ATOM     19  C   LIG    1       11.654   3.779  -0.475  0.00  0.00    +0.117 A 
ATOM     20  C   LIG    1       11.191   4.541   0.590  0.00  0.00    +0.046 A 
ATOM     21  C   LIG    1        9.871   4.937   0.634  0.00  0.00    +0.012 A 
BRANCH  19  22
ATOM     22  O   LIG    1       12.955   3.390  -0.515  0.00  0.00    -0.507 OA
ATOM     23  H   LIG    1       13.125   2.539  -0.089  0.00  0.00    +0.292 HD
ENDBRANCH  19  22
ENDBRANCH  13  16
ENDBRANCH   2  10
BRANCH   1  24
ATOM     24  C   LIG    1        2.420   3.938  -0.001  0.00  0.00    +0.229 C 
ATOM     25  O   LIG    1        3.484   3.351   0.086  0.00  0.00    -0.283 OA
BRANCH  24  29
ATOM     26  C   LIG    1       -1.220   1.748  -0.011  0.00  0.00    +0.000 A 
ATOM     27  C   LIG    1       -0.011   1.075  -0.033  0.00  0.00    +0.001 A 
ATOM     28  C   LIG    1        1.174   1.780  -0.032  0.00  0.00    +0.012 A 
ATOM     29  C   LIG    1        1.153   3.176  -0.002  0.00  0.00    +0.025 A 
ATOM     30  C   LIG    1       -0.070   3.848   0.026  0.00  0.00    +0.012 A 
ATOM     31  C   LIG    1       -1.248   3.131   0.024  0.00  0.00    +0.001 A 
ENDBRANCH  24  29
ENDBRANCH   1  24
TORSDOF 5
