REMARK  Name = ZINC02819839
REMARK                            x       y       z     vdW  Elec       q    Type
REMARK                         _______ _______ _______ _____ _____    ______ ____
ROOT
ATOM      1  C   LIG    1       -0.070   5.343   0.031  0.00  0.00    +0.026 C 
ATOM      2  C   LIG    1       -0.046   4.029   0.452  0.00  0.00    +0.100 C 
ATOM      3  C   LIG    1        1.179   3.209   0.354  0.00  0.00    +0.256 C 
ATOM      4  N   LIG    1        1.126   1.932   0.785  0.00  0.00    -0.236 N 
ATOM      5  H   LIG    1        1.922   1.380   0.729  0.00  0.00    +0.159 HD
ATOM      6  C   LIG    1        0.001   1.408   1.290  0.00  0.00    +0.313 C 
ATOM      7  N   LIG    1       -1.148   2.089   1.404  0.00  0.00    -0.236 N 
ATOM      8  H   LIG    1       -1.926   1.645   1.776  0.00  0.00    +0.159 HD
ATOM      9  O   LIG    1        0.022   0.251   1.661  0.00  0.00    -0.252 OA
ATOM     10  O   LIG    1        2.206   3.673  -0.102  0.00  0.00    -0.270 OA
ATOM     11  C   LIG    1       -1.245   3.378   1.020  0.00  0.00    +0.256 C 
ATOM     12  O   LIG    1       -2.292   3.987   1.133  0.00  0.00    -0.270 OA
ENDROOT
BRANCH   1  19
ATOM     13  C   LIG    1       -2.451   5.449  -0.672  0.00  0.00    +0.011 A 
ATOM     14  C   LIG    1       -3.648   6.126  -0.752  0.00  0.00    +0.039 A 
ATOM     15  C   LIG    1       -3.756   7.412  -0.242  0.00  0.00    +0.123 A 
ATOM     16  F   LIG    1       -4.932   8.072  -0.330  0.00  0.00    -0.205 F 
ATOM     17  C   LIG    1       -2.664   8.024   0.357  0.00  0.00    +0.039 A 
ATOM     18  C   LIG    1       -1.463   7.358   0.449  0.00  0.00    +0.011 A 
ATOM     19  C   LIG    1       -1.345   6.058  -0.064  0.00  0.00    -0.024 A 
ENDBRANCH   1  19
TORSDOF 1
