REMARK  Name = ZINC02562056
REMARK                            x       y       z     vdW  Elec       q    Type
REMARK                         _______ _______ _______ _____ _____    ______ ____
ROOT
ATOM      1  S   LIG    1       -4.434   2.525   2.439  0.00  0.00    +0.042 S 
ATOM      2  O   LIG    1       -4.832   2.417   3.799  0.00  0.00    -0.163 OA
ATOM      3  O   LIG    1       -5.004   1.725   1.412  0.00  0.00    -0.163 OA
ENDROOT
BRANCH   1   8
ATOM      4  C   LIG    1       -5.321   8.274   0.836  0.00  0.00    +0.044 C 
ATOM      5  C   LIG    1       -5.100   6.838   1.236  0.00  0.00    -0.050 A 
ATOM      6  C   LIG    1       -5.080   5.847   0.273  0.00  0.00    +0.005 A 
ATOM      7  C   LIG    1       -4.877   4.530   0.640  0.00  0.00    +0.028 A 
ATOM      8  C   LIG    1       -4.693   4.204   1.971  0.00  0.00    +0.095 A 
ATOM      9  C   LIG    1       -4.718   5.194   2.935  0.00  0.00    +0.028 A 
ATOM     10  C   LIG    1       -4.917   6.512   2.567  0.00  0.00    +0.005 A 
ENDBRANCH   1   8
BRANCH   1  11
ATOM     11  C   LIG    1       -2.697   2.235   2.399  0.00  0.00    +0.187 A 
ATOM     12  C   LIG    1       -2.086   1.793   1.235  0.00  0.00    +0.071 A 
ATOM     13  C   LIG    1       -0.718   1.572   1.248  0.00  0.00    +0.045 A 
ATOM     14  C   LIG    1       -0.013   1.086   0.008  0.00  0.00    +0.066 C 
ATOM     15  N   LIG    1       -0.038   1.798   2.360  0.00  0.00    -0.220 NA
ATOM     16  C   LIG    1       -0.651   2.226   3.454  0.00  0.00    +0.215 A 
ATOM     17  N   LIG    1       -1.958   2.442   3.477  0.00  0.00    -0.196 NA
BRANCH  16  18
ATOM     18  N   LIG    1        0.091   2.452   4.599  0.00  0.00    -0.327 N 
ATOM     19  H   LIG    1       -0.346   2.766   5.407  0.00  0.00    +0.145 HD
ATOM     20  H   LIG    1        1.049   2.298   4.595  0.00  0.00    +0.145 HD
ENDBRANCH  16  18
ENDBRANCH   1  11
TORSDOF 3
