REMARK  Name = ZINC02516049
REMARK                            x       y       z     vdW  Elec       q    Type
REMARK                         _______ _______ _______ _____ _____    ______ ____
ROOT
ATOM      1  N   LIG    1       -1.654  -3.144   2.122  0.00  0.00    +0.384 N 
ATOM      2  H   LIG    1       -2.276  -2.356   2.018  0.00  0.00    -0.086 HD
ATOM      3  H   LIG    1       -0.713  -2.812   2.269  0.00  0.00    -0.086 HD
ENDROOT
BRANCH   1   4
ATOM      4  C   LIG    1       -1.698  -3.965   0.905  0.00  0.00    -0.041 C 
BRANCH   4   5
ATOM      5  C   LIG    1       -1.260  -3.124  -0.295  0.00  0.00    +0.210 C 
BRANCH   5   6
ATOM      6  O   LIG    1        0.111  -2.751  -0.140  0.00  0.00    -0.487 OA
BRANCH   6  12
ATOM      7  C   LIG    1        0.606  -0.608  -1.056  0.00  0.00    +0.165 A 
ATOM      8  C   LIG    1        1.173   0.160  -2.063  0.00  0.00    +0.049 A 
ATOM      9  C   LIG    1        1.787  -0.452  -3.139  0.00  0.00    +0.007 A 
ATOM     10  C   LIG    1        1.839  -1.831  -3.217  0.00  0.00    +0.049 A 
ATOM     11  C   LIG    1        1.275  -2.606  -2.215  0.00  0.00    +0.165 A 
ATOM     12  C   LIG    1        0.661  -1.994  -1.128  0.00  0.00    +0.204 A 
BRANCH   7  14
ATOM     13  C   LIG    1       -0.017   1.425   0.010  0.00  0.00    +0.277 C 
ATOM     14  O   LIG    1        0.002  -0.004   0.002  0.00  0.00    -0.491 OA
ENDBRANCH   7  14
BRANCH  11  15
ATOM     15  O   LIG    1        1.326  -3.963  -2.293  0.00  0.00    -0.491 OA
ATOM     16  C   LIG    1        1.977  -4.523  -3.435  0.00  0.00    +0.277 C 
ENDBRANCH  11  15
ENDBRANCH   6  12
ENDBRANCH   5   6
ENDBRANCH   4   5
ENDBRANCH   1   4
BRANCH   1  17
ATOM     17  C   LIG    1       -2.075  -3.952   3.274  0.00  0.00    -0.037 C 
BRANCH  17  18
ATOM     18  C   LIG    1       -2.030  -3.096   4.541  0.00  0.00    +0.167 C 
ATOM     19  C   LIG    1       -2.466  -3.942   5.749  0.00  0.00    +0.117 C 
ATOM     20  S   LIG    1       -2.564  -2.818   7.178  0.00  0.00    -0.118 S 
ATOM     21  C   LIG    1       -1.100  -1.845   7.004  0.00  0.00    +0.050 A 
ATOM     22  C   LIG    1       -0.682  -1.058   8.069  0.00  0.00    +0.018 A 
ATOM     23  C   LIG    1        0.455  -0.282   7.954  0.00  0.00    +0.001 A 
ATOM     24  C   LIG    1        1.175  -0.289   6.773  0.00  0.00    +0.004 A 
ATOM     25  C   LIG    1        0.765  -1.072   5.713  0.00  0.00    +0.047 A 
ATOM     26  C   LIG    1       -0.375  -1.865   5.817  0.00  0.00    +0.134 A 
ATOM     27  O   LIG    1       -0.705  -2.632   4.753  0.00  0.00    -0.489 OA
ENDBRANCH  17  18
ENDBRANCH   1  17
TORSDOF 8
