REMARK  Name = ZINC02992723
REMARK                            x       y       z     vdW  Elec       q    Type
REMARK                         _______ _______ _______ _____ _____    ______ ____
ROOT
ATOM      1  C   LIG    1       -0.069   1.323   0.682  0.00  0.00    +0.011 A 
ATOM      2  C   LIG    1        1.078   2.057   0.783  0.00  0.00    +0.046 A 
ATOM      3  C   LIG    1        2.285   1.533   0.329  0.00  0.00    +0.121 A 
ATOM      4  C   LIG    1        2.333   0.259  -0.229  0.00  0.00    +0.046 A 
ATOM      5  C   LIG    1        1.193  -0.486  -0.335  0.00  0.00    +0.011 A 
ATOM      6  C   LIG    1       -0.028   0.036   0.121  0.00  0.00    -0.024 A 
ENDROOT
BRANCH   6   7
ATOM      7  C   LIG    1       -1.251  -0.755   0.010  0.00  0.00    +0.026 C 
ATOM      8  C   LIG    1       -2.410  -0.175  -0.482  0.00  0.00    +0.096 C 
ATOM      9  C   LIG    1       -2.394   1.148  -1.125  0.00  0.00    +0.218 C 
ATOM     10  N   LIG    1       -3.534   1.644  -1.574  0.00  0.00    -0.127 NA
ATOM     11  C   LIG    1       -4.685   0.985  -1.461  0.00  0.00    +0.333 C 
ATOM     12  N   LIG    1       -4.795  -0.224  -0.892  0.00  0.00    -0.234 N 
ATOM     13  H   LIG    1       -5.665  -0.650  -0.841  0.00  0.00    +0.159 HD
ATOM     14  O   LIG    1       -5.694   1.509  -1.900  0.00  0.00    -0.250 OA
ATOM     15  C   LIG    1       -3.715  -0.860  -0.391  0.00  0.00    +0.256 C 
ATOM     16  O   LIG    1       -3.813  -1.959   0.122  0.00  0.00    -0.270 OA
BRANCH   9  17
ATOM     17  O   LIG    1       -1.242   1.839  -1.254  0.00  0.00    -0.493 OA
ATOM     18  H   LIG    1       -0.440   1.477  -0.932  0.00  0.00    +0.294 HD
ENDBRANCH   9  17
ENDBRANCH   6   7
BRANCH   3  19
ATOM     19  O   LIG    1        3.421   2.268   0.432  0.00  0.00    -0.489 OA
BRANCH  19  20
ATOM     20  C   LIG    1        4.625   1.671  -0.053  0.00  0.00    +0.270 C 
BRANCH  20  21
ATOM     21  C   LIG    1        5.791   2.642   0.146  0.00  0.00    +0.270 C 
BRANCH  21  22
ATOM     22  O   LIG    1        6.007   2.848   1.543  0.00  0.00    -0.489 OA
BRANCH  22  23
ATOM     23  C   LIG    1        7.014   3.690   1.894  0.00  0.00    +0.121 A 
ATOM     24  C   LIG    1        7.775   4.310   0.914  0.00  0.00    +0.048 A 
ATOM     25  C   LIG    1        8.798   5.166   1.274  0.00  0.00    +0.036 A 
ATOM     26  C   LIG    1        9.063   5.406   2.609  0.00  0.00    +0.122 A 
ATOM     27  C   LIG    1        8.306   4.789   3.588  0.00  0.00    +0.036 A 
ATOM     28  C   LIG    1        7.279   3.936   3.234  0.00  0.00    +0.048 A 
BRANCH  26  29
ATOM     29  N   LIG    1       10.160   6.323   2.992  0.00  0.00    +0.006 N 
ATOM     30  O   LIG    1       10.822   6.863   2.136  0.00  0.00    -0.130 OA
BRANCH  29  31
ATOM     31  O   LIG    1       10.393   6.534   4.159  0.00  0.00    -0.396 OA
ATOM     32  H   LIG    1        9.879   6.115   4.822  0.00  0.00    +0.329 HD
ENDBRANCH  29  31
ENDBRANCH  26  29
ENDBRANCH  22  23
ENDBRANCH  21  22
ENDBRANCH  20  21
ENDBRANCH  19  20
ENDBRANCH   3  19
TORSDOF 9
