REMARK  Name = ZINC02443701
REMARK                            x       y       z     vdW  Elec       q    Type
REMARK                         _______ _______ _______ _____ _____    ______ ____
ROOT
ATOM      1  C   LIG    1        1.928  -3.662  -0.091  0.00  0.00    +0.051 A 
ATOM      2  C   LIG    1        3.288  -3.390  -0.139  0.00  0.00    +0.025 A 
ATOM      3  C   LIG    1        4.199  -4.428  -0.184  0.00  0.00    +0.002 A 
ATOM      4  C   LIG    1        3.760  -5.739  -0.181  0.00  0.00    +0.002 A 
ATOM      5  C   LIG    1        2.407  -6.020  -0.133  0.00  0.00    +0.025 A 
ATOM      6  C   LIG    1        1.486  -4.985  -0.083  0.00  0.00    +0.055 A 
ENDROOT
BRANCH   1  11
ATOM      7  C   LIG    1        0.014   1.465   0.025  0.00  0.00    +0.105 C 
ATOM      8  N   LIG    1        0.027  -0.004   0.013  0.00  0.00    -0.302 NA
ATOM      9  C   LIG    1        0.622  -0.515  -1.228  0.00  0.00    +0.103 C 
ATOM     10  C   LIG    1        0.453  -2.037  -1.282  0.00  0.00    +0.120 C 
ATOM     11  N   LIG    1        1.004  -2.613  -0.046  0.00  0.00    -0.326 N 
ATOM     12  C   LIG    1        0.557  -2.056   1.240  0.00  0.00    +0.120 C 
ATOM     13  C   LIG    1        0.721  -0.533   1.195  0.00  0.00    +0.103 C 
ENDBRANCH   1  11
BRANCH   6  14
ATOM     14  N   LIG    1        0.115  -5.267  -0.028  0.00  0.00    -0.277 N 
ATOM     15  H   LIG    1       -0.478  -4.693   0.481  0.00  0.00    +0.155 HD
ATOM     16  C   LIG    1       -0.380  -6.335  -0.684  0.00  0.00    +0.284 C 
ATOM     17  O   LIG    1        0.374  -7.100  -1.257  0.00  0.00    -0.266 OA
BRANCH  16  18
ATOM     18  C   LIG    1       -1.826  -6.575  -0.709  0.00  0.00    +0.192 A 
ATOM     19  C   LIG    1       -2.456  -7.616  -1.328  0.00  0.00    +0.057 A 
ATOM     20  C   LIG    1       -3.831  -7.452  -1.096  0.00  0.00    +0.076 A 
ATOM     21  C   LIG    1       -3.978  -6.331  -0.354  0.00  0.00    +0.276 A 
ATOM     22  O   LIG    1       -2.767  -5.809  -0.119  0.00  0.00    -0.429 OA
BRANCH  21  23
ATOM     23  N   LIG    1       -5.264  -5.777   0.124  0.00  0.00    +0.043 N 
ATOM     24  O   LIG    1       -6.301  -6.336  -0.145  0.00  0.00    -0.127 OA
BRANCH  23  25
ATOM     25  O   LIG    1       -5.277  -4.764   0.784  0.00  0.00    -0.394 OA
ATOM     26  H   LIG    1       -4.473  -4.330   0.992  0.00  0.00    +0.329 HD
ENDBRANCH  23  25
ENDBRANCH  21  23
ENDBRANCH  16  18
ENDBRANCH   6  14
TORSDOF 5
