REMARK  Name = ZINC02519832
REMARK                            x       y       z     vdW  Elec       q    Type
REMARK                         _______ _______ _______ _____ _____    ______ ____
ROOT
ATOM      1  C   LIG    1        1.234  -2.181  -0.017  0.00  0.00    +0.193 C 
ATOM      2  O   LIG    1        0.199  -2.816   0.037  0.00  0.00    -0.287 OA
ENDROOT
BRANCH   1   6
ATOM      3  C   LIG    1        1.135   2.061   0.145  0.00  0.00    +0.132 A 
ATOM      4  C   LIG    1        0.119   1.368  -0.502  0.00  0.00    +0.047 A 
ATOM      5  C   LIG    1        0.147  -0.007  -0.557  0.00  0.00    +0.015 A 
ATOM      6  C   LIG    1        1.200  -0.707   0.039  0.00  0.00    +0.022 A 
ATOM      7  C   LIG    1        2.220  -0.006   0.690  0.00  0.00    +0.015 A 
ATOM      8  C   LIG    1        2.184   1.369   0.740  0.00  0.00    +0.047 A 
BRANCH   3   9
ATOM      9  O   LIG    1        1.103   3.417   0.198  0.00  0.00    -0.425 OA
BRANCH   9  10
ATOM     10  C   LIG    1        0.230   3.974   1.053  0.00  0.00    +0.318 C 
ATOM     11  O   LIG    1       -0.416   3.275   1.797  0.00  0.00    -0.250 OA
BRANCH  10  13
ATOM     12  C   LIG    1       -0.989   5.841   2.138  0.00  0.00    +0.022 C 
ATOM     13  C   LIG    1        0.056   5.471   1.084  0.00  0.00    +0.060 C 
ATOM     14  C   LIG    1       -0.409   5.959  -0.290  0.00  0.00    +0.022 C 
ATOM     15  C   LIG    1        1.391   6.132   1.435  0.00  0.00    +0.022 C 
ENDBRANCH  10  13
ENDBRANCH   9  10
ENDBRANCH   3   9
ENDBRANCH   1   6
BRANCH   1  16
ATOM     16  C   LIG    1        2.526  -2.885  -0.139  0.00  0.00    +0.022 A 
ATOM     17  C   LIG    1        3.701  -2.161  -0.360  0.00  0.00    +0.015 A 
ATOM     18  C   LIG    1        4.904  -2.821  -0.466  0.00  0.00    +0.047 A 
ATOM     19  C   LIG    1        4.950  -4.207  -0.367  0.00  0.00    +0.132 A 
ATOM     20  C   LIG    1        3.784  -4.931  -0.153  0.00  0.00    +0.047 A 
ATOM     21  C   LIG    1        2.577  -4.279  -0.039  0.00  0.00    +0.015 A 
BRANCH  19  22
ATOM     22  O   LIG    1        6.138  -4.854  -0.479  0.00  0.00    -0.425 OA
BRANCH  22  23
ATOM     23  C   LIG    1        6.374  -5.502  -1.632  0.00  0.00    +0.318 C 
ATOM     24  O   LIG    1        5.587  -5.414  -2.545  0.00  0.00    -0.250 OA
BRANCH  23  25
ATOM     25  C   LIG    1        7.619  -6.337  -1.786  0.00  0.00    +0.060 C 
ATOM     26  C   LIG    1        7.623  -7.446  -0.733  0.00  0.00    +0.022 C 
ATOM     27  C   LIG    1        8.853  -5.452  -1.601  0.00  0.00    +0.022 C 
ATOM     28  C   LIG    1        7.644  -6.960  -3.183  0.00  0.00    +0.022 C 
ENDBRANCH  23  25
ENDBRANCH  22  23
ENDBRANCH  19  22
ENDBRANCH   1  16
TORSDOF 8
