REMARK  Name = ZINC02479470
REMARK                            x       y       z     vdW  Elec       q    Type
REMARK                         _______ _______ _______ _____ _____    ______ ____
ROOT
ATOM      1  S   LIG    1       -2.545  -4.428   0.016  0.00  0.00    +0.076 S 
ATOM      2  O   LIG    1       -1.200  -4.887   0.032  0.00  0.00    -0.150 OA
ATOM      3  O   LIG    1       -3.464  -4.798  -1.003  0.00  0.00    -0.150 OA
ENDROOT
BRANCH   1   8
ATOM      4  C   LIG    1       -1.201  -0.638   0.010  0.00  0.00    +0.122 A 
ATOM      5  C   LIG    1       -2.374   0.102   0.020  0.00  0.00    +0.049 A 
ATOM      6  C   LIG    1       -3.596  -0.542   0.028  0.00  0.00    +0.051 A 
ATOM      7  C   LIG    1       -3.650  -1.928   0.027  0.00  0.00    +0.147 A 
ATOM      8  C   LIG    1       -2.477  -2.667   0.017  0.00  0.00    +0.153 A 
ATOM      9  C   LIG    1       -1.255  -2.023   0.003  0.00  0.00    +0.078 A 
BRANCH   4  11
ATOM     10  C   LIG    1       -0.017   1.425   0.010  0.00  0.00    +0.277 C 
ATOM     11  O   LIG    1        0.002  -0.004   0.002  0.00  0.00    -0.495 OA
ENDBRANCH   4  11
BRANCH   7  12
ATOM     12  O   LIG    1       -4.853  -2.562   0.036  0.00  0.00    -0.493 OA
ATOM     13  C   LIG    1       -6.021  -1.738   0.046  0.00  0.00    +0.277 C 
ENDBRANCH   7  12
ENDBRANCH   1   8
BRANCH   1  14
ATOM     14  N   LIG    1       -3.221  -4.893   1.454  0.00  0.00    -0.215 N 
ATOM     15  H   LIG    1       -3.495  -4.214   2.112  0.00  0.00    +0.174 HD
BRANCH  14  16
ATOM     16  C   LIG    1       -3.403  -6.250   1.734  0.00  0.00    +0.067 A 
ATOM     17  C   LIG    1       -3.972  -6.642   2.931  0.00  0.00    +0.036 A 
ATOM     18  C   LIG    1       -4.133  -8.019   3.166  0.00  0.00    +0.002 A 
ATOM     19  C   LIG    1       -4.703  -8.494   4.359  0.00  0.00    +0.010 A 
ATOM     20  C   LIG    1       -4.844  -9.834   4.551  0.00  0.00    +0.001 A 
ATOM     21  C   LIG    1       -4.428 -10.742   3.579  0.00  0.00    +0.002 A 
ATOM     22  C   LIG    1       -3.871 -10.318   2.413  0.00  0.00    +0.028 A 
ATOM     23  C   LIG    1       -3.709  -8.941   2.176  0.00  0.00    +0.071 A 
ATOM     24  N   LIG    1       -3.166  -8.499   1.038  0.00  0.00    -0.253 NA
ATOM     25  C   LIG    1       -3.014  -7.219   0.802  0.00  0.00    +0.135 A 
ENDBRANCH  14  16
ENDBRANCH   1  14
TORSDOF 5
