REMARK  Name = ZINC02519749
REMARK                            x       y       z     vdW  Elec       q    Type
REMARK                         _______ _______ _______ _____ _____    ______ ____
ROOT
ATOM      1  C   LIG    1        6.274  -0.759   0.148  0.00  0.00    +0.056 A 
ATOM      2  C   LIG    1        6.252  -2.157   0.103  0.00  0.00    +0.016 A 
ATOM      3  C   LIG    1        7.434  -2.863   0.159  0.00  0.00    +0.033 A 
ATOM      4  C   LIG    1        8.642  -2.192   0.259  0.00  0.00    +0.124 A 
ATOM      5  C   LIG    1        8.672  -0.809   0.304  0.00  0.00    +0.065 A 
ATOM      6  C   LIG    1        7.498  -0.088   0.245  0.00  0.00    +0.135 A 
ENDROOT
BRANCH   1   7
ATOM      7  C   LIG    1        5.014   0.005   0.088  0.00  0.00    +0.235 C 
ATOM      8  O   LIG    1        4.447   0.158  -0.974  0.00  0.00    -0.283 OA
BRANCH   7   9
ATOM      9  C   LIG    1        4.436   0.589   1.333  0.00  0.00    +0.233 C 
ATOM     10  O   LIG    1        5.106   1.330   2.023  0.00  0.00    -0.283 OA
BRANCH   9  14
ATOM     11  C   LIG    1        0.452  -0.341   2.463  0.00  0.00    +0.000 A 
ATOM     12  C   LIG    1        0.951  -0.803   1.257  0.00  0.00    +0.001 A 
ATOM     13  C   LIG    1        2.244  -0.504   0.883  0.00  0.00    +0.012 A 
ATOM     14  C   LIG    1        3.052   0.266   1.725  0.00  0.00    +0.026 A 
ATOM     15  C   LIG    1        2.540   0.729   2.942  0.00  0.00    +0.012 A 
ATOM     16  C   LIG    1        1.245   0.423   3.302  0.00  0.00    +0.001 A 
ENDBRANCH   9  14
ENDBRANCH   7   9
ENDBRANCH   1   7
BRANCH   4  17
ATOM     17  N   LIG    1        9.907  -2.958   0.318  0.00  0.00    +0.006 N 
ATOM     18  O   LIG    1        9.884  -4.176   0.278  0.00  0.00    -0.130 OA
BRANCH  17  19
ATOM     19  O   LIG    1       10.970  -2.372   0.406  0.00  0.00    -0.396 OA
ATOM     20  H   LIG    1       10.988  -1.435   0.437  0.00  0.00    +0.329 HD
ENDBRANCH  17  19
ENDBRANCH   4  17
BRANCH   6  21
ATOM     21  N   LIG    1        7.532   1.391   0.287  0.00  0.00    +0.007 N 
ATOM     22  O   LIG    1        8.584   1.970   0.492  0.00  0.00    -0.130 OA
BRANCH  21  23
ATOM     23  O   LIG    1        6.509   2.029   0.117  0.00  0.00    -0.396 OA
ATOM     24  H   LIG    1        5.700   1.584  -0.041  0.00  0.00    +0.329 HD
ENDBRANCH  21  23
ENDBRANCH   6  21
TORSDOF 7
