REMARK  Name = ZINC02557962
REMARK                            x       y       z     vdW  Elec       q    Type
REMARK                         _______ _______ _______ _____ _____    ______ ____
ROOT
ATOM      1  N   LIG    1        7.249  -2.683   2.801  0.00  0.00    +0.380 N 
ATOM      2  H   LIG    1        7.154  -3.526   2.254  0.00  0.00    -0.082 HD
ATOM      3  C   LIG    1        8.279  -1.827   2.201  0.00  0.00    -0.078 C 
ATOM      4  C   LIG    1        9.597  -2.598   2.107  0.00  0.00    -0.011 C 
ATOM      5  C   LIG    1       10.037  -3.020   3.511  0.00  0.00    +0.016 C 
ATOM      6  C   LIG    1        8.923  -3.851   4.156  0.00  0.00    -0.011 C 
ATOM      7  C   LIG    1        7.630  -3.034   4.174  0.00  0.00    -0.078 C 
ENDROOT
BRANCH   5   8
ATOM      8  C   LIG    1       11.293  -3.847   3.419  0.00  0.00    -0.044 A 
ATOM      9  C   LIG    1       11.294  -5.026   2.696  0.00  0.00    +0.004 A 
ATOM     10  C   LIG    1       12.446  -5.784   2.611  0.00  0.00    +0.000 A 
ATOM     11  C   LIG    1       13.599  -5.364   3.249  0.00  0.00    +0.000 A 
ATOM     12  C   LIG    1       13.599  -4.185   3.971  0.00  0.00    +0.000 A 
ATOM     13  C   LIG    1       12.447  -3.424   4.052  0.00  0.00    +0.004 A 
ENDBRANCH   5   8
BRANCH   1  14
ATOM     14  C   LIG    1        5.967  -1.966   2.818  0.00  0.00    -0.079 C 
BRANCH  14  15
ATOM     15  C   LIG    1        5.507  -1.710   1.381  0.00  0.00    -0.018 C 
BRANCH  15  16
ATOM     16  C   LIG    1        4.171  -0.963   1.399  0.00  0.00    +0.003 C 
BRANCH  16  17
ATOM     17  C   LIG    1        3.711  -0.707  -0.038  0.00  0.00    +0.035 C 
BRANCH  17  21
ATOM     18  C   LIG    1       -0.017   1.378   0.010  0.00  0.00    +0.000 A 
ATOM     19  C   LIG    1        1.171   2.086   0.002  0.00  0.00    +0.000 A 
ATOM     20  C   LIG    1        2.377   1.411  -0.013  0.00  0.00    +0.003 A 
ATOM     21  C   LIG    1        2.396   0.029  -0.020  0.00  0.00    -0.047 A 
ATOM     22  C   LIG    1        1.208  -0.679  -0.012  0.00  0.00    +0.003 A 
ATOM     23  C   LIG    1        0.002  -0.004   0.002  0.00  0.00    +0.000 A 
ENDBRANCH  17  21
ENDBRANCH  16  17
ENDBRANCH  15  16
ENDBRANCH  14  15
ENDBRANCH   1  14
TORSDOF 6
