REMARK  Name = ZINC03285122
REMARK                            x       y       z     vdW  Elec       q    Type
REMARK                         _______ _______ _______ _____ _____    ______ ____
ROOT
ATOM      1  N   LIG    1        1.651  -4.999  -0.034  0.00  0.00    -0.103 NA
ATOM      2  C   LIG    1        1.958  -6.273  -0.043  0.00  0.00    +0.192 A 
ATOM      3  N   LIG    1        3.199  -6.869  -0.047  0.00  0.00    -0.332 N 
ATOM      4  H   LIG    1        4.007  -6.332  -0.044  0.00  0.00    +0.168 HD
ATOM      5  C   LIG    1        3.268  -8.238  -0.057  0.00  0.00    +0.055 A 
ATOM      6  C   LIG    1        2.132  -8.963  -0.061  0.00  0.00    +0.075 A 
ATOM      7  S   LIG    1        0.876  -7.694  -0.044  0.00  0.00    -0.056 S 
ENDROOT
BRANCH   5   8
ATOM      8  C   LIG    1        4.583  -8.916  -0.062  0.00  0.00    -0.001 A 
ATOM      9  C   LIG    1        5.758  -8.163  -0.052  0.00  0.00    +0.013 A 
ATOM     10  C   LIG    1        6.982  -8.799  -0.057  0.00  0.00    +0.046 A 
ATOM     11  C   LIG    1        7.045 -10.186  -0.072  0.00  0.00    +0.120 A 
ATOM     12  C   LIG    1        5.878 -10.938  -0.082  0.00  0.00    +0.046 A 
ATOM     13  C   LIG    1        4.651 -10.310  -0.071  0.00  0.00    +0.013 A 
BRANCH  11  14
ATOM     14  O   LIG    1        8.253 -10.809  -0.078  0.00  0.00    -0.495 OA
ATOM     15  C   LIG    1        8.246 -12.238  -0.093  0.00  0.00    +0.277 C 
ENDBRANCH  11  14
ENDBRANCH   5   8
BRANCH   1  16
ATOM     16  S   LIG    1        0.063  -4.530  -0.023  0.00  0.00    +0.101 S 
ATOM     17  O   LIG    1       -0.490  -4.937  -1.267  0.00  0.00    -0.146 OA
ATOM     18  O   LIG    1       -0.476  -4.950   1.223  0.00  0.00    -0.146 OA
BRANCH  16  23
ATOM     19  C   LIG    1       -0.018   1.503   0.010  0.00  0.00    +0.044 C 
ATOM     20  C   LIG    1        0.002  -0.004   0.002  0.00  0.00    -0.050 A 
ATOM     21  C   LIG    1        0.006  -0.689  -1.199  0.00  0.00    +0.005 A 
ATOM     22  C   LIG    1        0.025  -2.071  -1.206  0.00  0.00    +0.029 A 
ATOM     23  C   LIG    1        0.040  -2.768  -0.013  0.00  0.00    +0.113 A 
ATOM     24  C   LIG    1        0.037  -2.084   1.188  0.00  0.00    +0.029 A 
ATOM     25  C   LIG    1        0.023  -0.702   1.195  0.00  0.00    +0.005 A 
ENDBRANCH  16  23
ENDBRANCH   1  16
TORSDOF 4
