REMARK  Name = ZINC02950199
REMARK                            x       y       z     vdW  Elec       q    Type
REMARK                         _______ _______ _______ _____ _____    ______ ____
ROOT
ATOM      1  C   LIG    1       -1.498  -1.847   0.006  0.00  0.00    +0.124 A 
ATOM      2  C   LIG    1       -0.378  -2.675  -0.014  0.00  0.00    +0.046 A 
ATOM      3  C   LIG    1       -0.521  -4.032  -0.014  0.00  0.00    +0.015 A 
ATOM      4  C   LIG    1       -1.803  -4.596  -0.005  0.00  0.00    +0.018 A 
ATOM      5  C   LIG    1       -1.987  -6.049  -0.011  0.00  0.00    +0.018 A 
ATOM      6  C   LIG    1       -3.256  -6.535  -0.002  0.00  0.00    +0.092 A 
ATOM      7  C   LIG    1       -4.348  -5.643   0.013  0.00  0.00    +0.337 A 
ATOM      8  O   LIG    1       -4.172  -4.312   0.019  0.00  0.00    -0.422 OA
ATOM      9  O   LIG    1       -5.480  -6.092   0.022  0.00  0.00    -0.245 OA
ATOM     10  C   LIG    1       -2.938  -3.764   0.010  0.00  0.00    +0.143 A 
ATOM     11  C   LIG    1       -2.773  -2.388   0.016  0.00  0.00    +0.092 A 
ENDROOT
BRANCH   1  12
ATOM     12  O   LIG    1       -1.339  -0.499   0.012  0.00  0.00    -0.492 OA
BRANCH  12  13
ATOM     13  C   LIG    1        0.002  -0.004   0.002  0.00  0.00    +0.229 C 
BRANCH  13  14
ATOM     14  C   LIG    1       -0.019   1.526   0.010  0.00  0.00    +0.041 C 
BRANCH  14  16
ATOM     15  C   LIG    1        1.396   3.585   0.008  0.00  0.00    +0.004 C 
ATOM     16  C   LIG    1        1.417   2.055  -0.000  0.00  0.00    -0.000 C 
ENDBRANCH  14  16
ENDBRANCH  13  14
ENDBRANCH  12  13
ENDBRANCH   1  12
TORSDOF 4
