REMARK  Name = ZINC02559943
REMARK                            x       y       z     vdW  Elec       q    Type
REMARK                         _______ _______ _______ _____ _____    ______ ____
ROOT
ATOM      1  N   LIG    1        1.067  -0.736   1.077  0.00  0.00    +0.383 N 
ATOM      2  H   LIG    1        1.945  -0.240   1.045  0.00  0.00    -0.081 HD
ATOM      3  C   LIG    1        1.307  -2.164   0.836  0.00  0.00    -0.078 C 
ATOM      4  C   LIG    1        2.303  -2.699   1.867  0.00  0.00    -0.015 C 
ATOM      5  C   LIG    1        1.728  -2.507   3.273  0.00  0.00    -0.010 C 
ATOM      6  C   LIG    1        1.413  -1.023   3.486  0.00  0.00    -0.015 C 
ATOM      7  C   LIG    1        0.449  -0.551   2.395  0.00  0.00    -0.078 C 
ENDROOT
BRANCH   1   9
ATOM      8  C   LIG    1       -0.148   1.257   0.337  0.00  0.00    -0.010 C 
ATOM      9  C   LIG    1        0.171  -0.210   0.039  0.00  0.00    -0.038 C 
BRANCH   9  10
ATOM     10  C   LIG    1        0.853  -0.316  -1.326  0.00  0.00    +0.131 C 
BRANCH  10  11
ATOM     11  C   LIG    1        2.152   0.447  -1.299  0.00  0.00    -0.020 A 
ATOM     12  C   LIG    1        2.159   1.807  -1.545  0.00  0.00    +0.009 A 
ATOM     13  C   LIG    1        3.349   2.509  -1.522  0.00  0.00    +0.046 A 
ATOM     14  C   LIG    1        4.537   1.847  -1.250  0.00  0.00    +0.117 A 
ATOM     15  C   LIG    1        4.528   0.482  -1.003  0.00  0.00    +0.046 A 
ATOM     16  C   LIG    1        3.335  -0.214  -1.022  0.00  0.00    +0.009 A 
BRANCH  14  17
ATOM     17  O   LIG    1        5.709   2.535  -1.226  0.00  0.00    -0.507 OA
ATOM     18  H   LIG    1        5.939   2.892  -0.357  0.00  0.00    +0.292 HD
ENDBRANCH  14  17
ENDBRANCH  10  11
BRANCH  10  19
ATOM     19  O   LIG    1       -0.002   0.234  -2.330  0.00  0.00    -0.389 OA
ATOM     20  H   LIG    1       -0.221   1.166  -2.193  0.00  0.00    +0.210 HD
ENDBRANCH  10  19
ENDBRANCH   9  10
ENDBRANCH   1   9
BRANCH   5  21
ATOM     21  C   LIG    1        2.753  -2.966   4.312  0.00  0.00    +0.038 C 
BRANCH  21  22
ATOM     22  C   LIG    1        2.141  -2.892   5.687  0.00  0.00    -0.047 A 
ATOM     23  C   LIG    1        2.247  -1.730   6.429  0.00  0.00    +0.003 A 
ATOM     24  C   LIG    1        1.686  -1.662   7.690  0.00  0.00    +0.000 A 
ATOM     25  C   LIG    1        1.019  -2.755   8.210  0.00  0.00    +0.000 A 
ATOM     26  C   LIG    1        0.913  -3.917   7.469  0.00  0.00    +0.000 A 
ATOM     27  C   LIG    1        1.470  -3.984   6.205  0.00  0.00    +0.003 A 
ENDBRANCH  21  22
ENDBRANCH   5  21
TORSDOF 7
