REMARK  Name = ZINC03066699
REMARK                            x       y       z     vdW  Elec       q    Type
REMARK                         _______ _______ _______ _____ _____    ______ ____
ROOT
ATOM      1  C   LIG    1       -0.017   1.393   0.010  0.00  0.00    +0.098 A 
ATOM      2  C   LIG    1        1.176   2.089   0.002  0.00  0.00    +0.076 A 
ATOM      3  C   LIG    1        2.397   1.359  -0.013  0.00  0.00    +0.103 A 
ATOM      4  C   LIG    1        2.350  -0.054  -0.021  0.00  0.00    +0.264 A 
ATOM      5  O   LIG    1        3.383  -0.699  -0.034  0.00  0.00    -0.267 OA
ATOM      6  N   LIG    1        1.160  -0.686  -0.013  0.00  0.00    -0.289 N 
ATOM      7  H   LIG    1        1.139  -1.655  -0.018  0.00  0.00    +0.172 HD
ATOM      8  C   LIG    1        3.440   2.292  -0.019  0.00  0.00    +0.125 A 
ATOM      9  N   LIG    1        2.896   3.539  -0.007  0.00  0.00    -0.270 N 
ATOM     10  N   LIG    1        1.500   3.427   0.006  0.00  0.00    -0.295 N 
ATOM     11  H   LIG    1        0.870   4.164   0.016  0.00  0.00    +0.187 HD
ATOM     12  C   LIG    1        0.002  -0.004   0.002  0.00  0.00    +0.253 A 
ATOM     13  O   LIG    1       -1.053  -0.617   0.009  0.00  0.00    -0.268 OA
ENDROOT
BRANCH   8  14
ATOM     14  N   LIG    1        4.770   2.001  -0.033  0.00  0.00    -0.343 N 
ATOM     15  H   LIG    1        5.423   2.718  -0.035  0.00  0.00    +0.144 HD
ATOM     16  H   LIG    1        5.064   1.077  -0.040  0.00  0.00    +0.144 HD
ENDBRANCH   8  14
BRANCH   9  17
ATOM     17  C   LIG    1        3.648   4.796  -0.007  0.00  0.00    +0.171 C 
BRANCH  17  18
ATOM     18  C   LIG    1        3.897   5.241  -1.450  0.00  0.00    +0.179 C 
BRANCH  18  19
ATOM     19  O   LIG    1        2.650   5.548  -2.076  0.00  0.00    -0.393 OA
ATOM     20  H   LIG    1        2.731   5.838  -2.995  0.00  0.00    +0.209 HD
ENDBRANCH  18  19
ENDBRANCH  17  18
ENDBRANCH   9  17
TORSDOF 4
