REMARK  Name = ZINC03056377
REMARK                            x       y       z     vdW  Elec       q    Type
REMARK                         _______ _______ _______ _____ _____    ______ ____
ROOT
ATOM      1  C   LIG    1       -3.028   3.690   0.538  0.00  0.00    +0.001 A 
ATOM      2  C   LIG    1       -3.402   2.355   0.514  0.00  0.00    +0.002 A 
ATOM      3  C   LIG    1       -2.459   1.364   0.348  0.00  0.00    +0.026 A 
ATOM      4  C   LIG    1       -1.117   1.700   0.199  0.00  0.00    +0.047 A 
ATOM      5  C   LIG    1       -0.740   3.052   0.228  0.00  0.00    +0.007 A 
ATOM      6  C   LIG    1        0.726   3.068   0.051  0.00  0.00    +0.001 A 
ATOM      7  C   LIG    1        1.115   1.748  -0.064  0.00  0.00    +0.091 A 
ATOM      8  N   LIG    1        0.027   0.948   0.026  0.00  0.00    -0.360 N 
ATOM      9  H   LIG    1        0.048  -0.021  -0.027  0.00  0.00    +0.165 HD
ATOM     10  C   LIG    1       -1.703   4.043   0.396  0.00  0.00    +0.010 A 
ENDROOT
BRANCH   6  11
ATOM     11  C   LIG    1        1.563   4.206   0.009  0.00  0.00    +0.031 C 
ATOM     12  C   LIG    1        2.842   4.106  -0.509  0.00  0.00    +0.080 C 
BRANCH  12  13
ATOM     13  C   LIG    1        3.764   5.242  -0.412  0.00  0.00    +0.087 C 
ATOM     14  S   LIG    1        3.258   6.693   0.343  0.00  0.00    -0.034 S 
BRANCH  13  15
ATOM     15  N   LIG    1        5.010   5.144  -0.916  0.00  0.00    -0.351 N 
ATOM     16  H   LIG    1        5.620   5.896  -0.852  0.00  0.00    +0.143 HD
ATOM     17  H   LIG    1        5.297   4.322  -1.343  0.00  0.00    +0.143 HD
ENDBRANCH  13  15
ENDBRANCH  12  13
BRANCH  12  18
ATOM     18  C   LIG    1        3.266   2.892  -1.139  0.00  0.00    +0.102 C 
ATOM     19  N   LIG    1        3.602   1.929  -1.640  0.00  0.00    -0.191 NA
ENDBRANCH  12  18
ENDBRANCH   6  11
TORSDOF 4
