REMARK  Name = ZINC02668691
REMARK                            x       y       z     vdW  Elec       q    Type
REMARK                         _______ _______ _______ _____ _____    ______ ____
ROOT
ATOM      1  C   LIG    1        1.177   3.166   0.007  0.00  0.00    +0.001 A 
ATOM      2  C   LIG    1        1.176   1.781   0.000  0.00  0.00    +0.002 A 
ATOM      3  C   LIG    1       -0.013   1.076   0.008  0.00  0.00    +0.024 A 
ATOM      4  C   LIG    1       -1.226   1.752   0.017  0.00  0.00    +0.048 A 
ATOM      5  C   LIG    1       -1.223   3.156   0.030  0.00  0.00    +0.048 A 
ATOM      6  C   LIG    1       -2.635   3.580   0.046  0.00  0.00    +0.250 C 
ATOM      7  C   LIG    1       -3.420   2.302   0.030  0.00  0.00    +0.291 C 
ATOM      8  O   LIG    1       -4.629   2.203   0.035  0.00  0.00    -0.266 OA
ATOM      9  O   LIG    1       -3.067   4.715   0.056  0.00  0.00    -0.282 OA
ATOM     10  N   LIG    1       -2.539   1.287   0.021  0.00  0.00    -0.263 N 
ATOM     11  C   LIG    1       -0.017   3.858   0.022  0.00  0.00    +0.014 A 
ENDROOT
BRANCH  10  12
ATOM     12  C   LIG    1       -2.913  -0.130   0.014  0.00  0.00    +0.125 C 
BRANCH  12  13
ATOM     13  C   LIG    1       -3.036  -0.631   1.454  0.00  0.00    +0.099 C 
ATOM     14 BR   LIG    1       -3.538  -2.532   1.446  0.00  0.00    -0.090 Br
ENDBRANCH  12  13
ENDBRANCH  10  12
TORSDOF 2
