REMARK  Name = ZINC02529931
REMARK                            x       y       z     vdW  Elec       q    Type
REMARK                         _______ _______ _______ _____ _____    ______ ____
ROOT
ATOM      1  C   LIG    1        3.699  -0.689  -0.037  0.00  0.00    -0.018 A 
ATOM      2  C   LIG    1        4.896   0.024  -0.040  0.00  0.00    +0.009 A 
ATOM      3  C   LIG    1        6.099  -0.652  -0.055  0.00  0.00    +0.013 A 
ATOM      4  C   LIG    1        6.118  -2.035  -0.068  0.00  0.00    +0.055 A 
ATOM      5  C   LIG    1        4.932  -2.748  -0.066  0.00  0.00    +0.013 A 
ATOM      6  C   LIG    1        3.724  -2.082  -0.045  0.00  0.00    +0.009 A 
ENDROOT
BRANCH   1  10
ATOM      7  C   LIG    1       -0.017   1.379   0.010  0.00  0.00    +0.000 A 
ATOM      8  C   LIG    1        1.169   2.092   0.002  0.00  0.00    +0.001 A 
ATOM      9  C   LIG    1        2.377   1.426  -0.013  0.00  0.00    +0.008 A 
ATOM     10  C   LIG    1        2.402   0.033  -0.021  0.00  0.00    -0.018 A 
ATOM     11  C   LIG    1        1.205  -0.680  -0.013  0.00  0.00    +0.008 A 
ATOM     12  C   LIG    1        0.002  -0.004   0.002  0.00  0.00    +0.001 A 
ENDBRANCH   1  10
BRANCH   4  13
ATOM     13  C   LIG    1        7.434  -2.768  -0.085  0.00  0.00    +0.417 C 
ATOM     14  F   LIG    1        8.392  -1.990  -0.744  0.00  0.00    -0.166 F 
ATOM     15  F   LIG    1        7.281  -3.987  -0.755  0.00  0.00    -0.166 F 
ATOM     16  F   LIG    1        7.852  -3.007   1.229  0.00  0.00    -0.166 F 
ENDBRANCH   4  13
TORSDOF 2
