REMARK  Name = ZINC02591233
REMARK                            x       y       z     vdW  Elec       q    Type
REMARK                         _______ _______ _______ _____ _____    ______ ____
ROOT
ATOM      1  C   LIG    1       -1.282   1.552   3.622  0.00  0.00    +0.085 A 
ATOM      2  C   LIG    1       -0.558   0.999   2.575  0.00  0.00    +0.068 A 
ATOM      3  C   LIG    1       -0.732   1.580   1.257  0.00  0.00    -0.023 A 
ATOM      4  C   LIG    1       -1.601   2.615   1.194  0.00  0.00    -0.004 A 
ATOM      5  C   LIG    1       -1.979   3.405  -0.021  0.00  0.00    +0.043 C 
ATOM      6  C   LIG    1       -0.956   3.111  -1.127  0.00  0.00    +0.005 C 
ATOM      7  C   LIG    1       -0.758   1.595  -1.227  0.00  0.00    +0.005 C 
ATOM      8  C   LIG    1       -0.013   1.086   0.008  0.00  0.00    +0.037 C 
ATOM      9  S   LIG    1       -2.178   2.821   2.855  0.00  0.00    -0.077 S 
ENDROOT
BRANCH   2  10
ATOM     10  C   LIG    1        0.351  -0.131   2.793  0.00  0.00    +0.244 C 
ATOM     11  N   LIG    1        1.643   0.095   3.104  0.00  0.00    -0.325 N 
ATOM     12  H   LIG    1        2.244  -0.653   3.248  0.00  0.00    +0.145 HD
ATOM     13  H   LIG    1        1.971   1.004   3.184  0.00  0.00    +0.145 HD
ATOM     14  O   LIG    1       -0.061  -1.272   2.693  0.00  0.00    -0.270 OA
ENDBRANCH   2  10
BRANCH   1  16
ATOM     15  C   LIG    1       -2.063   1.842   5.838  0.00  0.00    +0.249 C 
ATOM     16  N   LIG    1       -1.288   1.180   4.957  0.00  0.00    -0.275 N 
ATOM     17  H   LIG    1       -0.733   0.444   5.257  0.00  0.00    +0.156 HD
ATOM     18  O   LIG    1       -2.759   2.766   5.461  0.00  0.00    -0.270 OA
BRANCH  15  25
ATOM     19  C   LIG    1       -1.276   0.382   7.695  0.00  0.00    +0.014 A 
ATOM     20  C   LIG    1       -1.281   0.020   9.026  0.00  0.00    +0.021 A 
ATOM     21  C   LIG    1       -2.079   0.702   9.929  0.00  0.00    +0.041 A 
ATOM     22 CL   LIG    1       -2.086   0.236  11.601  0.00  0.00    -0.084 Cl
ATOM     23  C   LIG    1       -2.873   1.755   9.503  0.00  0.00    +0.021 A 
ATOM     24  C   LIG    1       -2.872   2.129   8.176  0.00  0.00    +0.014 A 
ATOM     25  C   LIG    1       -2.069   1.446   7.261  0.00  0.00    +0.037 A 
ENDBRANCH  15  25
ENDBRANCH   1  16
TORSDOF 3
