REMARK  Name = ZINC02568036
REMARK                            x       y       z     vdW  Elec       q    Type
REMARK                         _______ _______ _______ _____ _____    ______ ____
ROOT
ATOM      1  C   LIG    1       -1.213  -0.734   0.007  0.00  0.00    +0.136 A 
ATOM      2  C   LIG    1       -1.317  -2.147   0.003  0.00  0.00    +0.050 A 
ATOM      3  C   LIG    1       -2.638  -2.459   0.013  0.00  0.00    +0.051 A 
ATOM      4  C   LIG    1       -3.365  -1.181   0.024  0.00  0.00    +0.148 A 
ATOM      5  O   LIG    1       -2.443  -0.194   0.024  0.00  0.00    -0.454 OA
ENDROOT
BRANCH   1  11
ATOM      6  C   LIG    1       -0.017   1.405   0.010  0.00  0.00    +0.014 A 
ATOM      7  C   LIG    1        1.164   2.101   0.003  0.00  0.00    +0.033 A 
ATOM      8  C   LIG    1        2.374   1.424  -0.014  0.00  0.00    +0.122 A 
ATOM      9  C   LIG    1        2.405   0.037  -0.024  0.00  0.00    +0.033 A 
ATOM     10  C   LIG    1        1.237  -0.680  -0.018  0.00  0.00    +0.014 A 
ATOM     11  C   LIG    1        0.002  -0.003  -0.000  0.00  0.00    +0.017 A 
BRANCH   8  12
ATOM     12  N   LIG    1        3.643   2.187  -0.021  0.00  0.00    +0.006 N 
ATOM     13  O   LIG    1        3.619   3.504  -0.012  0.00  0.00    -0.130 OA
BRANCH  12  14
ATOM     14  O   LIG    1        4.795   1.549  -0.037  0.00  0.00    -0.396 OA
ATOM     15  H   LIG    1        4.812   0.612  -0.044  0.00  0.00    +0.329 HD
ENDBRANCH  12  14
ENDBRANCH   8  12
ENDBRANCH   1  11
BRANCH   4  16
ATOM     16  C   LIG    1       -4.743  -1.019   0.035  0.00  0.00    +0.176 C 
ATOM     17  N   LIG    1       -5.269   0.202   0.043  0.00  0.00    -0.180 NA
BRANCH  17  18
ATOM     18  N   LIG    1       -6.546   0.354  -0.044  0.00  0.00    -0.166 N 
ATOM     19  C   LIG    1       -7.571  -0.707  -0.048  0.00  0.00    +0.229 C 
ATOM     20  C   LIG    1       -8.870   0.063  -0.170  0.00  0.00    +0.200 C 
ATOM     21  N   LIG    1       -8.542   1.327  -0.221  0.00  0.00    -0.129 NA
ATOM     22  C   LIG    1       -7.221   1.516  -0.145  0.00  0.00    +0.348 C 
ATOM     23  O   LIG    1       -6.689   2.610  -0.168  0.00  0.00    -0.249 OA
BRANCH  20  24
ATOM     24  O   LIG    1      -10.110  -0.450  -0.217  0.00  0.00    -0.496 OA
ATOM     25  H   LIG    1      -10.235  -1.378  -0.173  0.00  0.00    +0.293 HD
ENDBRANCH  20  24
ENDBRANCH  17  18
ENDBRANCH   4  16
TORSDOF 6
