REMARK  Name = ZINC02630802
REMARK                            x       y       z     vdW  Elec       q    Type
REMARK                         _______ _______ _______ _____ _____    ______ ____
ROOT
ATOM      1  C   LIG    1        0.068  -4.231   0.006  0.00  0.00    +0.072 A 
ATOM      2  C   LIG    1        0.068  -4.927   1.224  0.00  0.00    +0.042 A 
ATOM      3  C   LIG    1        0.095  -6.314   1.217  0.00  0.00    +0.048 A 
ATOM      4  C   LIG    1        0.123  -6.978  -0.086  0.00  0.00    +0.013 A 
ATOM      5  C   LIG    1        0.151  -8.373  -0.196  0.00  0.00    +0.011 A 
ATOM      6  C   LIG    1        0.176  -8.951  -1.431  0.00  0.00    +0.001 A 
ATOM      7  C   LIG    1        0.175  -8.170  -2.584  0.00  0.00    +0.002 A 
ATOM      8  C   LIG    1        0.148  -6.811  -2.514  0.00  0.00    +0.028 A 
ATOM      9  C   LIG    1        0.121  -6.179  -1.257  0.00  0.00    +0.072 A 
ATOM     10  N   LIG    1        0.089  -4.849  -1.156  0.00  0.00    -0.247 NA
ENDROOT
BRANCH   3  11
ATOM     11  C   LIG    1        0.096  -7.090   2.476  0.00  0.00    +0.247 C 
ATOM     12  N   LIG    1       -0.862  -6.877   3.400  0.00  0.00    -0.295 N 
ATOM     13  C   LIG    1       -1.987  -5.975   3.116  0.00  0.00    +0.127 C 
ATOM     14  C   LIG    1       -3.297  -6.741   3.339  0.00  0.00    +0.127 C 
ATOM     15  N   LIG    1       -3.236  -7.407   4.647  0.00  0.00    -0.297 N 
ATOM     16  C   LIG    1       -2.111  -8.309   4.931  0.00  0.00    +0.127 C 
ATOM     17  C   LIG    1       -0.804  -7.548   4.706  0.00  0.00    +0.127 C 
ATOM     18  O   LIG    1        0.961  -7.920   2.678  0.00  0.00    -0.270 OA
BRANCH  15  19
ATOM     19  C   LIG    1       -4.220  -7.188   5.596  0.00  0.00    +0.218 A 
ATOM     20  N   LIG    1       -5.224  -6.373   5.310  0.00  0.00    -0.223 NA
ATOM     21  C   LIG    1       -6.181  -6.143   6.194  0.00  0.00    +0.116 A 
ATOM     22  C   LIG    1       -6.123  -6.766   7.431  0.00  0.00    +0.039 A 
ATOM     23  C   LIG    1       -5.058  -7.612   7.697  0.00  0.00    +0.116 A 
ATOM     24  N   LIG    1       -4.137  -7.803   6.767  0.00  0.00    -0.223 NA
ENDBRANCH  15  19
ENDBRANCH   3  11
BRANCH   1  29
ATOM     25  C   LIG    1       -0.050   1.525   0.092  0.00  0.00    +0.044 C 
ATOM     26  C   LIG    1       -0.018   0.019   0.069  0.00  0.00    -0.050 A 
ATOM     27  C   LIG    1        0.004  -0.652  -1.140  0.00  0.00    +0.004 A 
ATOM     28  C   LIG    1        0.033  -2.031  -1.167  0.00  0.00    +0.010 A 
ATOM     29  C   LIG    1        0.038  -2.749   0.028  0.00  0.00    +0.000 A 
ATOM     30  C   LIG    1        0.016  -2.068   1.244  0.00  0.00    +0.010 A 
ATOM     31  C   LIG    1       -0.007  -0.688   1.258  0.00  0.00    +0.004 A 
ENDBRANCH   1  29
TORSDOF 3
