REMARK  Name = ZINC02900976
REMARK                            x       y       z     vdW  Elec       q    Type
REMARK                         _______ _______ _______ _____ _____    ______ ____
ROOT
ATOM      1  N   LIG    1       -0.924   5.029   0.036  0.00  0.00    -0.294 N 
ATOM      2  H   LIG    1       -0.286   5.757  -0.013  0.00  0.00    +0.154 HD
ENDROOT
BRANCH   1   7
ATOM      3  C   LIG    1       -4.163   6.735   0.364  0.00  0.00    +0.002 A 
ATOM      4  C   LIG    1       -5.005   5.816  -0.237  0.00  0.00    +0.012 A 
ATOM      5  C   LIG    1       -4.494   4.637  -0.747  0.00  0.00    +0.057 A 
ATOM      6  C   LIG    1       -3.141   4.375  -0.663  0.00  0.00    +0.035 A 
ATOM      7  C   LIG    1       -2.294   5.293  -0.055  0.00  0.00    +0.033 A 
ATOM      8  C   LIG    1       -2.810   6.477   0.456  0.00  0.00    +0.023 A 
BRANCH   5   9
ATOM      9  C   LIG    1       -5.415   3.639  -1.402  0.00  0.00    +0.417 C 
ATOM     10  F   LIG    1       -5.353   2.425  -0.711  0.00  0.00    -0.166 F 
ATOM     11  F   LIG    1       -5.020   3.441  -2.729  0.00  0.00    -0.166 F 
ATOM     12  F   LIG    1       -6.726   4.126  -1.373  0.00  0.00    -0.166 F 
ENDBRANCH   5   9
ENDBRANCH   1   7
BRANCH   1  13
ATOM     13  C   LIG    1       -0.479   3.726   0.197  0.00  0.00    +0.163 A 
ATOM     14  N   LIG    1        0.756   3.260   0.195  0.00  0.00    -0.225 NA
ATOM     15  C   LIG    1        1.003   1.963   0.365  0.00  0.00    +0.080 A 
ATOM     16  C   LIG    1       -0.043   1.102   0.545  0.00  0.00    +0.076 A 
ATOM     17  S   LIG    1       -1.425   2.232   0.453  0.00  0.00    -0.060 S 
BRANCH  15  18
ATOM     18  C   LIG    1        2.397   1.458   0.360  0.00  0.00    +0.001 A 
ATOM     19  C   LIG    1        2.650   0.099   0.544  0.00  0.00    +0.011 A 
ATOM     20  C   LIG    1        3.949  -0.366   0.534  0.00  0.00    +0.020 A 
ATOM     21  C   LIG    1        5.001   0.515   0.351  0.00  0.00    +0.041 A 
ATOM     22 CL   LIG    1        6.633  -0.076   0.347  0.00  0.00    -0.084 Cl
ATOM     23  C   LIG    1        4.755   1.866   0.173  0.00  0.00    +0.020 A 
ATOM     24  C   LIG    1        3.460   2.341   0.176  0.00  0.00    +0.011 A 
ENDBRANCH  15  18
ENDBRANCH   1  13
TORSDOF 4
