REMARK  Name = ZINC02399103
REMARK                            x       y       z     vdW  Elec       q    Type
REMARK                         _______ _______ _______ _____ _____    ______ ____
ROOT
ATOM      1  C   LIG    1        1.478   7.602   3.679  0.00  0.00    +0.103 C 
ATOM      2  C   LIG    1        0.892   6.911   2.589  0.00  0.00    +0.018 C 
ATOM      3  C   LIG    1       -0.379   7.218   2.096  0.00  0.00    +0.006 C 
ATOM      4  C   LIG    1       -0.876   6.513   1.039  0.00  0.00    +0.000 C 
ATOM      5  C   LIG    1       -0.141   5.485   0.453  0.00  0.00    +0.000 C 
ATOM      6  C   LIG    1        1.102   5.161   0.911  0.00  0.00    +0.007 C 
ATOM      7  C   LIG    1        1.643   5.869   1.989  0.00  0.00    +0.027 C 
ATOM      8  C   LIG    1        2.924   5.591   2.520  0.00  0.00    +0.142 C 
ATOM      9  N   LIG    1        3.363   6.307   3.541  0.00  0.00    -0.239 NA
ATOM     10  H   LIG    1        4.357   6.106   3.967  0.00  0.00    +0.142 HD
ATOM     11  N   LIG    1        2.686   7.249   4.084  0.00  0.00    -0.248 NA
ATOM     12  H   LIG    1        2.587   6.993   5.066  0.00  0.00    +0.141 HD
ENDROOT
BRANCH   8  13
ATOM     13  N   LIG    1        3.707   4.586   1.979  0.00  0.00    -0.283 NA
ATOM     14  C   LIG    1        3.837   3.459   2.913  0.00  0.00    +0.105 C 
ATOM     15  C   LIG    1        4.553   2.299   2.212  0.00  0.00    +0.123 C 
ATOM     16  N   LIG    1        5.821   2.798   1.659  0.00  0.00    -0.295 N 
ATOM     17  C   LIG    1        6.983   2.164   1.912  0.00  0.00    +0.247 C 
ATOM     18  O   LIG    1        8.033   2.647   1.536  0.00  0.00    -0.270 OA
ATOM     19  C   LIG    1        5.787   4.008   0.823  0.00  0.00    +0.123 C 
ATOM     20  C   LIG    1        5.023   5.101   1.578  0.00  0.00    +0.105 C 
BRANCH  17  21
ATOM     21  C   LIG    1        6.980   0.880   2.646  0.00  0.00    +0.037 A 
ATOM     22  C   LIG    1        5.925  -0.018   2.482  0.00  0.00    +0.013 A 
ATOM     23  C   LIG    1        5.931  -1.217   3.166  0.00  0.00    +0.001 A 
ATOM     24  C   LIG    1        6.974  -1.523   4.021  0.00  0.00    +0.000 A 
ATOM     25  C   LIG    1        8.020  -0.634   4.193  0.00  0.00    +0.001 A 
ATOM     26  C   LIG    1        8.029   0.565   3.510  0.00  0.00    +0.013 A 
ENDBRANCH  17  21
ENDBRANCH   8  13
BRANCH   1  30
ATOM     27  C   LIG    1       -0.610  10.758   5.611  0.00  0.00    +0.000 A 
ATOM     28  C   LIG    1       -1.274   9.587   5.293  0.00  0.00    +0.000 A 
ATOM     29  C   LIG    1       -0.601   8.559   4.665  0.00  0.00    +0.005 A 
ATOM     30  C   LIG    1        0.750   8.702   4.352  0.00  0.00    -0.029 A 
ATOM     31  C   LIG    1        1.415   9.884   4.679  0.00  0.00    +0.005 A 
ATOM     32  C   LIG    1        0.730  10.907   5.303  0.00  0.00    +0.000 A 
ENDBRANCH   1  30
TORSDOF 3
