REMARK  Name = ZINC02861537
REMARK                            x       y       z     vdW  Elec       q    Type
REMARK                         _______ _______ _______ _____ _____    ______ ____
ROOT
ATOM      1  C   LIG    1        4.670   1.431   2.399  0.00  0.00    +0.141 C 
ENDROOT
BRANCH   1   2
ATOM      2  C   LIG    1        5.370   1.915   3.642  0.00  0.00    -0.032 A 
ATOM      3  C   LIG    1        6.742   2.101   3.631  0.00  0.00    +0.006 A 
ATOM      4  C   LIG    1        7.389   2.544   4.766  0.00  0.00    +0.013 A 
ATOM      5  C   LIG    1        6.659   2.804   5.926  0.00  0.00    +0.037 A 
ATOM      6  C   LIG    1        5.276   2.615   5.930  0.00  0.00    +0.013 A 
ATOM      7  C   LIG    1        4.639   2.177   4.787  0.00  0.00    +0.006 A 
BRANCH   5   8
ATOM      8  C   LIG    1        7.346   3.279   7.146  0.00  0.00    +0.247 C 
ATOM      9  N   LIG    1        6.626   3.682   8.212  0.00  0.00    -0.298 N 
ATOM     10  C   LIG    1        5.164   3.596   8.341  0.00  0.00    +0.108 C 
ATOM     11  C   LIG    1        4.789   4.198   9.711  0.00  0.00    +0.020 C 
ATOM     12  C   LIG    1        6.005   5.104  10.038  0.00  0.00    +0.020 C 
ATOM     13  C   LIG    1        7.175   4.277   9.444  0.00  0.00    +0.108 C 
ATOM     14  O   LIG    1        8.561   3.305   7.188  0.00  0.00    -0.270 OA
ENDBRANCH   5   8
ENDBRANCH   1   2
BRANCH   1  15
ATOM     15  N   LIG    1        4.268   2.581   1.586  0.00  0.00    -0.186 NA
ATOM     16  H   LIG    1        4.266   3.471   1.972  0.00  0.00    +0.148 HD
BRANCH  15  17
ATOM     17  S   LIG    1        3.817   2.362   0.007  0.00  0.00    +0.059 S 
ATOM     18  O   LIG    1        3.463   3.644  -0.495  0.00  0.00    -0.153 OA
ATOM     19  O   LIG    1        4.822   1.559  -0.595  0.00  0.00    -0.153 OA
BRANCH  17  22
ATOM     20  C   LIG    1       -0.050   1.270   0.073  0.00  0.00    +0.003 A 
ATOM     21  C   LIG    1        1.109   2.025   0.067  0.00  0.00    +0.028 A 
ATOM     22  C   LIG    1        2.341   1.400   0.016  0.00  0.00    +0.107 A 
ATOM     23  C   LIG    1        2.415   0.020  -0.029  0.00  0.00    +0.048 A 
ATOM     24  C   LIG    1        1.257  -0.735  -0.022  0.00  0.00    +0.043 A 
ATOM     25 CL   LIG    1        1.349  -2.468  -0.079  0.00  0.00    -0.083 Cl
ATOM     26  C   LIG    1        0.024  -0.109   0.029  0.00  0.00    +0.020 A 
ENDBRANCH  17  22
ENDBRANCH  15  17
ENDBRANCH   1  15
TORSDOF 5
