REMARK  Name = ZINC03609145
REMARK                            x       y       z     vdW  Elec       q    Type
REMARK                         _______ _______ _______ _____ _____    ______ ____
ROOT
ATOM      1  C   LIG    1       -0.938   2.612   0.020  0.00  0.00    +0.256 C 
ATOM      2  C   LIG    1       -0.078   3.850   0.024  0.00  0.00    +0.045 A 
ATOM      3  C   LIG    1       -0.373   5.196   0.034  0.00  0.00    +0.011 A 
ATOM      4  C   LIG    1        0.651   6.127   0.029  0.00  0.00    +0.001 A 
ATOM      5  C   LIG    1        1.971   5.711   0.014  0.00  0.00    +0.001 A 
ATOM      6  C   LIG    1        2.275   4.365   0.004  0.00  0.00    +0.016 A 
ATOM      7  C   LIG    1        1.246   3.423   0.009  0.00  0.00    +0.071 A 
ATOM      8  C   LIG    1        1.272   1.934   0.000  0.00  0.00    +0.276 C 
ATOM      9  N   LIG    1        2.168   0.977  -0.013  0.00  0.00    -0.271 N 
ATOM     10  H   LIG    1        3.184   1.123  -0.022  0.00  0.00    +0.304 HD
ATOM     11  C   LIG    1        1.506  -0.336  -0.014  0.00  0.00    +0.277 C 
ATOM     12  C   LIG    1        0.002  -0.004   0.002  0.00  0.00    +0.274 C 
ATOM     13  N   LIG    1       -0.018   1.468   0.010  0.00  0.00    -0.183 N 
ENDROOT
BRANCH   1  17
ATOM     14  C   LIG    1       -3.398   2.544  -3.474  0.00  0.00    +0.120 A 
ATOM     15  C   LIG    1       -3.840   3.185  -2.325  0.00  0.00    +0.046 A 
ATOM     16  C   LIG    1       -3.042   3.206  -1.197  0.00  0.00    +0.014 A 
ATOM     17  C   LIG    1       -1.806   2.588  -1.212  0.00  0.00    +0.031 A 
ATOM     18  C   LIG    1       -1.361   1.954  -2.357  0.00  0.00    +0.014 A 
ATOM     19  C   LIG    1       -2.157   1.926  -3.486  0.00  0.00    +0.046 A 
BRANCH  14  21
ATOM     20  C   LIG    1       -3.662   1.845  -5.731  0.00  0.00    +0.277 C 
ATOM     21  O   LIG    1       -4.181   2.523  -4.585  0.00  0.00    -0.495 OA
ENDBRANCH  14  21
ENDBRANCH   1  17
BRANCH   1  22
ATOM     22  O   LIG    1       -1.752   2.577   1.194  0.00  0.00    -0.346 OA
ATOM     23  H   LIG    1       -2.381   3.308   1.258  0.00  0.00    +0.215 HD
ENDBRANCH   1  22
TORSDOF 3
