REMARK  Name = ZINC02512916
REMARK                            x       y       z     vdW  Elec       q    Type
REMARK                         _______ _______ _______ _____ _____    ______ ____
ROOT
ATOM      1  C   LIG    1       -1.532   3.608   2.488  0.00  0.00    +0.038 C 
ENDROOT
BRANCH   1   2
ATOM      2  C   LIG    1       -0.764   3.110   1.262  0.00  0.00    -0.010 C 
ATOM      3  C   LIG    1       -0.729   1.579   1.267  0.00  0.00    -0.015 C 
ATOM      4  C   LIG    1       -0.013   1.086   0.008  0.00  0.00    -0.082 C 
ATOM      5  N   LIG    1       -0.728   1.565  -1.190  0.00  0.00    +0.379 N 
ATOM      6  H   LIG    1       -0.261   1.202  -2.030  0.00  0.00    -0.086 HD
ATOM      7  H   LIG    1       -1.697   1.226  -1.164  0.00  0.00    -0.086 HD
ATOM      8  C   LIG    1       -0.729   3.040  -1.234  0.00  0.00    -0.082 C 
ATOM      9  C   LIG    1       -1.466   3.591  -0.011  0.00  0.00    -0.015 C 
ENDBRANCH   1   2
BRANCH   1  16
ATOM     10  C   LIG    1       -1.025   2.033   4.366  0.00  0.00    +0.006 A 
ATOM     11  C   LIG    1       -0.328   1.691   5.509  0.00  0.00    +0.038 A 
ATOM     12  C   LIG    1        0.613   2.562   6.032  0.00  0.00    +0.123 A 
ATOM     13  F   LIG    1        1.290   2.232   7.154  0.00  0.00    -0.205 F 
ATOM     14  C   LIG    1        0.858   3.772   5.406  0.00  0.00    +0.038 A 
ATOM     15  C   LIG    1        0.164   4.109   4.260  0.00  0.00    +0.006 A 
ATOM     16  C   LIG    1       -0.775   3.239   3.738  0.00  0.00    -0.047 A 
ENDBRANCH   1  16
TORSDOF 2
