REMARK  Name = ZINC02852414
REMARK                            x       y       z     vdW  Elec       q    Type
REMARK                         _______ _______ _______ _____ _____    ______ ____
ROOT
ATOM      1  S   LIG    1        2.826  -1.950  -4.962  0.00  0.00    +0.061 S 
ATOM      2  O   LIG    1        2.148  -3.127  -5.380  0.00  0.00    -0.153 OA
ATOM      3  O   LIG    1        4.217  -1.937  -4.669  0.00  0.00    -0.153 OA
ENDROOT
BRANCH   1   7
ATOM      4  C   LIG    1        0.707  -0.490  -1.238  0.00  0.00    -0.042 A 
ATOM      5  C   LIG    1        0.036  -1.284  -2.148  0.00  0.00    +0.006 A 
ATOM      6  C   LIG    1        0.683  -1.730  -3.286  0.00  0.00    +0.029 A 
ATOM      7  C   LIG    1        2.001  -1.381  -3.513  0.00  0.00    +0.105 A 
ATOM      8  C   LIG    1        2.672  -0.586  -2.603  0.00  0.00    +0.029 A 
ATOM      9  C   LIG    1        2.024  -0.137  -1.467  0.00  0.00    +0.006 A 
BRANCH   4  11
ATOM     10  C   LIG    1       -0.019   1.526   0.010  0.00  0.00    +0.015 C 
ATOM     11  C   LIG    1        0.002  -0.004   0.002  0.00  0.00    -0.013 C 
ATOM     12  C   LIG    1       -1.433  -0.534   0.013  0.00  0.00    +0.015 C 
ATOM     13  C   LIG    1        0.742  -0.511   1.242  0.00  0.00    +0.015 C 
ENDBRANCH   4  11
ENDBRANCH   1   7
BRANCH   1  14
ATOM     14  N   LIG    1        2.580  -0.816  -6.143  0.00  0.00    -0.174 NA
ATOM     15  C   LIG    1        1.414  -0.905  -7.034  0.00  0.00    +0.128 C 
ATOM     16  C   LIG    1        0.635   0.413  -6.954  0.00  0.00    +0.122 C 
ATOM     17  N   LIG    1        1.578   1.527  -7.130  0.00  0.00    -0.326 N 
ATOM     18  C   LIG    1        2.743   1.616  -6.240  0.00  0.00    +0.122 C 
ATOM     19  C   LIG    1        3.519   0.300  -6.316  0.00  0.00    +0.128 C 
BRANCH  17  20
ATOM     20  C   LIG    1        1.369   2.484  -8.127  0.00  0.00    +0.048 A 
ATOM     21  C   LIG    1        0.631   3.627  -7.851  0.00  0.00    +0.024 A 
ATOM     22  C   LIG    1        0.427   4.572  -8.838  0.00  0.00    +0.002 A 
ATOM     23  C   LIG    1        0.957   4.380 -10.101  0.00  0.00    +0.002 A 
ATOM     24  C   LIG    1        1.694   3.243 -10.380  0.00  0.00    +0.022 A 
ATOM     25  C   LIG    1        1.906   2.297  -9.396  0.00  0.00    +0.062 A 
ATOM     26 CL   LIG    1        2.836   0.873  -9.745  0.00  0.00    -0.082 Cl
ENDBRANCH  17  20
ENDBRANCH   1  14
TORSDOF 4
