REMARK  Name = ZINC03532817
REMARK                            x       y       z     vdW  Elec       q    Type
REMARK                         _______ _______ _______ _____ _____    ______ ____
ROOT
ATOM      1  C   LIG    1        6.157  -2.012   3.489  0.00  0.00    +0.165 C 
ATOM      2  C   LIG    1        6.689  -0.846   4.327  0.00  0.00    +0.030 C 
ATOM      3  C   LIG    1        7.459  -1.397   5.529  0.00  0.00    +0.003 C 
ATOM      4  C   LIG    1        8.652  -2.222   5.038  0.00  0.00    +0.017 C 
ATOM      5  C   LIG    1        8.142  -3.404   4.207  0.00  0.00    +0.110 C 
ATOM      6  N   LIG    1        7.278  -2.893   3.134  0.00  0.00    -0.165 NA
ENDROOT
BRANCH   1   9
ATOM      7  N   LIG    1        4.297  -1.920   1.860  0.00  0.00    -0.310 N 
ATOM      8  H   LIG    1        3.833  -2.578   2.401  0.00  0.00    +0.149 HD
ATOM      9  C   LIG    1        5.516  -1.480   2.233  0.00  0.00    +0.232 C 
ATOM     10  O   LIG    1        6.096  -0.657   1.557  0.00  0.00    -0.274 OA
BRANCH   7  11
ATOM     11  C   LIG    1        3.674  -1.402   0.640  0.00  0.00    +0.139 C 
BRANCH  11  15
ATOM     12  C   LIG    1       -0.148  -3.234   0.104  0.00  0.00    +0.000 A 
ATOM     13  C   LIG    1       -0.040  -2.060   0.824  0.00  0.00    +0.000 A 
ATOM     14  C   LIG    1        1.197  -1.467   0.998  0.00  0.00    +0.005 A 
ATOM     15  C   LIG    1        2.326  -2.049   0.451  0.00  0.00    -0.030 A 
ATOM     16  C   LIG    1        2.217  -3.224  -0.268  0.00  0.00    +0.005 A 
ATOM     17  C   LIG    1        0.980  -3.817  -0.443  0.00  0.00    +0.000 A 
ENDBRANCH  11  15
ENDBRANCH   7  11
ENDBRANCH   1   9
BRANCH   6  18
ATOM     18  S   LIG    1        7.566  -3.299   1.554  0.00  0.00    +0.062 S 
ATOM     19  O   LIG    1        6.366  -3.031   0.841  0.00  0.00    -0.153 OA
ATOM     20  O   LIG    1        8.172  -4.584   1.569  0.00  0.00    -0.153 OA
BRANCH  18  21
ATOM     21  C   LIG    1        8.777  -2.177   0.940  0.00  0.00    +0.106 A 
ATOM     22  C   LIG    1        8.390  -1.089   0.181  0.00  0.00    +0.028 A 
ATOM     23  C   LIG    1        9.341  -0.208  -0.301  0.00  0.00    +0.002 A 
ATOM     24  C   LIG    1       10.679  -0.416  -0.023  0.00  0.00    +0.000 A 
ATOM     25  C   LIG    1       11.066  -1.504   0.737  0.00  0.00    +0.002 A 
ATOM     26  C   LIG    1       10.115  -2.381   1.222  0.00  0.00    +0.028 A 
ENDBRANCH  18  21
ENDBRANCH   6  18
TORSDOF 5
