REMARK  Name = ZINC03123707
REMARK                            x       y       z     vdW  Elec       q    Type
REMARK                         _______ _______ _______ _____ _____    ______ ____
ROOT
ATOM      1  C   LIG    1        3.265   3.277   2.103  0.00  0.00    +0.115 C 
ATOM      2  C   LIG    1        4.150   2.625   1.041  0.00  0.00    +0.050 C 
ATOM      3  C   LIG    1        3.256   2.053  -0.067  0.00  0.00    +0.081 C 
ATOM      4  C   LIG    1        4.125   1.457  -1.176  0.00  0.00    +0.028 C 
ATOM      5  N   LIG    1        2.419   1.003   0.530  0.00  0.00    -0.264 N 
ATOM      6  C   LIG    1        2.247  -0.176  -0.100  0.00  0.00    +0.251 C 
ATOM      7  O   LIG    1        3.122  -0.613  -0.822  0.00  0.00    -0.270 OA
ATOM      8  C   LIG    1        1.802   1.249   1.763  0.00  0.00    +0.042 A 
ATOM      9  C   LIG    1        0.796   0.394   2.199  0.00  0.00    +0.024 A 
ATOM     10  C   LIG    1        0.177   0.617   3.413  0.00  0.00    +0.002 A 
ATOM     11  C   LIG    1        0.567   1.686   4.199  0.00  0.00    +0.000 A 
ATOM     12  C   LIG    1        1.566   2.537   3.767  0.00  0.00    +0.007 A 
ATOM     13  C   LIG    1        2.186   2.325   2.548  0.00  0.00    -0.005 A 
ENDROOT
BRANCH   6  14
ATOM     14  C   LIG    1        0.996  -0.939   0.089  0.00  0.00    +0.037 A 
ATOM     15  C   LIG    1       -0.238  -0.290   0.022  0.00  0.00    +0.013 A 
ATOM     16  C   LIG    1       -1.403  -1.009   0.194  0.00  0.00    +0.001 A 
ATOM     17  C   LIG    1       -1.350  -2.369   0.443  0.00  0.00    +0.000 A 
ATOM     18  C   LIG    1       -0.130  -3.018   0.516  0.00  0.00    +0.001 A 
ATOM     19  C   LIG    1        1.042  -2.312   0.340  0.00  0.00    +0.013 A 
ENDBRANCH   6  14
BRANCH   1  21
ATOM     20  C   LIG    1        2.829   5.674   2.145  0.00  0.00    +0.220 C 
ATOM     21  N   LIG    1        2.646   4.481   1.544  0.00  0.00    -0.264 N 
ATOM     22  O   LIG    1        2.243   6.655   1.737  0.00  0.00    -0.275 OA
BRANCH  21  23
ATOM     23  C   LIG    1        1.865   4.394   0.387  0.00  0.00    +0.037 A 
ATOM     24  C   LIG    1        2.280   5.017  -0.782  0.00  0.00    +0.023 A 
ATOM     25  C   LIG    1        1.509   4.924  -1.924  0.00  0.00    +0.002 A 
ATOM     26  C   LIG    1        0.319   4.220  -1.902  0.00  0.00    +0.000 A 
ATOM     27  C   LIG    1       -0.100   3.602  -0.738  0.00  0.00    +0.002 A 
ATOM     28  C   LIG    1        0.669   3.687   0.406  0.00  0.00    +0.023 A 
ENDBRANCH  21  23
BRANCH  20  29
ATOM     29  C   LIG    1        3.762   5.789   3.323  0.00  0.00    +0.096 C 
BRANCH  29  30
ATOM     30  C   LIG    1        3.885   7.258   3.735  0.00  0.00    +0.009 C 
BRANCH  30  32
ATOM     31  C   LIG    1        4.955   8.843   5.342  0.00  0.00    +0.004 C 
ATOM     32  C   LIG    1        4.832   7.374   4.931  0.00  0.00    -0.003 C 
ENDBRANCH  30  32
ENDBRANCH  29  30
ENDBRANCH  20  29
ENDBRANCH   1  21
TORSDOF 6
