REMARK  Name = ZINC02701385
REMARK                            x       y       z     vdW  Elec       q    Type
REMARK                         _______ _______ _______ _____ _____    ______ ____
ROOT
ATOM      1  C   LIG    1       -0.729   1.579   1.267  0.00  0.00    -0.044 C 
ENDROOT
BRANCH   1   2
ATOM      2  N   LIG    1       -2.121   1.084   1.254  0.00  0.00    +0.381 N 
ATOM      3  H   LIG    1       -2.627   1.533   0.482  0.00  0.00    -0.082 HD
ATOM      4  C   LIG    1       -2.789   1.425   2.528  0.00  0.00    -0.078 C 
ATOM      5  C   LIG    1       -4.260   1.009   2.445  0.00  0.00    -0.015 C 
ATOM      6  C   LIG    1       -4.345  -0.501   2.206  0.00  0.00    -0.010 C 
ATOM      7  C   LIG    1       -3.585  -0.850   0.923  0.00  0.00    -0.015 C 
ATOM      8  C   LIG    1       -2.135  -0.380   1.050  0.00  0.00    -0.078 C 
BRANCH   6   9
ATOM      9  C   LIG    1       -5.811  -0.914   2.062  0.00  0.00    +0.038 C 
BRANCH   9  10
ATOM     10  C   LIG    1       -5.901  -2.414   1.950  0.00  0.00    -0.047 A 
ATOM     11  C   LIG    1       -5.855  -3.018   0.707  0.00  0.00    +0.003 A 
ATOM     12  C   LIG    1       -5.934  -4.395   0.604  0.00  0.00    +0.000 A 
ATOM     13  C   LIG    1       -6.068  -5.166   1.743  0.00  0.00    +0.000 A 
ATOM     14  C   LIG    1       -6.118  -4.562   2.986  0.00  0.00    +0.000 A 
ATOM     15  C   LIG    1       -6.036  -3.186   3.089  0.00  0.00    +0.003 A 
ENDBRANCH   9  10
ENDBRANCH   6   9
ENDBRANCH   1   2
BRANCH   1  16
ATOM     16  C   LIG    1       -0.022   1.110  -0.006  0.00  0.00    +0.135 C 
BRANCH  16  17
ATOM     17  O   LIG    1       -0.737   1.581  -1.150  0.00  0.00    -0.390 OA
ATOM     18  H   LIG    1       -0.806   2.544  -1.201  0.00  0.00    +0.210 HD
ENDBRANCH  16  17
BRANCH  16  19
ATOM     19  C   LIG    1        1.404   1.664  -0.032  0.00  0.00    +0.258 C 
BRANCH  19  20
ATOM     20  O   LIG    1        2.102   1.133  -1.159  0.00  0.00    -0.489 OA
BRANCH  20  26
ATOM     21  C   LIG    1        4.136   1.045  -2.416  0.00  0.00    +0.059 A 
ATOM     22  C   LIG    1        5.463   1.461  -2.579  0.00  0.00    +0.015 A 
ATOM     23  C   LIG    1        6.024   2.337  -1.677  0.00  0.00    +0.001 A 
ATOM     24  C   LIG    1        5.281   2.809  -0.606  0.00  0.00    +0.004 A 
ATOM     25  C   LIG    1        3.970   2.413  -0.435  0.00  0.00    +0.046 A 
ATOM     26  C   LIG    1        3.388   1.527  -1.330  0.00  0.00    +0.131 A 
BRANCH  21  28
ATOM     27  C   LIG    1        4.339  -0.402  -4.538  0.00  0.00    +0.092 C 
ATOM     28  C   LIG    1        3.531   0.112  -3.374  0.00  0.00    +0.164 C 
ATOM     29  O   LIG    1        2.381  -0.245  -3.229  0.00  0.00    -0.292 OA
ENDBRANCH  21  28
ENDBRANCH  20  26
ENDBRANCH  19  20
ENDBRANCH  16  19
ENDBRANCH   1  16
TORSDOF 9
