REMARK  Name = ZINC02915127
REMARK                            x       y       z     vdW  Elec       q    Type
REMARK                         _______ _______ _______ _____ _____    ______ ____
ROOT
ATOM      1  C   LIG    1        2.458   5.734  -0.501  0.00  0.00    +0.136 A 
ATOM      2  C   LIG    1        3.546   6.495  -0.176  0.00  0.00    +0.050 A 
ATOM      3  C   LIG    1        3.084   7.790   0.071  0.00  0.00    +0.050 A 
ATOM      4  C   LIG    1        1.712   7.765  -0.108  0.00  0.00    +0.130 A 
ATOM      5  O   LIG    1        1.359   6.509  -0.454  0.00  0.00    -0.455 OA
ENDROOT
BRANCH   4   6
ATOM      6  C   LIG    1        0.836   8.861   0.044  0.00  0.00    +0.066 C 
ATOM      7  C   LIG    1       -0.513   8.673  -0.047  0.00  0.00    +0.080 C 
ATOM      8  C   LIG    1       -1.287   7.421  -0.074  0.00  0.00    +0.259 C 
ATOM      9  N   LIG    1       -2.601   7.535  -0.164  0.00  0.00    -0.244 N 
ATOM     10  C   LIG    1       -3.199   8.742  -0.240  0.00  0.00    +0.121 C 
ATOM     11  S   LIG    1       -4.869   9.096  -0.369  0.00  0.00    -0.027 S 
ATOM     12  O   LIG    1       -0.743   6.333  -0.012  0.00  0.00    -0.269 OA
ATOM     13  S   LIG    1       -1.825   9.881  -0.174  0.00  0.00    -0.061 S 
BRANCH   9  14
ATOM     14  C   LIG    1       -3.426   6.325  -0.189  0.00  0.00    +0.235 C 
BRANCH  14  15
ATOM     15  C   LIG    1       -3.607   5.870  -1.614  0.00  0.00    +0.323 C 
ATOM     16  O   LIG    1       -3.100   6.493  -2.517  0.00  0.00    -0.249 OA
BRANCH  15  17
ATOM     17  O   LIG    1       -4.332   4.772  -1.881  0.00  0.00    -0.480 OA
ATOM     18  H   LIG    1       -4.726   4.289  -1.182  0.00  0.00    +0.295 HD
ENDBRANCH  15  17
ENDBRANCH  14  15
ENDBRANCH   9  14
ENDBRANCH   4   6
BRANCH   1  21
ATOM     19  C   LIG    1        3.722   2.260  -1.174  0.00  0.00    +0.001 A 
ATOM     20  C   LIG    1        3.697   3.603  -0.855  0.00  0.00    +0.011 A 
ATOM     21  C   LIG    1        2.484   4.298  -0.842  0.00  0.00    +0.018 A 
ATOM     22  C   LIG    1        1.299   3.632  -1.152  0.00  0.00    +0.026 A 
ATOM     23  C   LIG    1        1.333   2.276  -1.472  0.00  0.00    +0.060 A 
ATOM     24  C   LIG    1        2.552   1.593  -1.476  0.00  0.00    +0.015 A 
BRANCH  23  25
ATOM     25  C   LIG    1        0.082   1.562  -1.801  0.00  0.00    +0.337 C 
ATOM     26  O   LIG    1       -0.977   2.157  -1.798  0.00  0.00    -0.245 OA
BRANCH  25  27
ATOM     27  O   LIG    1        0.117   0.251  -2.111  0.00  0.00    -0.477 OA
ATOM     28  H   LIG    1        0.933  -0.208  -2.114  0.00  0.00    +0.295 HD
ENDBRANCH  25  27
ENDBRANCH  23  25
ENDBRANCH   1  21
TORSDOF 7
