REMARK  Name = ZINC03598128
REMARK                            x       y       z     vdW  Elec       q    Type
REMARK                         _______ _______ _______ _____ _____    ______ ____
ROOT
ATOM      1  C   LIG    1        2.335   4.344   0.009  0.00  0.00    +0.133 A 
ATOM      2  C   LIG    1        2.338   5.707   0.011  0.00  0.00    +0.055 A 
ATOM      3  C   LIG    1        1.123   6.412   0.027  0.00  0.00    -0.014 A 
ATOM      4  C   LIG    1        1.102   7.818   0.035  0.00  0.00    +0.008 A 
ATOM      5  C   LIG    1       -0.090   8.475   0.051  0.00  0.00    +0.001 A 
ATOM      6  C   LIG    1       -1.296   7.775   0.058  0.00  0.00    +0.001 A 
ATOM      7  C   LIG    1       -1.316   6.415   0.050  0.00  0.00    +0.008 A 
ATOM      8  C   LIG    1       -0.104   5.700   0.034  0.00  0.00    -0.017 A 
ATOM      9  C   LIG    1       -0.092   4.298   0.026  0.00  0.00    +0.025 A 
ATOM     10  C   LIG    1        1.120   3.626   0.011  0.00  0.00    +0.079 A 
ENDROOT
BRANCH  10  11
ATOM     11  C   LIG    1        1.140   2.151   0.003  0.00  0.00    +0.248 C 
ATOM     12  N   LIG    1       -0.018   1.461   0.010  0.00  0.00    -0.307 N 
ATOM     13  H   LIG    1       -0.864   1.934   0.017  0.00  0.00    +0.149 HD
ATOM     14  O   LIG    1        2.201   1.557  -0.011  0.00  0.00    -0.270 OA
BRANCH  12  15
ATOM     15  C   LIG    1        0.002  -0.004   0.002  0.00  0.00    +0.139 C 
BRANCH  15  16
ATOM     16  C   LIG    1       -1.412  -0.526   0.013  0.00  0.00    -0.030 A 
ATOM     17  C   LIG    1       -2.046  -0.777   1.215  0.00  0.00    +0.006 A 
ATOM     18  C   LIG    1       -3.345  -1.250   1.225  0.00  0.00    +0.020 A 
ATOM     19  C   LIG    1       -4.006  -1.483   0.032  0.00  0.00    +0.041 A 
ATOM     20 CL   LIG    1       -5.635  -2.083   0.045  0.00  0.00    -0.084 Cl
ATOM     21  C   LIG    1       -3.368  -1.237  -1.171  0.00  0.00    +0.020 A 
ATOM     22  C   LIG    1       -2.071  -0.758  -1.180  0.00  0.00    +0.006 A 
ENDBRANCH  15  16
ENDBRANCH  12  15
ENDBRANCH  10  11
BRANCH   1  24
ATOM     23  C   LIG    1        4.708   4.452  -0.002  0.00  0.00    +0.277 C 
ATOM     24  O   LIG    1        3.513   3.669  -0.000  0.00  0.00    -0.494 OA
ENDBRANCH   1  24
TORSDOF 4
