REMARK  Name = ZINC02554424
REMARK                            x       y       z     vdW  Elec       q    Type
REMARK                         _______ _______ _______ _____ _____    ______ ____
ROOT
ATOM      1  C   LIG    1        2.269   6.604   0.018  0.00  0.00    +0.168 A 
ATOM      2  C   LIG    1        1.670   5.338   0.016  0.00  0.00    +0.194 A 
ATOM      3  C   LIG    1        0.272   5.276   0.029  0.00  0.00    +0.122 A 
ATOM      4  N   LIG    1       -0.433   6.405   0.042  0.00  0.00    -0.231 NA
ATOM      5  C   LIG    1        0.174   7.573   0.044  0.00  0.00    +0.224 A 
ATOM      6  C   LIG    1       -0.063   3.842   0.024  0.00  0.00    +0.048 A 
ATOM      7  C   LIG    1       -1.256   3.126   0.031  0.00  0.00    +0.033 A 
ATOM      8  C   LIG    1       -1.227   1.747   0.017  0.00  0.00    +0.042 A 
ATOM      9 CL   LIG    1       -2.713   0.849   0.020  0.00  0.00    -0.084 Cl
ATOM     10  C   LIG    1       -0.013   1.076   0.008  0.00  0.00    +0.023 A 
ATOM     11  C   LIG    1        1.175   1.775   0.000  0.00  0.00    +0.048 A 
ATOM     12  C   LIG    1        1.166   3.165   0.008  0.00  0.00    +0.138 A 
ATOM     13  O   LIG    1        2.159   4.081   0.004  0.00  0.00    -0.450 OA
ATOM     14  N   LIG    1        1.489   7.680   0.032  0.00  0.00    -0.217 NA
ENDROOT
BRANCH   1  20
ATOM     15  C   LIG    1        7.639   7.662   1.036  0.00  0.00    -0.096 C 
ATOM     16  N   LIG    1        6.167   7.538   1.072  0.00  0.00    +0.380 N 
ATOM     17  H   LIG    1        5.817   7.962   1.939  0.00  0.00    -0.082 HD
ATOM     18  C   LIG    1        5.779   6.112   1.043  0.00  0.00    -0.060 C 
ATOM     19  C   LIG    1        4.255   6.013   1.137  0.00  0.00    +0.088 C 
ATOM     20  N   LIG    1        3.649   6.731   0.006  0.00  0.00    -0.316 N 
ATOM     21  C   LIG    1        4.047   8.146   0.011  0.00  0.00    +0.088 C 
ATOM     22  C   LIG    1        5.572   8.245  -0.082  0.00  0.00    -0.060 C 
ENDBRANCH   1  20
TORSDOF 1
