REMARK  Name = ZINC02745030
REMARK                            x       y       z     vdW  Elec       q    Type
REMARK                         _______ _______ _______ _____ _____    ______ ____
ROOT
ATOM      1  C   LIG    1        3.093  -3.642  -2.059  0.00  0.00    +0.090 A 
ATOM      2  C   LIG    1        4.074  -4.173  -2.880  0.00  0.00    +0.084 A 
ATOM      3  C   LIG    1        4.544  -5.512  -2.574  0.00  0.00    -0.018 A 
ATOM      4  C   LIG    1        3.946  -6.075  -1.501  0.00  0.00    -0.004 A 
ATOM      5  C   LIG    1        4.212  -7.436  -0.935  0.00  0.00    +0.047 C 
ATOM      6  C   LIG    1        5.532  -7.955  -1.525  0.00  0.00    -0.000 C 
ATOM      7  C   LIG    1        5.512  -7.747  -3.042  0.00  0.00    +0.009 C 
ATOM      8  C   LIG    1        5.612  -6.254  -3.365  0.00  0.00    +0.037 C 
ATOM      9  S   LIG    1        2.807  -4.850  -0.928  0.00  0.00    -0.077 S 
ENDROOT
BRANCH   1  11
ATOM     10  C   LIG    1        1.548  -2.037  -1.250  0.00  0.00    +0.221 C 
ATOM     11  N   LIG    1        2.490  -2.395  -2.146  0.00  0.00    -0.279 N 
ATOM     12  H   LIG    1        2.745  -1.781  -2.853  0.00  0.00    +0.155 HD
ATOM     13  O   LIG    1        1.169  -2.834  -0.419  0.00  0.00    -0.275 OA
BRANCH  10  14
ATOM     14  C   LIG    1        0.968  -0.647  -1.282  0.00  0.00    +0.075 C 
BRANCH  14  16
ATOM     15  C   LIG    1       -1.068   0.719  -0.803  0.00  0.00    +0.004 C 
ATOM     16  C   LIG    1       -0.429  -0.664  -0.659  0.00  0.00    +0.009 C 
ENDBRANCH  14  16
BRANCH  14  17
ATOM     17  C   LIG    1        1.869   0.300  -0.487  0.00  0.00    +0.009 C 
ATOM     18  C   LIG    1        1.903  -0.138   0.979  0.00  0.00    +0.004 C 
ENDBRANCH  14  17
ENDBRANCH  10  14
ENDBRANCH   1  11
BRANCH   6  19
ATOM     19  C   LIG    1        5.683  -9.445  -1.212  0.00  0.00    -0.032 C 
ATOM     20  C   LIG    1        6.998  -9.959  -1.800  0.00  0.00    +0.011 C 
ATOM     21  C   LIG    1        4.513 -10.216  -1.826  0.00  0.00    +0.011 C 
BRANCH  19  22
ATOM     22  C   LIG    1        5.689  -9.649   0.305  0.00  0.00    +0.003 C 
ATOM     23  C   LIG    1        5.840 -11.139   0.618  0.00  0.00    +0.004 C 
ENDBRANCH  19  22
ENDBRANCH   6  19
BRANCH   2  24
ATOM     24  C   LIG    1        4.602  -3.432  -3.986  0.00  0.00    +0.102 C 
ATOM     25  N   LIG    1        5.021  -2.844  -4.863  0.00  0.00    -0.191 NA
ENDBRANCH   2  24
TORSDOF 7
