REMARK  Name = ZINC02579846
REMARK                            x       y       z     vdW  Elec       q    Type
REMARK                         _______ _______ _______ _____ _____    ______ ____
ROOT
ATOM      1  C   LIG    1       -0.016   1.341   0.009  0.00  0.00    +0.212 A 
ATOM      2  C   LIG    1        1.272   1.796  -0.000  0.00  0.00    +0.057 A 
ATOM      3  C   LIG    1        2.104   0.670  -0.014  0.00  0.00    +0.054 A 
ATOM      4  C   LIG    1        1.278  -0.435  -0.013  0.00  0.00    +0.180 A 
ATOM      5  O   LIG    1        0.002  -0.004   0.002  0.00  0.00    -0.445 OA
ENDROOT
BRANCH   1   6
ATOM      6  C   LIG    1       -1.224   2.183   0.020  0.00  0.00    +0.375 C 
ATOM      7  O   LIG    1       -1.121   3.394   0.026  0.00  0.00    -0.241 OA
BRANCH   6   8
ATOM      8  O   LIG    1       -2.445   1.611   0.023  0.00  0.00    -0.459 OA
BRANCH   8  10
ATOM      9  C   LIG    1       -4.879   1.677   0.036  0.00  0.00    +0.048 C 
ATOM     10  C   LIG    1       -3.591   2.502   0.034  0.00  0.00    +0.229 C 
ENDBRANCH   8  10
ENDBRANCH   6   8
ENDBRANCH   1   6
BRANCH   4  11
ATOM     11  C   LIG    1        1.713  -1.833  -0.023  0.00  0.00    +0.300 C 
ATOM     12  O   LIG    1        2.896  -2.100  -0.036  0.00  0.00    -0.279 OA
BRANCH  11  13
ATOM     13  C   LIG    1        0.690  -2.940  -0.019  0.00  0.00    +0.459 C 
ATOM     14  F   LIG    1       -0.121  -2.830  -1.153  0.00  0.00    -0.163 F 
ATOM     15  F   LIG    1       -0.100  -2.841   1.131  0.00  0.00    -0.163 F 
ATOM     16  F   LIG    1        1.343  -4.178  -0.032  0.00  0.00    -0.163 F 
ENDBRANCH  11  13
ENDBRANCH   4  11
TORSDOF 5
