REMARK  Name = ZINC03590617
REMARK                            x       y       z     vdW  Elec       q    Type
REMARK                         _______ _______ _______ _____ _____    ______ ____
ROOT
ATOM      1  C   LIG    1       -1.641   4.555   0.040  0.00  0.00    +0.139 C 
ATOM      2  N   LIG    1       -0.770   3.377   0.027  0.00  0.00    -0.267 N 
ATOM      3  C   LIG    1        0.617   3.432   0.014  0.00  0.00    +0.047 A 
ATOM      4  C   LIG    1        1.492   4.515   0.011  0.00  0.00    +0.025 A 
ATOM      5  C   LIG    1        2.854   4.312  -0.002  0.00  0.00    +0.017 A 
ATOM      6  C   LIG    1        3.379   3.014  -0.014  0.00  0.00    +0.060 A 
ATOM      7  C   LIG    1        2.516   1.917  -0.011  0.00  0.00    +0.028 A 
ATOM      8  C   LIG    1        1.142   2.126   0.003  0.00  0.00    +0.049 A 
ATOM      9  C   LIG    1       -0.014   1.209   0.009  0.00  0.00    +0.250 C 
ATOM     10  O   LIG    1        0.002  -0.004   0.002  0.00  0.00    -0.282 OA
ATOM     11  C   LIG    1       -1.214   2.109   0.018  0.00  0.00    +0.291 C 
ATOM     12  O   LIG    1       -2.375   1.756   0.021  0.00  0.00    -0.266 OA
ENDROOT
BRANCH   6  13
ATOM     13  C   LIG    1        4.839   2.807  -0.029  0.00  0.00    +0.337 C 
ATOM     14  O   LIG    1        5.293   1.679  -0.039  0.00  0.00    -0.245 OA
BRANCH  13  15
ATOM     15  O   LIG    1        5.670   3.867  -0.031  0.00  0.00    -0.477 OA
ATOM     16  H   LIG    1        5.321   4.736  -0.023  0.00  0.00    +0.295 HD
ENDBRANCH  13  15
ENDBRANCH   6  13
TORSDOF 2
