REMARK  Name = ZINC02697121
REMARK                            x       y       z     vdW  Elec       q    Type
REMARK                         _______ _______ _______ _____ _____    ______ ____
ROOT
ATOM      1  C   LIG    1       -4.698  -1.041   2.120  0.00  0.00    +0.066 C 
ATOM      2  C   LIG    1       -4.015  -0.431   1.107  0.00  0.00    +0.080 C 
ATOM      3  C   LIG    1       -2.910   0.540   1.172  0.00  0.00    +0.259 C 
ATOM      4  N   LIG    1       -2.430   0.973   0.019  0.00  0.00    -0.244 N 
ATOM      5  C   LIG    1       -2.935   0.548  -1.158  0.00  0.00    +0.121 C 
ATOM      6  S   LIG    1       -2.459   0.991  -2.741  0.00  0.00    -0.027 S 
ATOM      7  O   LIG    1       -2.461   0.925   2.236  0.00  0.00    -0.269 OA
ATOM      8  S   LIG    1       -4.217  -0.591  -0.662  0.00  0.00    -0.061 S 
ENDROOT
BRANCH   1  12
ATOM      9  C   LIG    1       -7.160  -3.189   0.696  0.00  0.00    +0.136 A 
ATOM     10  C   LIG    1       -7.405  -3.418   2.020  0.00  0.00    +0.050 A 
ATOM     11  C   LIG    1       -6.505  -2.636   2.747  0.00  0.00    +0.050 A 
ATOM     12  C   LIG    1       -5.736  -1.950   1.823  0.00  0.00    +0.130 A 
ATOM     13  O   LIG    1       -6.156  -2.299   0.589  0.00  0.00    -0.455 OA
BRANCH   9  20
ATOM     14  C   LIG    1       -8.911  -4.723  -0.189  0.00  0.00    +0.012 A 
ATOM     15  C   LIG    1       -9.584  -5.295  -1.248  0.00  0.00    +0.016 A 
ATOM     16  C   LIG    1       -9.236  -4.975  -2.549  0.00  0.00    +0.018 A 
ATOM     17 BR   LIG    1      -10.159  -5.771  -3.994  0.00  0.00    -0.050 Br
ATOM     18  C   LIG    1       -8.213  -4.074  -2.797  0.00  0.00    +0.016 A 
ATOM     19  C   LIG    1       -7.535  -3.490  -1.748  0.00  0.00    +0.012 A 
ATOM     20  C   LIG    1       -7.882  -3.809  -0.432  0.00  0.00    +0.017 A 
ENDBRANCH   9  20
ENDBRANCH   1  12
BRANCH   4  21
ATOM     21  C   LIG    1       -1.329   1.940   0.019  0.00  0.00    +0.235 C 
BRANCH  21  22
ATOM     22  C   LIG    1       -0.014   1.204   0.009  0.00  0.00    +0.323 C 
ATOM     23  O   LIG    1        0.002  -0.004   0.002  0.00  0.00    -0.249 OA
BRANCH  22  24
ATOM     24  O   LIG    1        1.139   1.891   0.001  0.00  0.00    -0.480 OA
ATOM     25  H   LIG    1        1.126   2.828   0.006  0.00  0.00    +0.295 HD
ENDBRANCH  22  24
ENDBRANCH  21  22
ENDBRANCH   4  21
TORSDOF 5
