REMARK  Name = ZINC02386800
REMARK                            x       y       z     vdW  Elec       q    Type
REMARK                         _______ _______ _______ _____ _____    ______ ____
ROOT
ATOM      1  C   LIG    1        2.322   4.246  -0.622  0.00  0.00    -0.095 C 
ATOM      2  N   LIG    1        1.055   3.484  -0.583  0.00  0.00    +0.383 N 
ATOM      3  H   LIG    1        0.702   3.374  -1.541  0.00  0.00    -0.081 HD
ATOM      4  C   LIG    1        1.286   2.147   0.001  0.00  0.00    -0.033 C 
ATOM      5  C   LIG    1        2.331   1.424  -0.845  0.00  0.00    +0.025 C 
ATOM      6  C   LIG    1        2.443  -0.020  -0.437  0.00  0.00    -0.041 A 
ATOM      7  C   LIG    1        1.302  -0.715  -0.043  0.00  0.00    -0.015 A 
ATOM      8  C   LIG    1        1.391  -2.059   0.306  0.00  0.00    +0.009 A 
ATOM      9  C   LIG    1        2.616  -2.695   0.270  0.00  0.00    +0.001 A 
ATOM     10  C   LIG    1        3.750  -1.998  -0.108  0.00  0.00    +0.000 A 
ATOM     11  C   LIG    1        0.002  -0.004   0.002  0.00  0.00    -0.016 A 
ATOM     12  C   LIG    1       -1.188  -0.723   0.023  0.00  0.00    +0.009 A 
ATOM     13  C   LIG    1       -2.392  -0.047   0.040  0.00  0.00    +0.001 A 
ATOM     14  C   LIG    1       -2.407   1.333   0.043  0.00  0.00    +0.004 A 
ATOM     15  C   LIG    1       -1.222   2.059   0.035  0.00  0.00    -0.047 A 
ATOM     16  C   LIG    1       -1.310   3.558   0.068  0.00  0.00    +0.017 C 
ATOM     17  C   LIG    1        3.664  -0.662  -0.460  0.00  0.00    +0.004 A 
ATOM     18  C   LIG    1       -0.017   1.392   0.010  0.00  0.00    -0.050 A 
ATOM     19  C   LIG    1        0.054   4.213   0.214  0.00  0.00    -0.074 C 
ENDROOT
TORSDOF 0
