REMARK  Name = ZINC03099994
REMARK                            x       y       z     vdW  Elec       q    Type
REMARK                         _______ _______ _______ _____ _____    ______ ____
ROOT
ATOM      1  N   LIG    1        1.057   1.991   0.037  0.00  0.00    -0.243 N 
ATOM      2  C   LIG    1        0.705   3.289   0.058  0.00  0.00    +0.266 A 
ATOM      3  C   LIG    1       -0.773   3.378   0.051  0.00  0.00    +0.054 A 
ATOM      4  C   LIG    1       -1.674   4.437   0.065  0.00  0.00    +0.028 A 
ATOM      5  C   LIG    1       -3.040   4.182   0.038  0.00  0.00    +0.054 A 
ATOM      6  C   LIG    1       -3.515   2.859   0.009  0.00  0.00    +0.064 A 
ATOM      7  C   LIG    1       -4.993   2.958  -0.004  0.00  0.00    +0.267 A 
ATOM      8  N   LIG    1       -5.335   4.258   0.016  0.00  0.00    -0.243 N 
ATOM      9  O   LIG    1       -5.765   2.021  -0.029  0.00  0.00    -0.267 OA
ATOM     10  C   LIG    1       -2.613   1.789  -0.001  0.00  0.00    +0.048 A 
ATOM     11  C   LIG    1       -4.244   5.045   0.042  0.00  0.00    +0.266 A 
ATOM     12  O   LIG    1       -4.246   6.258   0.065  0.00  0.00    -0.267 OA
ATOM     13  C   LIG    1       -1.238   2.051   0.018  0.00  0.00    +0.064 A 
ATOM     14  O   LIG    1        1.471   4.230   0.080  0.00  0.00    -0.267 OA
ATOM     15  C   LIG    1       -0.029   1.196   0.015  0.00  0.00    +0.267 A 
ATOM     16  O   LIG    1       -0.019  -0.017  -0.007  0.00  0.00    -0.267 OA
ENDROOT
BRANCH   1  21
ATOM     17  C   LIG    1        6.412   0.113   0.037  0.00  0.00    +0.044 C 
ATOM     18  C   LIG    1        4.990   0.612   0.037  0.00  0.00    -0.047 A 
ATOM     19  C   LIG    1        3.942  -0.291   0.014  0.00  0.00    +0.005 A 
ATOM     20  C   LIG    1        2.638   0.163   0.014  0.00  0.00    +0.026 A 
ATOM     21  C   LIG    1        2.379   1.527   0.037  0.00  0.00    +0.053 A 
ATOM     22  C   LIG    1        3.433   2.431   0.054  0.00  0.00    +0.030 A 
ATOM     23  C   LIG    1        4.735   1.970   0.059  0.00  0.00    -0.046 A 
ATOM     24  C   LIG    1        5.880   2.950   0.084  0.00  0.00    +0.044 C 
ENDBRANCH   1  21
BRANCH   8  25
ATOM     25  C   LIG    1       -6.654   4.732   0.011  0.00  0.00    +0.053 A 
ATOM     26  C   LIG    1       -7.714   3.840   0.109  0.00  0.00    +0.026 A 
ATOM     27  C   LIG    1       -9.012   4.309   0.104  0.00  0.00    +0.005 A 
ATOM     28  C   LIG    1       -9.258   5.666   0.001  0.00  0.00    -0.047 A 
ATOM     29  C   LIG    1      -10.676   6.175  -0.004  0.00  0.00    +0.044 C 
ATOM     30  C   LIG    1       -8.205   6.557  -0.097  0.00  0.00    -0.046 A 
ATOM     31  C   LIG    1       -8.477   8.035  -0.209  0.00  0.00    +0.044 C 
ATOM     32  C   LIG    1       -6.904   6.094  -0.087  0.00  0.00    +0.030 A 
ENDBRANCH   8  25
BRANCH  10  33
ATOM     33  C   LIG    1       -3.108   0.394  -0.033  0.00  0.00    +0.195 C 
ATOM     34  O   LIG    1       -3.237  -0.228   1.003  0.00  0.00    -0.287 OA
BRANCH  33  35
ATOM     35  C   LIG    1       -3.445  -0.242  -1.325  0.00  0.00    +0.022 A 
ATOM     36  C   LIG    1       -3.202   0.436  -2.522  0.00  0.00    +0.012 A 
ATOM     37  C   LIG    1       -3.511  -0.159  -3.725  0.00  0.00    +0.015 A 
ATOM     38  C   LIG    1       -4.077  -1.435  -3.748  0.00  0.00    +0.059 A 
ATOM     39  C   LIG    1       -4.325  -2.111  -2.551  0.00  0.00    +0.015 A 
ATOM     40  C   LIG    1       -4.011  -1.519  -1.348  0.00  0.00    +0.012 A 
BRANCH  38  41
ATOM     41  C   LIG    1       -4.413  -2.072  -5.040  0.00  0.00    +0.337 C 
ATOM     42  O   LIG    1       -4.905  -3.182  -5.060  0.00  0.00    -0.245 OA
BRANCH  41  43
ATOM     43  O   LIG    1       -4.173  -1.420  -6.194  0.00  0.00    -0.477 OA
ATOM     44  H   LIG    1       -3.794  -0.564  -6.179  0.00  0.00    +0.295 HD
ENDBRANCH  41  43
ENDBRANCH  38  41
ENDBRANCH  33  35
ENDBRANCH  10  33
TORSDOF 6
