REMARK  Name = ZINC03625134
REMARK                            x       y       z     vdW  Elec       q    Type
REMARK                         _______ _______ _______ _____ _____    ______ ____
ROOT
ATOM      1  C   LIG    1       -0.036  -4.176   2.384  0.00  0.00    +0.225 A 
ATOM      2  N   LIG    1       -0.028  -4.836   1.230  0.00  0.00    -0.181 NA
ATOM      3  C   LIG    1       -0.110  -6.163   1.223  0.00  0.00    +0.221 A 
ATOM      4  N   LIG    1       -0.202  -6.830   2.370  0.00  0.00    -0.181 NA
ATOM      5  C   LIG    1       -0.210  -6.169   3.524  0.00  0.00    +0.224 A 
ATOM      6  N   LIG    1       -0.122  -4.843   3.531  0.00  0.00    -0.181 NA
ENDROOT
BRANCH   5   7
ATOM      7  N   LIG    1       -0.305  -6.861   4.714  0.00  0.00    -0.299 N 
ATOM      8  C   LIG    1       -0.396  -8.322   4.851  0.00  0.00    +0.108 C 
ATOM      9  C   LIG    1       -0.509  -8.635   6.358  0.00  0.00    +0.020 C 
ATOM     10  C   LIG    1       -1.045  -7.304   6.950  0.00  0.00    +0.020 C 
ATOM     11  C   LIG    1       -0.325  -6.258   6.059  0.00  0.00    +0.108 C 
ENDBRANCH   5   7
BRANCH   1  12
ATOM     12  N   LIG    1        0.050  -2.797   2.392  0.00  0.00    -0.283 N 
ATOM     13  H   LIG    1        0.129  -2.321   3.233  0.00  0.00    +0.155 HD
BRANCH  12  19
ATOM     14  C   LIG    1        1.514   1.061  -0.281  0.00  0.00    +0.044 C 
ATOM     15  C   LIG    1        0.725  -0.215  -0.137  0.00  0.00    -0.049 A 
ATOM     16  C   LIG    1       -0.027  -0.686  -1.198  0.00  0.00    +0.003 A 
ATOM     17  C   LIG    1       -0.753  -1.856  -1.070  0.00  0.00    +0.002 A 
ATOM     18  C   LIG    1       -0.729  -2.558   0.119  0.00  0.00    +0.023 A 
ATOM     19  C   LIG    1        0.025  -2.088   1.187  0.00  0.00    +0.034 A 
ATOM     20  C   LIG    1        0.757  -0.916   1.053  0.00  0.00    +0.026 A 
ENDBRANCH  12  19
ENDBRANCH   1  12
BRANCH   3  21
ATOM     21  N   LIG    1       -0.102  -6.848   0.025  0.00  0.00    -0.311 N 
ATOM     22  H   LIG    1       -0.162  -7.816   0.020  0.00  0.00    +0.149 HD
BRANCH  21  23
ATOM     23  C   LIG    1       -0.002  -6.114  -1.238  0.00  0.00    +0.132 C 
BRANCH  23  24
ATOM     24  C   LIG    1       -0.014  -7.103  -2.405  0.00  0.00    +0.174 C 
BRANCH  24  25
ATOM     25  O   LIG    1       -1.278  -7.768  -2.454  0.00  0.00    -0.393 OA
ATOM     26  H   LIG    1       -1.357  -8.411  -3.171  0.00  0.00    +0.209 HD
ENDBRANCH  24  25
ENDBRANCH  23  24
ENDBRANCH  21  23
ENDBRANCH   3  21
TORSDOF 7
