REMARK  Name = ZINC02429273
REMARK                            x       y       z     vdW  Elec       q    Type
REMARK                         _______ _______ _______ _____ _____    ______ ____
ROOT
ATOM      1  N   LIG    1        6.979  -3.939  -2.661  0.00  0.00    -0.331 N 
ATOM      2  C   LIG    1        7.889  -4.484  -3.482  0.00  0.00    +0.106 A 
ATOM      3  C   LIG    1        8.649  -3.726  -4.348  0.00  0.00    +0.122 A 
ATOM      4  C   LIG    1        8.455  -2.265  -4.372  0.00  0.00    +0.206 A 
ATOM      5  C   LIG    1        7.449  -1.711  -3.455  0.00  0.00    +0.083 A 
ATOM      6  C   LIG    1        7.180  -0.343  -3.390  0.00  0.00    +0.129 A 
ATOM      7  N   LIG    1        6.256   0.078  -2.543  0.00  0.00    -0.222 NA
ATOM      8  C   LIG    1        5.604  -0.775  -1.762  0.00  0.00    +0.220 A 
ATOM      9  N   LIG    1        5.827  -2.081  -1.791  0.00  0.00    -0.196 NA
ATOM     10  O   LIG    1        9.101  -1.549  -5.117  0.00  0.00    -0.286 OA
ATOM     11  C   LIG    1        6.734  -2.591  -2.616  0.00  0.00    +0.149 A 
ENDROOT
BRANCH   8  12
ATOM     12  N   LIG    1        4.653  -0.284  -0.891  0.00  0.00    -0.297 N 
ATOM     13  C   LIG    1        4.545   1.177  -1.000  0.00  0.00    +0.127 C 
ATOM     14  C   LIG    1        3.617   1.700   0.102  0.00  0.00    +0.126 C 
ATOM     15  N   LIG    1        2.340   0.975   0.022  0.00  0.00    -0.309 N 
ATOM     16  C   LIG    1        2.376  -0.495  -0.007  0.00  0.00    +0.126 C 
ATOM     17  C   LIG    1        3.353  -0.932  -1.111  0.00  0.00    +0.127 C 
BRANCH  15  18
ATOM     18  C   LIG    1        1.168   1.639  -0.019  0.00  0.00    +0.137 C 
ATOM     19  S   LIG    1        1.156   3.348  -0.116  0.00  0.00    -0.018 S 
BRANCH  18  20
ATOM     20  N   LIG    1        0.006   0.958   0.017  0.00  0.00    -0.297 N 
ATOM     21  H   LIG    1       -0.545   0.898  -0.779  0.00  0.00    +0.154 HD
BRANCH  20  22
ATOM     22  C   LIG    1       -0.408   0.342   1.203  0.00  0.00    +0.033 A 
ATOM     23  C   LIG    1        0.314   0.532   2.374  0.00  0.00    +0.025 A 
ATOM     24  C   LIG    1       -0.100  -0.073   3.545  0.00  0.00    +0.022 A 
ATOM     25  C   LIG    1       -1.227  -0.876   3.549  0.00  0.00    +0.041 A 
ATOM     26 CL   LIG    1       -1.741  -1.640   5.021  0.00  0.00    -0.084 Cl
ATOM     27  C   LIG    1       -1.945  -1.071   2.382  0.00  0.00    +0.022 A 
ATOM     28  C   LIG    1       -1.538  -0.465   1.210  0.00  0.00    +0.025 A 
ENDBRANCH  20  22
ENDBRANCH  18  20
ENDBRANCH  15  18
ENDBRANCH   8  12
BRANCH   1  30
ATOM     29  C   LIG    1        4.883  -5.177  -2.432  0.00  0.00    +0.027 C 
ATOM     30  C   LIG    1        6.217  -4.820  -1.773  0.00  0.00    +0.120 C 
ENDBRANCH   1  30
BRANCH   3  31
ATOM     31  C   LIG    1        9.635  -4.364  -5.232  0.00  0.00    +0.342 C 
ATOM     32  O   LIG    1       10.300  -3.685  -5.991  0.00  0.00    -0.245 OA
BRANCH  31  33
ATOM     33  O   LIG    1        9.803  -5.701  -5.201  0.00  0.00    -0.477 OA
ATOM     34  H   LIG    1        9.291  -6.224  -4.616  0.00  0.00    +0.295 HD
ENDBRANCH  31  33
ENDBRANCH   3  31
TORSDOF 7
