REMARK  Name = ZINC03157772
REMARK                            x       y       z     vdW  Elec       q    Type
REMARK                         _______ _______ _______ _____ _____    ______ ____
ROOT
ATOM      1  C   LIG    1       -2.302   5.165   0.777  0.00  0.00    +0.267 C 
ATOM      2  N   LIG    1       -1.424   5.882   0.047  0.00  0.00    -0.280 N 
ATOM      3  H   LIG    1       -0.702   5.434  -0.420  0.00  0.00    +0.155 HD
ATOM      4  O   LIG    1       -3.148   5.732   1.440  0.00  0.00    -0.268 OA
ENDROOT
BRANCH   1   9
ATOM      5  C   LIG    1       -3.068   1.566   1.515  0.00  0.00    +0.004 A 
ATOM      6  C   LIG    1       -2.085   0.965   0.744  0.00  0.00    +0.020 A 
ATOM      7  C   LIG    1       -1.210   1.759   0.020  0.00  0.00    +0.111 A 
ATOM      8  N   LIG    1       -1.308   3.071   0.047  0.00  0.00    -0.250 NA
ATOM      9  C   LIG    1       -2.234   3.685   0.773  0.00  0.00    +0.126 A 
ATOM     10  C   LIG    1       -3.144   2.950   1.530  0.00  0.00    +0.033 A 
ENDBRANCH   1   9
BRANCH   2  11
ATOM     11  C   LIG    1       -1.556   7.271  -0.036  0.00  0.00    +0.034 A 
ATOM     12  C   LIG    1       -0.425   8.072  -0.143  0.00  0.00    +0.023 A 
ATOM     13  C   LIG    1       -0.559   9.444  -0.225  0.00  0.00    +0.002 A 
ATOM     14  C   LIG    1       -1.815  10.021  -0.202  0.00  0.00    +0.012 A 
ATOM     15  C   LIG    1       -2.942   9.227  -0.097  0.00  0.00    +0.057 A 
ATOM     16  C   LIG    1       -2.816   7.854  -0.019  0.00  0.00    +0.035 A 
BRANCH  15  17
ATOM     17  C   LIG    1       -4.310   9.860  -0.073  0.00  0.00    +0.417 C 
ATOM     18  F   LIG    1       -4.954   9.533   1.125  0.00  0.00    -0.166 F 
ATOM     19  F   LIG    1       -5.062   9.385  -1.152  0.00  0.00    -0.166 F 
ATOM     20  F   LIG    1       -4.182  11.250  -0.170  0.00  0.00    -0.166 F 
ENDBRANCH  15  17
ENDBRANCH   2  11
TORSDOF 3
