REMARK  Name = ZINC02566916
REMARK                            x       y       z     vdW  Elec       q    Type
REMARK                         _______ _______ _______ _____ _____    ______ ____
ROOT
ATOM      1  C   LIG    1        0.927   5.127  -1.380  0.00  0.00    +0.162 C 
ATOM      2  O   LIG    1        1.063   5.720  -0.331  0.00  0.00    -0.292 OA
ENDROOT
BRANCH   1   5
ATOM      3  C   LIG    1        0.328   5.907  -5.000  0.00  0.00    +0.003 A 
ATOM      4  C   LIG    1        0.542   5.197  -3.837  0.00  0.00    +0.011 A 
ATOM      5  C   LIG    1        0.700   5.877  -2.626  0.00  0.00    +0.019 A 
ATOM      6  C   LIG    1        0.634   7.274  -2.602  0.00  0.00    +0.044 A 
ATOM      7  C   LIG    1        0.424   7.970  -3.774  0.00  0.00    +0.122 A 
ATOM      8  C   LIG    1        0.270   7.290  -4.969  0.00  0.00    +0.032 A 
BRANCH   7   9
ATOM      9  N   LIG    1        0.359   9.449  -3.752  0.00  0.00    +0.006 N 
ATOM     10  O   LIG    1        0.170  10.065  -4.786  0.00  0.00    -0.130 OA
BRANCH   9  11
ATOM     11  O   LIG    1        0.495  10.049  -2.701  0.00  0.00    -0.396 OA
ATOM     12  H   LIG    1        0.641   9.575  -1.906  0.00  0.00    +0.329 HD
ENDBRANCH   9  11
ENDBRANCH   7   9
ENDBRANCH   1   5
BRANCH   1  13
ATOM     13  C   LIG    1        0.991   3.621  -1.409  0.00  0.00    +0.074 C 
BRANCH  13  14
ATOM     14  CA  LIG    1        1.235   3.094   0.007  0.00  0.00    +0.043 C 
BRANCH  14  15
ATOM     15  N   LIG    1        2.559   3.519   0.493  0.00  0.00    +0.387 N 
ATOM     16  H1  LIG    1        2.717   3.128   1.429  0.00  0.00    -0.089 HD
ATOM     17  H2  LIG    1        2.602   4.536   0.546  0.00  0.00    -0.089 HD
ATOM     18  H3  LIG    1        3.287   3.182  -0.135  0.00  0.00    -0.089 HD
ENDBRANCH  14  15
BRANCH  14  19
ATOM     19  C   LIG    1        1.177   1.588  -0.001  0.00  0.00    +0.290 C 
ATOM     20  O   LIG    1        2.199   0.944  -0.014  0.00  0.00    -0.253 OA
BRANCH  19  21
ATOM     21  OXT LIG    1       -0.011   0.963   0.007  0.00  0.00    -0.482 OA
ATOM     22  HXT LIG    1       -0.804   1.462   0.018  0.00  0.00    +0.295 HD
ENDBRANCH  19  21
ENDBRANCH  14  19
ENDBRANCH  13  14
ENDBRANCH   1  13
TORSDOF 8
