REMARK  Name = ZINC03123708
REMARK                            x       y       z     vdW  Elec       q    Type
REMARK                         _______ _______ _______ _____ _____    ______ ____
ROOT
ATOM      1  C   LIG    1        7.340   1.457   0.740  0.00  0.00    +0.115 C 
ATOM      2  C   LIG    1        7.121  -0.044   0.930  0.00  0.00    +0.050 C 
ATOM      3  C   LIG    1        6.314  -0.581  -0.259  0.00  0.00    +0.081 C 
ATOM      4  C   LIG    1        7.038  -0.253  -1.567  0.00  0.00    +0.028 C 
ATOM      5  N   LIG    1        4.998   0.072  -0.241  0.00  0.00    -0.264 N 
ATOM      6  C   LIG    1        3.875  -0.645  -0.440  0.00  0.00    +0.251 C 
ATOM      7  O   LIG    1        2.797  -0.085  -0.489  0.00  0.00    -0.270 OA
ATOM      8  C   LIG    1        4.931   1.454  -0.019  0.00  0.00    +0.042 A 
ATOM      9  C   LIG    1        3.740   2.123  -0.267  0.00  0.00    +0.024 A 
ATOM     10  C   LIG    1        3.652   3.483  -0.045  0.00  0.00    +0.002 A 
ATOM     11  C   LIG    1        4.750   4.177   0.428  0.00  0.00    +0.000 A 
ATOM     12  C   LIG    1        5.935   3.513   0.679  0.00  0.00    +0.007 A 
ATOM     13  C   LIG    1        6.032   2.149   0.459  0.00  0.00    -0.005 A 
ENDROOT
BRANCH   6  14
ATOM     14  C   LIG    1        3.953  -2.113  -0.597  0.00  0.00    +0.037 A 
ATOM     15  C   LIG    1        2.901  -2.921  -0.162  0.00  0.00    +0.013 A 
ATOM     16  C   LIG    1        2.980  -4.290  -0.313  0.00  0.00    +0.001 A 
ATOM     17  C   LIG    1        4.098  -4.862  -0.893  0.00  0.00    +0.000 A 
ATOM     18  C   LIG    1        5.144  -4.066  -1.327  0.00  0.00    +0.001 A 
ATOM     19  C   LIG    1        5.078  -2.696  -1.182  0.00  0.00    +0.013 A 
ENDBRANCH   6  14
BRANCH   1  21
ATOM     20  C   LIG    1        7.304   1.867   3.142  0.00  0.00    +0.220 C 
ATOM     21  N   LIG    1        7.931   2.017   1.958  0.00  0.00    -0.264 N 
ATOM     22  O   LIG    1        6.210   1.346   3.187  0.00  0.00    -0.275 OA
BRANCH  21  23
ATOM     23  C   LIG    1        9.146   2.709   1.892  0.00  0.00    +0.037 A 
ATOM     24  C   LIG    1        9.227   4.017   2.349  0.00  0.00    +0.023 A 
ATOM     25  C   LIG    1       10.430   4.695   2.289  0.00  0.00    +0.002 A 
ATOM     26  C   LIG    1       11.548   4.075   1.762  0.00  0.00    +0.000 A 
ATOM     27  C   LIG    1       11.469   2.774   1.301  0.00  0.00    +0.002 A 
ATOM     28  C   LIG    1       10.271   2.089   1.364  0.00  0.00    +0.023 A 
ENDBRANCH  21  23
BRANCH  20  29
ATOM     29  C   LIG    1        7.964   2.347   4.410  0.00  0.00    +0.096 C 
BRANCH  29  30
ATOM     30  C   LIG    1        7.111   1.940   5.613  0.00  0.00    +0.009 C 
BRANCH  30  32
ATOM     31  C   LIG    1        6.928   2.019   8.104  0.00  0.00    +0.004 C 
ATOM     32  C   LIG    1        7.780   2.426   6.900  0.00  0.00    -0.003 C 
ENDBRANCH  30  32
ENDBRANCH  29  30
ENDBRANCH  20  29
ENDBRANCH   1  21
TORSDOF 6
