REMARK  Name = ZINC03252138
REMARK                            x       y       z     vdW  Elec       q    Type
REMARK                         _______ _______ _______ _____ _____    ______ ____
ROOT
ATOM      1  N   LIG    1        2.872  -0.138   2.484  0.00  0.00    -0.285 N 
ATOM      2  C   LIG    1        2.196  -0.338   1.300  0.00  0.00    +0.096 C 
ATOM      3  C   LIG    1        0.866  -0.765   1.371  0.00  0.00    +0.241 C 
ATOM      4  S   LIG    1        0.613  -0.871   3.135  0.00  0.00    -0.022 S 
ATOM      5  O   LIG    1        0.082  -1.004   0.464  0.00  0.00    -0.278 OA
ATOM      6  C   LIG    1        2.823  -0.121   0.059  0.00  0.00    +0.004 A 
ATOM      7  C   LIG    1        2.146   0.560  -0.984  0.00  0.00    +0.031 A 
ATOM      8  C   LIG    1        2.775   0.753  -2.162  0.00  0.00    +0.017 A 
ATOM      9  C   LIG    1        2.064   1.475  -3.278  0.00  0.00    +0.063 C 
ATOM     10  N   LIG    1        4.044   0.303  -2.354  0.00  0.00    -0.341 N 
ATOM     11  C   LIG    1        4.720  -0.353  -1.373  0.00  0.00    +0.017 A 
ATOM     12  C   LIG    1        6.124  -0.835  -1.629  0.00  0.00    +0.063 C 
ATOM     13  C   LIG    1        4.147  -0.572  -0.170  0.00  0.00    +0.031 A 
ATOM     14  C   LIG    1        2.242  -0.362   3.658  0.00  0.00    +0.121 C 
ATOM     15  S   LIG    1        2.852  -0.197   5.249  0.00  0.00    -0.027 S 
ENDROOT
BRANCH   1  17
ATOM     16  C   LIG    1        4.321   1.823   2.681  0.00  0.00    +0.025 C 
ATOM     17  C   LIG    1        4.268   0.308   2.470  0.00  0.00    +0.109 C 
ENDBRANCH   1  17
BRANCH  10  18
ATOM     18  C   LIG    1        4.697   0.529  -3.646  0.00  0.00    +0.195 C 
BRANCH  18  19
ATOM     19  C   LIG    1        5.345   1.890  -3.650  0.00  0.00    +0.124 A 
ATOM     20  C   LIG    1        6.606   2.162  -3.268  0.00  0.00    +0.046 A 
ATOM     21  C   LIG    1        6.792   3.554  -3.433  0.00  0.00    +0.041 A 
ATOM     22  C   LIG    1        5.634   4.049  -3.905  0.00  0.00    +0.195 A 
ATOM     23  O   LIG    1        4.763   3.036  -4.040  0.00  0.00    -0.466 OA
ENDBRANCH  18  19
ENDBRANCH  10  18
TORSDOF 3
