REMARK  Name = ZINC02539830
REMARK                            x       y       z     vdW  Elec       q    Type
REMARK                         _______ _______ _______ _____ _____    ______ ____
ROOT
ATOM      1  C   LIG    1        0.674  -0.662  -1.074  0.00  0.00    +0.348 C 
ATOM      2  C   LIG    1        2.177  -0.361  -0.992  0.00  0.00    +0.321 C 
ATOM      3  O   LIG    1        2.357   1.055  -1.096  0.00  0.00    -0.481 OA
ATOM      4  C   LIG    1        1.664   1.689  -2.082  0.00  0.00    +0.162 A 
ATOM      5  C   LIG    1        2.051   2.961  -2.475  0.00  0.00    +0.049 A 
ATOM      6  C   LIG    1        1.355   3.619  -3.472  0.00  0.00    +0.004 A 
ATOM      7  C   LIG    1        0.272   3.011  -4.079  0.00  0.00    +0.004 A 
ATOM      8  C   LIG    1       -0.118   1.742  -3.692  0.00  0.00    +0.049 A 
ATOM      9  C   LIG    1        0.577   1.076  -2.694  0.00  0.00    +0.166 A 
ATOM     10  O   LIG    1        0.187  -0.176  -2.330  0.00  0.00    -0.444 OA
ENDROOT
BRANCH   1  11
ATOM     11  C   LIG    1        0.447  -2.149  -0.982  0.00  0.00    +0.316 C 
ATOM     12  N   LIG    1        1.420  -2.997  -0.749  0.00  0.00    -0.270 N 
ATOM     13  H   LIG    1        2.352  -2.761  -0.619  0.00  0.00    +0.304 HD
ATOM     14  C   LIG    1        0.876  -4.364  -0.718  0.00  0.00    +0.276 C 
ATOM     15  C   LIG    1       -0.629  -4.151  -0.982  0.00  0.00    +0.268 C 
ATOM     16  N   LIG    1       -0.741  -2.690  -1.123  0.00  0.00    -0.231 N 
ATOM     17  H   LIG    1       -1.562  -2.204  -1.294  0.00  0.00    +0.291 HD
ENDBRANCH   1  11
BRANCH   1  19
ATOM     18  C   LIG    1       -1.432  -0.090  -0.083  0.00  0.00    +0.199 C 
ATOM     19  O   LIG    1       -0.008  -0.003  -0.005  0.00  0.00    -0.331 OA
ENDBRANCH   1  19
TORSDOF 2
