REMARK  Name = ZINC02815633
REMARK                            x       y       z     vdW  Elec       q    Type
REMARK                         _______ _______ _______ _____ _____    ______ ____
ROOT
ATOM      1  C   LIG    1        0.174  -4.848   1.138  0.00  0.00    +0.135 C 
ATOM      2  S   LIG    1        0.171  -4.005   2.628  0.00  0.00    -0.019 S 
ENDROOT
BRANCH   1   3
ATOM      3  N   LIG    1        0.058  -4.169  -0.021  0.00  0.00    -0.297 N 
ATOM      4  H   LIG    1       -0.021  -4.651  -0.859  0.00  0.00    +0.154 HD
BRANCH   3   9
ATOM      5  C   LIG    1        0.030   1.503   0.005  0.00  0.00    +0.044 C 
ATOM      6  C   LIG    1        0.037  -0.004  -0.002  0.00  0.00    -0.050 A 
ATOM      7  C   LIG    1        0.923  -0.693   0.806  0.00  0.00    +0.005 A 
ATOM      8  C   LIG    1        0.932  -2.074   0.802  0.00  0.00    +0.023 A 
ATOM      9  C   LIG    1        0.051  -2.771  -0.014  0.00  0.00    +0.033 A 
ATOM     10  C   LIG    1       -0.838  -2.075  -0.824  0.00  0.00    +0.023 A 
ATOM     11  C   LIG    1       -0.846  -0.694  -0.811  0.00  0.00    +0.005 A 
ENDBRANCH   3   9
ENDBRANCH   1   3
BRANCH   1  12
ATOM     12  N   LIG    1        0.294  -6.191   1.123  0.00  0.00    -0.326 N 
ATOM     13  H   LIG    1        0.296  -6.668   0.279  0.00  0.00    +0.148 HD
BRANCH  12  14
ATOM     14  C   LIG    1        0.420  -6.928   2.382  0.00  0.00    +0.105 C 
BRANCH  14  15
ATOM     15  C   LIG    1        0.540  -8.425   2.087  0.00  0.00    +0.040 C 
BRANCH  15  16
ATOM     16  C   LIG    1        0.672  -9.195   3.402  0.00  0.00    +0.124 C 
BRANCH  16  17
ATOM     17  N   LIG    1        0.786 -10.628   3.119  0.00  0.00    -0.338 N 
ATOM     18  C   LIG    1       -0.247 -11.520   3.009  0.00  0.00    +0.104 A 
ATOM     19  C   LIG    1        0.302 -12.721   2.744  0.00  0.00    +0.101 A 
ATOM     20  N   LIG    1        1.633 -12.567   2.694  0.00  0.00    -0.352 N 
ATOM     21  H   LIG    1        2.274 -13.274   2.518  0.00  0.00    +0.166 HD
ATOM     22  C   LIG    1        1.931 -11.315   2.912  0.00  0.00    +0.173 A 
ENDBRANCH  16  17
ENDBRANCH  15  16
ENDBRANCH  14  15
ENDBRANCH  12  14
ENDBRANCH   1  12
TORSDOF 7
