REMARK  Name = ZINC02997374
REMARK                            x       y       z     vdW  Elec       q    Type
REMARK                         _______ _______ _______ _____ _____    ______ ____
ROOT
ATOM      1  C   LIG    1        1.254  -7.930  -0.533  0.00  0.00    +0.121 A 
ATOM      2  C   LIG    1        0.432  -8.761   0.219  0.00  0.00    +0.045 A 
ATOM      3  C   LIG    1        0.792 -10.076   0.450  0.00  0.00    +0.004 A 
ATOM      4  C   LIG    1        1.970 -10.575  -0.063  0.00  0.00    +0.008 A 
ATOM      5  C   LIG    1        2.807  -9.747  -0.824  0.00  0.00    -0.021 A 
ATOM      6  C   LIG    1        2.436  -8.416  -1.060  0.00  0.00    +0.053 A 
ENDROOT
BRANCH   5   7
ATOM      7  C   LIG    1        4.061 -10.271  -1.372  0.00  0.00    +0.026 C 
ATOM      8  C   LIG    1        5.223  -9.536  -1.262  0.00  0.00    +0.100 C 
ATOM      9  C   LIG    1        5.295  -8.331  -0.410  0.00  0.00    +0.256 C 
ATOM     10  N   LIG    1        6.466  -7.662  -0.351  0.00  0.00    -0.236 N 
ATOM     11  H   LIG    1        6.531  -6.869   0.203  0.00  0.00    +0.159 HD
ATOM     12  C   LIG    1        7.541  -8.069  -1.042  0.00  0.00    +0.313 C 
ATOM     13  N   LIG    1        7.548  -9.150  -1.833  0.00  0.00    -0.236 N 
ATOM     14  H   LIG    1        8.363  -9.386  -2.304  0.00  0.00    +0.159 HD
ATOM     15  O   LIG    1        8.564  -7.421  -0.944  0.00  0.00    -0.252 OA
ATOM     16  O   LIG    1        4.327  -7.952   0.222  0.00  0.00    -0.270 OA
ATOM     17  C   LIG    1        6.452  -9.921  -1.986  0.00  0.00    +0.256 C 
ATOM     18  O   LIG    1        6.473 -10.902  -2.704  0.00  0.00    -0.270 OA
ENDBRANCH   5   7
BRANCH   1  19
ATOM     19  O   LIG    1        0.892  -6.638  -0.756  0.00  0.00    -0.489 OA
BRANCH  19  20
ATOM     20  C   LIG    1       -0.342  -6.202  -0.182  0.00  0.00    +0.270 C 
BRANCH  20  21
ATOM     21  C   LIG    1       -0.578  -4.733  -0.538  0.00  0.00    +0.270 C 
BRANCH  21  22
ATOM     22  O   LIG    1       -0.752  -4.607  -1.950  0.00  0.00    -0.489 OA
BRANCH  22  27
ATOM     23  C   LIG    1       -1.672   0.573  -3.961  0.00  0.00    +0.044 C 
ATOM     24  C   LIG    1       -1.426  -0.812  -3.423  0.00  0.00    -0.050 A 
ATOM     25  C   LIG    1       -1.377  -1.890  -4.288  0.00  0.00    +0.007 A 
ATOM     26  C   LIG    1       -1.152  -3.162  -3.797  0.00  0.00    +0.046 A 
ATOM     27  C   LIG    1       -0.974  -3.357  -2.436  0.00  0.00    +0.121 A 
ATOM     28  C   LIG    1       -1.023  -2.274  -1.570  0.00  0.00    +0.046 A 
ATOM     29  C   LIG    1       -1.243  -1.004  -2.066  0.00  0.00    +0.007 A 
ENDBRANCH  22  27
ENDBRANCH  21  22
ENDBRANCH  20  21
ENDBRANCH  19  20
ENDBRANCH   1  19
TORSDOF 6
