REMARK  Name = ZINC03363307
REMARK                            x       y       z     vdW  Elec       q    Type
REMARK                         _______ _______ _______ _____ _____    ______ ____
ROOT
ATOM      1  N   LIG    1        0.098  -2.778   0.086  0.00  0.00    -0.325 N 
ATOM      2  C   LIG    1        0.871  -3.179  -1.099  0.00  0.00    +0.120 C 
ATOM      3  C   LIG    1        0.719  -4.692  -1.290  0.00  0.00    +0.103 C 
ATOM      4  N   LIG    1       -0.708  -5.037  -1.333  0.00  0.00    -0.299 NA
ATOM      5  C   LIG    1       -1.372  -4.717  -0.062  0.00  0.00    +0.103 C 
ATOM      6  C   LIG    1       -1.305  -3.211   0.182  0.00  0.00    +0.120 C 
ENDROOT
BRANCH   1  12
ATOM      7  C   LIG    1        0.626  -0.619   1.042  0.00  0.00    +0.141 A 
ATOM      8  C   LIG    1        1.202   0.136   2.051  0.00  0.00    +0.047 A 
ATOM      9  C   LIG    1        1.837  -0.490   3.107  0.00  0.00    +0.004 A 
ATOM     10  C   LIG    1        1.899  -1.870   3.162  0.00  0.00    +0.002 A 
ATOM     11  C   LIG    1        1.326  -2.631   2.160  0.00  0.00    +0.027 A 
ATOM     12  C   LIG    1        0.683  -2.010   1.099  0.00  0.00    +0.072 A 
BRANCH   7  14
ATOM     13  C   LIG    1       -0.017   1.425   0.010  0.00  0.00    +0.277 C 
ATOM     14  O   LIG    1        0.002  -0.004   0.002  0.00  0.00    -0.493 OA
ENDBRANCH   7  14
ENDBRANCH   1  12
BRANCH   4  15
ATOM     15  C   LIG    1       -0.898  -6.450  -1.685  0.00  0.00    +0.088 C 
BRANCH  15  16
ATOM     16  C   LIG    1       -2.380  -6.712  -1.964  0.00  0.00    +0.056 C 
BRANCH  16  17
ATOM     17  C   LIG    1       -2.577  -8.184  -2.331  0.00  0.00    +0.230 C 
BRANCH  17  18
ATOM     18  O   LIG    1       -3.961  -8.428  -2.592  0.00  0.00    -0.492 OA
BRANCH  18  19
ATOM     19  C   LIG    1       -4.310  -9.696  -2.934  0.00  0.00    +0.121 A 
ATOM     20  C   LIG    1       -3.341 -10.686  -3.012  0.00  0.00    +0.048 A 
ATOM     21  C   LIG    1       -3.697 -11.974  -3.361  0.00  0.00    +0.042 A 
ATOM     22  C   LIG    1       -5.020 -12.278  -3.632  0.00  0.00    +0.124 A 
ATOM     23  F   LIG    1       -5.367 -13.539  -3.973  0.00  0.00    -0.205 F 
ATOM     24  C   LIG    1       -5.989 -11.291  -3.555  0.00  0.00    +0.042 A 
ATOM     25  C   LIG    1       -5.636 -10.003  -3.201  0.00  0.00    +0.048 A 
ENDBRANCH  18  19
ENDBRANCH  17  18
ENDBRANCH  16  17
ENDBRANCH  15  16
ENDBRANCH   4  15
TORSDOF 7
