REMARK  Name = ZINC02539418
REMARK                            x       y       z     vdW  Elec       q    Type
REMARK                         _______ _______ _______ _____ _____    ______ ____
ROOT
ATOM      1  C   LIG    1        0.638   3.964   3.542  0.00  0.00    +0.041 A 
ATOM      2  C   LIG    1        0.561   4.684   4.717  0.00  0.00    +0.024 A 
ATOM      3  C   LIG    1        0.419   6.064   4.699  0.00  0.00    +0.011 A 
ATOM      4  C   LIG    1        0.352   6.755   3.499  0.00  0.00    -0.009 A 
ATOM      5  C   LIG    1        0.428   6.043   2.277  0.00  0.00    -0.006 A 
ATOM      6  C   LIG    1        0.364   6.708   1.044  0.00  0.00    +0.009 A 
ATOM      7  C   LIG    1        0.442   5.993  -0.113  0.00  0.00    +0.003 A 
ATOM      8  C   LIG    1        0.589   4.608  -0.090  0.00  0.00    +0.030 A 
ATOM      9  C   LIG    1        0.649   3.930   1.089  0.00  0.00    +0.126 A 
ATOM     10  C   LIG    1        0.573   4.635   2.301  0.00  0.00    +0.031 A 
ENDROOT
BRANCH   4  11
ATOM     11  C   LIG    1        0.201   8.225   3.495  0.00  0.00    -0.009 A 
ATOM     12  C   LIG    1        1.208   9.031   4.003  0.00  0.00    +0.011 A 
ATOM     13  C   LIG    1        1.078  10.412   4.005  0.00  0.00    +0.024 A 
ATOM     14  C   LIG    1       -0.055  11.019   3.502  0.00  0.00    +0.041 A 
ATOM     15  C   LIG    1       -1.101  10.229   2.977  0.00  0.00    +0.031 A 
ATOM     16  C   LIG    1       -2.265  10.817   2.458  0.00  0.00    +0.126 A 
ATOM     17  C   LIG    1       -3.255  10.026   1.959  0.00  0.00    +0.030 A 
ATOM     18  C   LIG    1       -3.130   8.639   1.955  0.00  0.00    +0.003 A 
ATOM     19  C   LIG    1       -2.013   8.036   2.450  0.00  0.00    +0.009 A 
ATOM     20  C   LIG    1       -0.972   8.819   2.967  0.00  0.00    -0.006 A 
BRANCH  16  21
ATOM     21  S   LIG    1       -2.446  12.570   2.455  0.00  0.00    +0.110 S 
ATOM     22  O   LIG    1       -3.671  12.850   1.792  0.00  0.00    -0.142 OA
ATOM     23  O   LIG    1       -1.204  13.105   2.018  0.00  0.00    -0.142 OA
BRANCH  21  24
ATOM     24  O   LIG    1       -2.623  13.007   3.902  0.00  0.00    -0.250 OA
ATOM     25  H   LIG    1       -1.806  12.833   4.395  0.00  0.00    +0.245 HD
ENDBRANCH  21  24
ENDBRANCH  16  21
BRANCH  14  26
ATOM     26  N   LIG    1       -0.167  12.407   3.513  0.00  0.00    -0.314 N 
ATOM     27  H   LIG    1       -1.062  12.883   3.941  0.00  0.00    +0.152 HD
BRANCH  26  28
ATOM     28  C   LIG    1        0.856  13.195   2.982  0.00  0.00    +0.031 A 
ATOM     29  C   LIG    1        1.883  12.605   2.255  0.00  0.00    +0.023 A 
ATOM     30  C   LIG    1        2.890  13.387   1.726  0.00  0.00    +0.002 A 
ATOM     31  C   LIG    1        2.885  14.755   1.929  0.00  0.00    +0.000 A 
ATOM     32  C   LIG    1        1.867  15.345   2.657  0.00  0.00    +0.002 A 
ATOM     33  C   LIG    1        0.854  14.570   3.184  0.00  0.00    +0.023 A 
ENDBRANCH  26  28
ENDBRANCH  14  26
ENDBRANCH   4  11
BRANCH   9  34
ATOM     34  S   LIG    1        0.830   2.177   1.095  0.00  0.00    +0.110 S 
ATOM     35  O   LIG    1       -0.068   1.680   2.077  0.00  0.00    -0.142 OA
ATOM     36  O   LIG    1        0.781   1.760  -0.263  0.00  0.00    -0.142 OA
BRANCH  34  37
ATOM     37  O   LIG    1        2.234   1.871   1.594  0.00  0.00    -0.250 OA
ATOM     38  H   LIG    1        2.884   2.195   0.951  0.00  0.00    +0.245 HD
ENDBRANCH  34  37
ENDBRANCH   9  34
BRANCH   1  39
ATOM     39  N   LIG    1        0.780   2.579   3.579  0.00  0.00    -0.314 N 
ATOM     40  H   LIG    1        1.582   2.092   3.005  0.00  0.00    +0.152 HD
BRANCH  39  44
ATOM     41  C   LIG    1       -1.830   0.280   5.868  0.00  0.00    +0.000 A 
ATOM     42  C   LIG    1       -0.698  -0.298   5.324  0.00  0.00    +0.002 A 
ATOM     43  C   LIG    1        0.170   0.461   4.564  0.00  0.00    +0.023 A 
ATOM     44  C   LIG    1       -0.095   1.807   4.347  0.00  0.00    +0.031 A 
ATOM     45  C   LIG    1       -1.230   2.386   4.901  0.00  0.00    +0.023 A 
ATOM     46  C   LIG    1       -2.097   1.620   5.655  0.00  0.00    +0.002 A 
ENDBRANCH  39  44
ENDBRANCH   1  39
TORSDOF 9
