REMARK  Name = ZINC03276773
REMARK                            x       y       z     vdW  Elec       q    Type
REMARK                         _______ _______ _______ _____ _____    ______ ____
ROOT
ATOM      1  S   LIG    1        0.063  -4.530  -0.023  0.00  0.00    +0.155 S 
ATOM      2  O   LIG    1       -0.490  -4.937  -1.267  0.00  0.00    -0.132 OA
ATOM      3  O   LIG    1       -0.476  -4.950   1.223  0.00  0.00    -0.132 OA
ENDROOT
BRANCH   1   8
ATOM      4  C   LIG    1       -0.018   1.503   0.010  0.00  0.00    +0.044 C 
ATOM      5  C   LIG    1        0.002  -0.004   0.002  0.00  0.00    -0.050 A 
ATOM      6  C   LIG    1        0.006  -0.689  -1.199  0.00  0.00    +0.005 A 
ATOM      7  C   LIG    1        0.025  -2.071  -1.206  0.00  0.00    +0.030 A 
ATOM      8  C   LIG    1        0.040  -2.768  -0.013  0.00  0.00    +0.127 A 
ATOM      9  C   LIG    1        0.037  -2.084   1.188  0.00  0.00    +0.030 A 
ATOM     10  C   LIG    1        0.023  -0.702   1.195  0.00  0.00    +0.005 A 
ENDBRANCH   1   8
BRANCH   1  11
ATOM     11  N   LIG    1        1.651  -4.999  -0.034  0.00  0.00    +0.061 NA
ATOM     12  C   LIG    1        1.956  -6.267  -0.043  0.00  0.00    +0.403 C 
BRANCH  12  13
ATOM     13  N   LIG    1        3.275  -6.656  -0.052  0.00  0.00    -0.288 N 
ATOM     14  H   LIG    1        3.502  -7.599  -0.059  0.00  0.00    +0.255 HD
ATOM     15  H   LIG    1        3.978  -5.988  -0.052  0.00  0.00    +0.255 HD
ENDBRANCH  12  13
BRANCH  12  16
ATOM     16  N   LIG    1        0.960  -7.214  -0.042  0.00  0.00    -0.288 N 
ATOM     17  H   LIG    1        1.187  -8.157  -0.049  0.00  0.00    +0.255 HD
ATOM     18  H   LIG    1        0.029  -6.939  -0.036  0.00  0.00    +0.255 HD
ENDBRANCH  12  16
ENDBRANCH   1  11
TORSDOF 4
