REMARK  Name = ZINC02504724
REMARK                            x       y       z     vdW  Elec       q    Type
REMARK                         _______ _______ _______ _____ _____    ______ ____
ROOT
ATOM      1  C   LIG    1        1.253  -2.157  -0.021  0.00  0.00    +0.233 C 
ATOM      2  O   LIG    1        0.580  -2.087  -1.029  0.00  0.00    -0.283 OA
ENDROOT
BRANCH   1   9
ATOM      3  C   LIG    1       -0.487  -0.939   1.278  0.00  0.00    +0.014 A 
ATOM      4  C   LIG    1       -0.968  -0.443   2.469  0.00  0.00    +0.039 A 
ATOM      5  C   LIG    1       -0.246  -0.623   3.641  0.00  0.00    +0.123 A 
ATOM      6  F   LIG    1       -0.723  -0.134   4.806  0.00  0.00    -0.205 F 
ATOM      7  C   LIG    1        0.964  -1.302   3.620  0.00  0.00    +0.039 A 
ATOM      8  C   LIG    1        1.456  -1.802   2.435  0.00  0.00    +0.014 A 
ATOM      9  C   LIG    1        0.733  -1.625   1.250  0.00  0.00    +0.026 A 
ENDBRANCH   1   9
BRANCH   1  10
ATOM     10  C   LIG    1        2.606  -2.781  -0.070  0.00  0.00    +0.233 C 
ATOM     11  O   LIG    1        3.599  -2.083  -0.042  0.00  0.00    -0.283 OA
BRANCH  10  12
ATOM     12  C   LIG    1        2.739  -4.246  -0.152  0.00  0.00    +0.026 A 
ATOM     13  C   LIG    1        1.600  -5.049  -0.284  0.00  0.00    +0.014 A 
ATOM     14  C   LIG    1        1.731  -6.417  -0.366  0.00  0.00    +0.039 A 
ATOM     15  C   LIG    1        2.989  -7.001  -0.305  0.00  0.00    +0.123 A 
ATOM     16  F   LIG    1        3.111  -8.345  -0.381  0.00  0.00    -0.205 F 
ATOM     17  C   LIG    1        4.122  -6.212  -0.168  0.00  0.00    +0.039 A 
ATOM     18  C   LIG    1        4.005  -4.842  -0.091  0.00  0.00    +0.014 A 
ENDBRANCH  10  12
ENDBRANCH   1  10
TORSDOF 3
