REMARK  Name = ZINC02997374
REMARK                            x       y       z     vdW  Elec       q    Type
REMARK                         _______ _______ _______ _____ _____    ______ ____
ROOT
ATOM      1  C   LIG    1        1.244  -7.924  -0.584  0.00  0.00    +0.121 A 
ATOM      2  C   LIG    1        0.424  -8.743   0.184  0.00  0.00    +0.045 A 
ATOM      3  C   LIG    1        0.789 -10.052   0.443  0.00  0.00    +0.004 A 
ATOM      4  C   LIG    1        1.969 -10.557  -0.059  0.00  0.00    +0.008 A 
ATOM      5  C   LIG    1        2.804  -9.741  -0.835  0.00  0.00    -0.021 A 
ATOM      6  C   LIG    1        2.429  -8.417  -1.100  0.00  0.00    +0.053 A 
ENDROOT
BRANCH   5   7
ATOM      7  C   LIG    1        4.060 -10.271  -1.371  0.00  0.00    +0.026 C 
ATOM      8  C   LIG    1        5.225  -9.534  -1.260  0.00  0.00    +0.096 C 
ATOM      9  C   LIG    1        5.298  -8.333  -0.412  0.00  0.00    +0.218 C 
ATOM     10  N   LIG    1        6.442  -7.674  -0.351  0.00  0.00    -0.127 NA
ATOM     11  C   LIG    1        7.519  -8.062  -1.029  0.00  0.00    +0.333 C 
ATOM     12  N   LIG    1        7.547  -9.141  -1.825  0.00  0.00    -0.234 N 
ATOM     13  H   LIG    1        8.367  -9.368  -2.292  0.00  0.00    +0.159 HD
ATOM     14  O   LIG    1        8.537  -7.402  -0.920  0.00  0.00    -0.250 OA
ATOM     15  C   LIG    1        6.455  -9.919  -1.984  0.00  0.00    +0.256 C 
ATOM     16  O   LIG    1        6.481 -10.901  -2.701  0.00  0.00    -0.270 OA
BRANCH   9  17
ATOM     17  O   LIG    1        4.222  -7.915   0.288  0.00  0.00    -0.493 OA
ATOM     18  H   LIG    1        3.417  -8.390   0.236  0.00  0.00    +0.294 HD
ENDBRANCH   9  17
ENDBRANCH   5   7
BRANCH   1  19
ATOM     19  O   LIG    1        0.878  -6.639  -0.833  0.00  0.00    -0.489 OA
BRANCH  19  20
ATOM     20  C   LIG    1       -0.358  -6.196  -0.270  0.00  0.00    +0.270 C 
BRANCH  20  21
ATOM     21  C   LIG    1       -0.600  -4.735  -0.656  0.00  0.00    +0.270 C 
BRANCH  21  22
ATOM     22  O   LIG    1       -0.773  -4.638  -2.071  0.00  0.00    -0.489 OA
BRANCH  22  27
ATOM     23  C   LIG    1       -1.710   0.496  -4.187  0.00  0.00    +0.044 C 
ATOM     24  C   LIG    1       -1.459  -0.877  -3.621  0.00  0.00    -0.050 A 
ATOM     25  C   LIG    1       -1.405  -1.972  -4.464  0.00  0.00    +0.007 A 
ATOM     26  C   LIG    1       -1.175  -3.232  -3.947  0.00  0.00    +0.046 A 
ATOM     27  C   LIG    1       -0.998  -3.399  -2.582  0.00  0.00    +0.121 A 
ATOM     28  C   LIG    1       -1.052  -2.299  -1.738  0.00  0.00    +0.046 A 
ATOM     29  C   LIG    1       -1.277  -1.040  -2.260  0.00  0.00    +0.007 A 
ENDBRANCH  22  27
ENDBRANCH  21  22
ENDBRANCH  20  21
ENDBRANCH  19  20
ENDBRANCH   1  19
TORSDOF 7
