REMARK  Name = ZINC03142780
REMARK                            x       y       z     vdW  Elec       q    Type
REMARK                         _______ _______ _______ _____ _____    ______ ____
ROOT
ATOM      1  C   LIG    1        8.818  -3.443   1.316  0.00  0.00    +0.193 C 
ATOM      2  O   LIG    1        8.871  -3.391   2.528  0.00  0.00    -0.287 OA
ENDROOT
BRANCH   1   8
ATOM      3  N   LIG    1        4.930  -1.624  -2.938  0.00  0.00    -0.202 N 
ATOM      4  C   LIG    1        4.592  -1.123  -1.736  0.00  0.00    +0.258 C 
ATOM      5  C   LIG    1        5.573  -1.599  -0.735  0.00  0.00    +0.050 A 
ATOM      6  C   LIG    1        5.727  -1.410   0.630  0.00  0.00    +0.014 A 
ATOM      7  C   LIG    1        6.782  -2.011   1.295  0.00  0.00    +0.012 A 
ATOM      8  C   LIG    1        7.693  -2.806   0.597  0.00  0.00    +0.023 A 
ATOM      9  C   LIG    1        7.544  -3.001  -0.780  0.00  0.00    +0.025 A 
ATOM     10  C   LIG    1        6.489  -2.402  -1.446  0.00  0.00    +0.050 A 
ATOM     11  O   LIG    1        3.641  -0.403  -1.510  0.00  0.00    -0.269 OA
ATOM     12  C   LIG    1        6.031  -2.391  -2.851  0.00  0.00    +0.258 C 
ATOM     13  O   LIG    1        6.562  -2.976  -3.774  0.00  0.00    -0.269 OA
BRANCH   3  17
ATOM     14  C   LIG    1        2.824  -0.907  -6.468  0.00  0.00    +0.001 A 
ATOM     15  C   LIG    1        2.494  -1.986  -5.663  0.00  0.00    +0.002 A 
ATOM     16  C   LIG    1        3.189  -2.225  -4.495  0.00  0.00    +0.025 A 
ATOM     17  C   LIG    1        4.227  -1.384  -4.118  0.00  0.00    +0.058 A 
ATOM     18  C   LIG    1        4.565  -0.290  -4.931  0.00  0.00    +0.081 A 
ATOM     19  C   LIG    1        3.851  -0.061  -6.111  0.00  0.00    +0.017 A 
BRANCH  18  20
ATOM     20  C   LIG    1        5.663   0.610  -4.542  0.00  0.00    +0.339 C 
ATOM     21  O   LIG    1        5.954   1.561  -5.253  0.00  0.00    -0.245 OA
BRANCH  20  22
ATOM     22  O   LIG    1        6.284   0.406  -3.508  0.00  0.00    -0.477 OA
ATOM     23  H   LIG    1        6.061  -0.324  -2.964  0.00  0.00    +0.295 HD
ENDBRANCH  20  22
ENDBRANCH  18  20
ENDBRANCH   3  17
ENDBRANCH   1   8
BRANCH   1  24
ATOM     24  C   LIG    1        9.877  -4.143   0.558  0.00  0.00    +0.023 A 
ATOM     25  C   LIG    1       10.483  -5.280   1.096  0.00  0.00    +0.012 A 
ATOM     26  C   LIG    1       11.475  -5.941   0.393  0.00  0.00    +0.014 A 
ATOM     27  C   LIG    1       11.870  -5.473  -0.851  0.00  0.00    +0.050 A 
ATOM     28  C   LIG    1       11.263  -4.325  -1.400  0.00  0.00    +0.050 A 
ATOM     29  C   LIG    1       11.912  -4.111  -2.710  0.00  0.00    +0.258 C 
ATOM     30  N   LIG    1       12.831  -5.075  -2.897  0.00  0.00    -0.202 N 
ATOM     31  O   LIG    1       11.659  -3.214  -3.489  0.00  0.00    -0.269 OA
ATOM     32  C   LIG    1       12.870  -5.917  -1.848  0.00  0.00    +0.258 C 
ATOM     33  O   LIG    1       13.601  -6.880  -1.739  0.00  0.00    -0.269 OA
ATOM     34  C   LIG    1       10.267  -3.667  -0.699  0.00  0.00    +0.025 A 
BRANCH  30  35
ATOM     35  C   LIG    1       13.638  -5.187  -4.028  0.00  0.00    +0.058 A 
ATOM     36  C   LIG    1       14.875  -4.558  -4.068  0.00  0.00    +0.025 A 
ATOM     37  C   LIG    1       15.672  -4.671  -5.189  0.00  0.00    +0.002 A 
ATOM     38  C   LIG    1       15.248  -5.410  -6.282  0.00  0.00    +0.001 A 
ATOM     39  C   LIG    1       14.024  -6.042  -6.261  0.00  0.00    +0.017 A 
ATOM     40  C   LIG    1       13.207  -5.942  -5.130  0.00  0.00    +0.081 A 
BRANCH  40  41
ATOM     41  C   LIG    1       11.901  -6.620  -5.099  0.00  0.00    +0.339 C 
ATOM     42  O   LIG    1       11.529  -7.277  -6.061  0.00  0.00    -0.245 OA
BRANCH  41  43
ATOM     43  O   LIG    1       11.187  -6.526  -4.109  0.00  0.00    -0.477 OA
ATOM     44  H   LIG    1       11.472  -6.022  -3.372  0.00  0.00    +0.295 HD
ENDBRANCH  41  43
ENDBRANCH  40  41
ENDBRANCH  30  35
ENDBRANCH   1  24
TORSDOF 8
