REMARK  Name = ZINC02581406
REMARK                            x       y       z     vdW  Elec       q    Type
REMARK                         _______ _______ _______ _____ _____    ______ ____
ROOT
ATOM      1  C   LIG    1        0.051  -2.662   2.448  0.00  0.00    -0.041 C 
ATOM      2  C   LIG    1        0.063  -3.213   3.484  0.00  0.00    -0.060 C 
ENDROOT
BRANCH   1   8
ATOM      3  C   LIG    1       -0.018   1.503   0.010  0.00  0.00    +0.065 C 
ATOM      4  C   LIG    1        0.002  -0.004   0.002  0.00  0.00    +0.040 A 
ATOM      5  C   LIG    1        0.006  -0.679  -1.205  0.00  0.00    +0.023 A 
ATOM      6  C   LIG    1        0.025  -2.067  -1.211  0.00  0.00    +0.004 A 
ATOM      7  C   LIG    1        0.040  -2.733   0.002  0.00  0.00    +0.037 A 
ATOM      8  C   LIG    1        0.035  -1.988   1.184  0.00  0.00    +0.114 A 
ATOM      9  N   LIG    1        0.022  -0.659   1.144  0.00  0.00    -0.244 NA
ENDBRANCH   1   8
BRANCH   2  10
ATOM     10  C   LIG    1        0.078  -3.886   4.748  0.00  0.00    +0.025 A 
ATOM     11  C   LIG    1        0.103  -5.282   4.800  0.00  0.00    +0.017 A 
ATOM     12  C   LIG    1        0.117  -5.924   6.021  0.00  0.00    +0.001 A 
ATOM     13  C   LIG    1        0.107  -5.188   7.193  0.00  0.00    +0.000 A 
ATOM     14  C   LIG    1        0.082  -3.805   7.149  0.00  0.00    +0.001 A 
ATOM     15  C   LIG    1        0.073  -3.150   5.936  0.00  0.00    +0.017 A 
ENDBRANCH   2  10
TORSDOF 2
