REMARK  Name = ZINC02689672
REMARK                            x       y       z     vdW  Elec       q    Type
REMARK                         _______ _______ _______ _____ _____    ______ ____
ROOT
ATOM      1  C   LIG    1        4.219  -1.887  -0.841  0.00  0.00    +0.138 C 
ATOM      2  N   LIG    1        3.920  -0.714  -0.016  0.00  0.00    -0.272 N 
ATOM      3  C   LIG    1        2.688  -0.103  -0.197  0.00  0.00    +0.045 A 
ATOM      4  C   LIG    1        1.581  -0.934  -0.381  0.00  0.00    +0.025 A 
ATOM      5  C   LIG    1        0.325  -0.401  -0.569  0.00  0.00    +0.017 A 
ATOM      6  C   LIG    1        0.148   0.974  -0.579  0.00  0.00    +0.019 A 
ATOM      7 BR   LIG    1       -1.575   1.704  -0.848  0.00  0.00    -0.050 Br
ATOM      8  C   LIG    1        1.228   1.808  -0.400  0.00  0.00    +0.027 A 
ATOM      9  C   LIG    1        2.513   1.279  -0.205  0.00  0.00    +0.023 A 
ATOM     10  C   LIG    1        3.621   2.229  -0.015  0.00  0.00    +0.075 C 
ATOM     11  N   LIG    1        4.582   2.080   0.827  0.00  0.00    -0.273 NA
ATOM     12  C   LIG    1        4.670   0.910   1.698  0.00  0.00    +0.238 C 
ATOM     13  C   LIG    1        4.851  -0.318   0.848  0.00  0.00    +0.241 C 
ATOM     14  O   LIG    1        5.872  -0.964   0.953  0.00  0.00    -0.273 OA
ENDROOT
BRANCH  10  15
ATOM     15  C   LIG    1        3.630   3.449  -0.857  0.00  0.00    +0.001 A 
ATOM     16  C   LIG    1        2.960   3.460  -2.080  0.00  0.00    +0.010 A 
ATOM     17  C   LIG    1        2.968   4.600  -2.857  0.00  0.00    +0.001 A 
ATOM     18  C   LIG    1        3.648   5.727  -2.430  0.00  0.00    +0.000 A 
ATOM     19  C   LIG    1        4.319   5.720  -1.220  0.00  0.00    +0.001 A 
ATOM     20  C   LIG    1        4.314   4.588  -0.432  0.00  0.00    +0.010 A 
ENDBRANCH  10  15
TORSDOF 1
