REMARK  Name = ZINC02574122
REMARK                            x       y       z     vdW  Elec       q    Type
REMARK                         _______ _______ _______ _____ _____    ______ ____
ROOT
ATOM      1  C   LIG    1        2.504  -0.326  -0.019  0.00  0.00    +0.009 A 
ATOM      2  C   LIG    1        3.712  -0.993  -0.040  0.00  0.00    +0.013 A 
ATOM      3  C   LIG    1        4.898  -0.281  -0.048  0.00  0.00    +0.055 A 
ATOM      4  C   LIG    1        4.880   1.102  -0.040  0.00  0.00    +0.013 A 
ATOM      5  C   LIG    1        3.678   1.779  -0.024  0.00  0.00    +0.009 A 
ATOM      6  C   LIG    1        2.480   1.067  -0.016  0.00  0.00    -0.018 A 
ENDROOT
BRANCH   6   7
ATOM      7  C   LIG    1        1.185   1.790   0.000  0.00  0.00    -0.018 A 
ATOM      8  C   LIG    1       -0.013   1.076   0.008  0.00  0.00    +0.010 A 
ATOM      9  C   LIG    1       -1.215   1.749   0.017  0.00  0.00    +0.023 A 
ATOM     10  C   LIG    1       -1.235   3.139   0.031  0.00  0.00    +0.025 A 
ATOM     11  C   LIG    1       -0.042   3.853   0.023  0.00  0.00    +0.023 A 
ATOM     12  C   LIG    1        1.163   3.183   0.008  0.00  0.00    +0.010 A 
BRANCH  10  13
ATOM     13  N   LIG    1       -2.454   3.819   0.047  0.00  0.00    -0.358 N 
ATOM     14  H   LIG    1       -3.286   3.322   0.053  0.00  0.00    +0.142 HD
ATOM     15  H   LIG    1       -2.468   4.789   0.052  0.00  0.00    +0.142 HD
ENDBRANCH  10  13
ENDBRANCH   6   7
BRANCH   3  16
ATOM     16  C   LIG    1        6.214  -1.016  -0.065  0.00  0.00    +0.417 C 
ATOM     17  F   LIG    1        7.171  -0.241  -0.729  0.00  0.00    -0.166 F 
ATOM     18  F   LIG    1        6.058  -2.236  -0.730  0.00  0.00    -0.166 F 
ATOM     19  F   LIG    1        6.634  -1.250   1.249  0.00  0.00    -0.166 F 
ENDBRANCH   3  16
TORSDOF 3
