REMARK  Name = ZINC02539631
REMARK                            x       y       z     vdW  Elec       q    Type
REMARK                         _______ _______ _______ _____ _____    ______ ____
ROOT
ATOM      1  C   LIG    1       -0.017   1.389   0.010  0.00  0.00    +0.030 A 
ATOM      2  C   LIG    1        1.184   2.096   0.002  0.00  0.00    +0.061 A 
ATOM      3  C   LIG    1        2.398   1.404  -0.014  0.00  0.00    +0.044 A 
ATOM      4  C   LIG    1        2.410   0.024  -0.021  0.00  0.00    +0.118 A 
ATOM      5  C   LIG    1        1.223  -0.683  -0.013  0.00  0.00    +0.044 A 
ATOM      6  C   LIG    1        0.002  -0.004   0.002  0.00  0.00    +0.061 A 
ENDROOT
BRANCH   4   7
ATOM      7  S   LIG    1        3.945  -0.841  -0.040  0.00  0.00    +0.110 S 
ATOM      8  O   LIG    1        3.693  -2.128   0.506  0.00  0.00    -0.142 OA
ATOM      9  O   LIG    1        4.915   0.043   0.506  0.00  0.00    -0.142 OA
BRANCH   7  10
ATOM     10  O   LIG    1        4.323  -1.054  -1.499  0.00  0.00    -0.250 OA
ATOM     11  H   LIG    1        4.505  -0.196  -1.914  0.00  0.00    +0.245 HD
ENDBRANCH   7  10
ENDBRANCH   4   7
BRANCH   2  12
ATOM     12  C   LIG    1        1.174   3.574   0.010  0.00  0.00    +0.337 C 
ATOM     13  O   LIG    1        2.222   4.188   0.003  0.00  0.00    -0.245 OA
BRANCH  12  14
ATOM     14  O   LIG    1        0.003   4.239   0.024  0.00  0.00    -0.477 OA
ATOM     15  H   LIG    1       -0.805   3.765   0.029  0.00  0.00    +0.295 HD
ENDBRANCH  12  14
ENDBRANCH   2  12
BRANCH   6  16
ATOM     16  C   LIG    1       -1.266  -0.762   0.010  0.00  0.00    +0.337 C 
ATOM     17  O   LIG    1       -1.248  -1.976   0.003  0.00  0.00    -0.245 OA
BRANCH  16  18
ATOM     18  O   LIG    1       -2.443  -0.106   0.024  0.00  0.00    -0.477 OA
ATOM     19  H   LIG    1       -2.457   0.831   0.029  0.00  0.00    +0.295 HD
ENDBRANCH  16  18
ENDBRANCH   6  16
TORSDOF 6
