REMARK  Name = ZINC02477291
REMARK                            x       y       z     vdW  Elec       q    Type
REMARK                         _______ _______ _______ _____ _____    ______ ____
ROOT
ATOM      1  N   LIG    1        0.055  -3.118   2.081  0.00  0.00    -0.279 N 
ATOM      2  H   LIG    1        0.055  -2.848   3.013  0.00  0.00    +0.155 HD
ATOM      3  C   LIG    1        0.072  -4.427   1.760  0.00  0.00    +0.219 C 
ATOM      4  O   LIG    1        0.072  -4.765   0.595  0.00  0.00    -0.275 OA
ENDROOT
BRANCH   1  10
ATOM      5  C   LIG    1       -0.018   1.503   0.010  0.00  0.00    +0.045 C 
ATOM      6  C   LIG    1        0.002  -0.004   0.002  0.00  0.00    -0.025 A 
ATOM      7  C   LIG    1        0.007  -0.712  -1.142  0.00  0.00    -0.008 A 
ATOM      8  C   LIG    1       -0.007  -0.199  -2.559  0.00  0.00    +0.052 C 
ATOM      9  S   LIG    1        0.033  -2.400  -0.580  0.00  0.00    -0.078 S 
ATOM     10  C   LIG    1        0.037  -2.159   1.081  0.00  0.00    +0.086 A 
ATOM     11  C   LIG    1        0.024  -0.778   1.223  0.00  0.00    +0.091 A 
BRANCH  11  12
ATOM     12  C   LIG    1        0.028  -0.139   2.540  0.00  0.00    +0.342 C 
ATOM     13  O   LIG    1       -1.024   0.112   3.097  0.00  0.00    -0.245 OA
BRANCH  12  14
ATOM     14  O   LIG    1        1.198   0.171   3.136  0.00  0.00    -0.464 OA
ATOM     15  C   LIG    1        1.127   0.793   4.420  0.00  0.00    +0.280 C 
ENDBRANCH  12  14
ENDBRANCH  11  12
ENDBRANCH   1  10
BRANCH   3  16
ATOM     16  C   LIG    1        0.092  -5.470   2.847  0.00  0.00    +0.120 C 
BRANCH  16  17
ATOM     17  C   LIG    1        0.109  -6.864   2.217  0.00  0.00    +0.149 C 
ATOM     18  C   LIG    1        0.100  -7.950   3.281  0.00  0.00    +0.232 C 
ATOM     19  N   LIG    1        1.157  -8.743   3.303  0.00  0.00    -0.264 N 
ATOM     20  H   LIG    1        1.196  -9.451   3.966  0.00  0.00    +0.157 HD
ATOM     21  C   LIG    1        2.208  -8.601   2.419  0.00  0.00    +0.153 C 
ATOM     22  N   LIG    1        3.296  -9.313   2.341  0.00  0.00    -0.280 NA
ATOM     23  H   LIG    1        3.439 -10.049   2.957  0.00  0.00    +0.189 HD
ATOM     24  O   LIG    1       -0.820  -8.080   4.060  0.00  0.00    -0.274 OA
ATOM     25  S   LIG    1        1.725  -7.209   1.406  0.00  0.00    -0.078 S 
ENDBRANCH  16  17
ENDBRANCH   3  16
TORSDOF 5
