REMARK  Name = ZINC03135687
REMARK                            x       y       z     vdW  Elec       q    Type
REMARK                         _______ _______ _______ _____ _____    ______ ____
ROOT
ATOM      1  C   LIG    1       -0.017   1.376   0.010  0.00  0.00    +0.001 A 
ATOM      2  C   LIG    1        1.172   2.086   0.002  0.00  0.00    +0.002 A 
ATOM      3  C   LIG    1        2.385   1.427  -0.013  0.00  0.00    +0.024 A 
ATOM      4  C   LIG    1        2.424   0.037  -0.021  0.00  0.00    +0.043 A 
ATOM      5  C   LIG    1        1.219  -0.677  -0.014  0.00  0.00    +0.028 A 
ATOM      6  C   LIG    1        1.583  -2.113  -0.025  0.00  0.00    +0.152 C 
ATOM      7  C   LIG    1        3.060  -2.131  -0.039  0.00  0.00    +0.269 C 
ATOM      8  O   LIG    1        3.764  -3.123  -0.051  0.00  0.00    -0.268 OA
ATOM      9  N   LIG    1        0.772  -3.143  -0.023  0.00  0.00    -0.175 NA
ATOM     10  N   LIG    1        3.488  -0.857  -0.036  0.00  0.00    -0.280 N 
ATOM     11  H   LIG    1        4.422  -0.595  -0.044  0.00  0.00    +0.155 HD
ATOM     12  C   LIG    1        0.002  -0.004   0.002  0.00  0.00    +0.012 A 
ENDROOT
BRANCH   9  13
ATOM     13  N   LIG    1        1.292  -4.444  -0.035  0.00  0.00    -0.206 N 
ATOM     14  H   LIG    1        2.252  -4.582  -0.044  0.00  0.00    +0.177 HD
ATOM     15  C   LIG    1        0.458  -5.503  -0.032  0.00  0.00    +0.237 C 
ATOM     16  O   LIG    1       -0.742  -5.329  -0.020  0.00  0.00    -0.274 OA
BRANCH  15  17
ATOM     17  C   LIG    1        1.017  -6.902  -0.045  0.00  0.00    +0.132 C 
BRANCH  17  18
ATOM     18  C   LIG    1       -0.116  -7.896  -0.040  0.00  0.00    -0.037 A 
ATOM     19  C   LIG    1       -0.628  -8.353   1.160  0.00  0.00    +0.004 A 
ATOM     20  C   LIG    1       -1.667  -9.265   1.166  0.00  0.00    +0.002 A 
ATOM     21  C   LIG    1       -2.195  -9.719  -0.028  0.00  0.00    +0.020 A 
ATOM     22  C   LIG    1       -1.683  -9.262  -1.229  0.00  0.00    +0.041 A 
ATOM     23 CL   LIG    1       -2.345  -9.832  -2.729  0.00  0.00    -0.084 Cl
ATOM     24  C   LIG    1       -0.647  -8.345  -1.234  0.00  0.00    +0.024 A 
ENDBRANCH  17  18
ENDBRANCH  15  17
ENDBRANCH   9  13
TORSDOF 3
