REMARK  Name = ZINC02683996
REMARK                            x       y       z     vdW  Elec       q    Type
REMARK                         _______ _______ _______ _____ _____    ______ ____
ROOT
ATOM      1  C   LIG    1       -0.014  -1.237   4.715  0.00  0.00    +0.081 C 
ATOM      2  C   LIG    1       -0.037   0.102   5.457  0.00  0.00    +0.010 C 
ATOM      3  C   LIG    1       -0.785  -0.062   6.781  0.00  0.00    +0.009 C 
ATOM      4  C   LIG    1       -0.076  -1.110   7.642  0.00  0.00    -0.010 C 
ATOM      5  C   LIG    1        1.358  -0.655   7.919  0.00  0.00    +0.007 C 
ATOM      6  C   LIG    1        2.107  -0.492   6.595  0.00  0.00    -0.010 C 
ATOM      7  C   LIG    1        2.130  -1.830   5.854  0.00  0.00    +0.009 C 
ATOM      8  C   LIG    1       -0.053  -2.448   6.900  0.00  0.00    +0.009 C 
ATOM      9  C   LIG    1        1.397   0.556   5.734  0.00  0.00    +0.009 C 
ATOM     10  C   LIG    1        0.695  -2.284   5.576  0.00  0.00    +0.010 C 
ENDROOT
BRANCH   1  14
ATOM     11  N   LIG    1        0.711  -0.489   1.189  0.00  0.00    -0.297 N 
ATOM     12  H   LIG    1        1.654  -0.707   1.135  0.00  0.00    +0.150 HD
ATOM     13  C   LIG    1        0.051  -0.633   2.355  0.00  0.00    +0.300 C 
ATOM     14  N   LIG    1        0.703  -1.080   3.447  0.00  0.00    -0.296 N 
ATOM     15  H   LIG    1        1.647  -1.298   3.394  0.00  0.00    +0.151 HD
ATOM     16  O   LIG    1       -1.132  -0.361   2.423  0.00  0.00    -0.253 OA
BRANCH  11  18
ATOM     17  C   LIG    1       -0.019   1.526   0.010  0.00  0.00    +0.027 C 
ATOM     18  C   LIG    1        0.002  -0.004   0.002  0.00  0.00    +0.068 C 
ATOM     19  C   LIG    1        0.718  -0.497  -1.257  0.00  0.00    +0.027 C 
ENDBRANCH  11  18
ENDBRANCH   1  14
TORSDOF 2
