REMARK  Name = ZINC03350769
REMARK                            x       y       z     vdW  Elec       q    Type
REMARK                         _______ _______ _______ _____ _____    ______ ____
ROOT
ATOM      1  C   LIG    1       -1.301   1.931   0.019  0.00  0.00    +0.059 A 
ATOM      2  C   LIG    1       -1.322   3.329   0.032  0.00  0.00    +0.017 A 
ATOM      3  C   LIG    1       -2.525   3.998   0.036  0.00  0.00    +0.027 A 
ATOM      4  C   LIG    1       -3.720   3.284   0.037  0.00  0.00    +0.057 A 
ATOM      5  C   LIG    1       -3.703   1.891   0.030  0.00  0.00    +0.027 A 
ATOM      6  C   LIG    1       -2.503   1.217   0.021  0.00  0.00    +0.017 A 
ENDROOT
BRANCH   4   7
ATOM      7  N   LIG    1       -4.935   3.963   0.046  0.00  0.00    -0.246 N 
ATOM      8  C   LIG    1       -5.175   5.202   0.504  0.00  0.00    +0.270 A 
ATOM      9  C   LIG    1       -6.532   5.729   0.418  0.00  0.00    +0.055 A 
ATOM     10  C   LIG    1       -7.043   6.981   0.821  0.00  0.00    +0.014 A 
ATOM     11  C   LIG    1       -8.359   7.280   0.647  0.00  0.00    +0.001 A 
ATOM     12  C   LIG    1       -9.239   6.371   0.075  0.00  0.00    +0.001 A 
ATOM     13  C   LIG    1       -8.777   5.135  -0.331  0.00  0.00    +0.017 A 
ATOM     14  C   LIG    1       -7.444   4.821  -0.162  0.00  0.00    +0.042 A 
ATOM     15  O   LIG    1       -4.277   5.873   0.983  0.00  0.00    -0.266 OA
ATOM     16  S   LIG    1       -6.442   3.406  -0.529  0.00  0.00    -0.003 S 
ENDBRANCH   4   7
BRANCH   1  17
ATOM     17  C   LIG    1       -0.014   1.211   0.009  0.00  0.00    +0.339 C 
ATOM     18  O   LIG    1        0.002  -0.004   0.002  0.00  0.00    -0.245 OA
BRANCH  17  19
ATOM     19  O   LIG    1        1.143   1.901   0.001  0.00  0.00    -0.461 OA
BRANCH  19  21
ATOM     20  C   LIG    1        3.572   2.075  -0.021  0.00  0.00    +0.048 C 
ATOM     21  C   LIG    1        2.372   1.126  -0.015  0.00  0.00    +0.229 C 
ENDBRANCH  19  21
ENDBRANCH  17  19
ENDBRANCH   1  17
TORSDOF 4
