REMARK  Name = ZINC03626195
REMARK                            x       y       z     vdW  Elec       q    Type
REMARK                         _______ _______ _______ _____ _____    ______ ____
ROOT
ATOM      1  C   LIG    1        1.158   3.169   0.007  0.00  0.00    +0.000 A 
ATOM      2  C   LIG    1        1.171   1.786   0.001  0.00  0.00    +0.001 A 
ATOM      3  C   LIG    1       -0.013   1.076   0.008  0.00  0.00    +0.013 A 
ATOM      4  C   LIG    1       -1.228   1.760   0.017  0.00  0.00    +0.043 A 
ATOM      5  C   LIG    1       -1.229   3.159   0.030  0.00  0.00    -0.026 A 
ATOM      6  C   LIG    1       -2.563   3.866   0.046  0.00  0.00    +0.134 C 
ATOM      7  C   LIG    1       -3.807   3.004   0.054  0.00  0.00    +0.250 C 
ATOM      8  N   LIG    1       -3.691   1.665   0.046  0.00  0.00    -0.112 N 
ATOM      9  O   LIG    1       -4.904   3.519   0.066  0.00  0.00    -0.273 OA
ATOM     10  C   LIG    1       -2.509   1.032   0.032  0.00  0.00    +0.276 C 
ATOM     11  O   LIG    1       -2.494  -0.183   0.027  0.00  0.00    -0.267 OA
ATOM     12  C   LIG    1       -0.045   3.857   0.022  0.00  0.00    +0.005 A 
ENDROOT
BRANCH   8  13
ATOM     13  O   LIG    1       -4.873   0.886   0.054  0.00  0.00    -0.285 OA
ATOM     14  H   LIG    1       -4.715  -0.068   0.048  0.00  0.00    +0.242 HD
ENDBRANCH   8  13
TORSDOF 1
