REMARK  Name = ZINC02836013
REMARK                            x       y       z     vdW  Elec       q    Type
REMARK                         _______ _______ _______ _____ _____    ______ ____
ROOT
ATOM      1  C   LIG    1       -8.239  -0.810   2.025  0.00  0.00    +0.028 C 
ATOM      2  C   LIG    1       -8.264   0.719   1.972  0.00  0.00    +0.081 C 
ATOM      3  C   LIG    1       -9.556   1.192   1.302  0.00  0.00    +0.050 C 
ATOM      4  C   LIG    1       -9.592   2.720   1.318  0.00  0.00    +0.115 C 
ATOM      5  C   LIG    1       -8.312   3.284   0.761  0.00  0.00    -0.005 A 
ATOM      6  C   LIG    1       -8.301   4.588   0.294  0.00  0.00    +0.007 A 
ATOM      7  C   LIG    1       -7.140   5.136  -0.216  0.00  0.00    +0.000 A 
ATOM      8  C   LIG    1       -5.979   4.386  -0.263  0.00  0.00    +0.002 A 
ATOM      9  C   LIG    1       -5.982   3.086   0.201  0.00  0.00    +0.024 A 
ATOM     10  C   LIG    1       -7.149   2.531   0.713  0.00  0.00    +0.042 A 
ATOM     11  N   LIG    1       -7.132   1.208   1.174  0.00  0.00    -0.264 N 
ATOM     12  C   LIG    1       -6.096   0.396   0.885  0.00  0.00    +0.251 C 
ATOM     13  O   LIG    1       -6.006  -0.690   1.425  0.00  0.00    -0.270 OA
ENDROOT
BRANCH  12  14
ATOM     14  C   LIG    1       -5.069   0.825  -0.088  0.00  0.00    +0.037 A 
ATOM     15  C   LIG    1       -3.717   0.589   0.169  0.00  0.00    +0.013 A 
ATOM     16  C   LIG    1       -2.764   0.992  -0.743  0.00  0.00    +0.005 A 
ATOM     17  C   LIG    1       -3.145   1.631  -1.910  0.00  0.00    -0.042 A 
ATOM     18  C   LIG    1       -4.483   1.873  -2.168  0.00  0.00    +0.005 A 
ATOM     19  C   LIG    1       -5.447   1.469  -1.267  0.00  0.00    +0.013 A 
BRANCH  17  20
ATOM     20  C   LIG    1       -2.098   2.069  -2.901  0.00  0.00    -0.013 C 
ATOM     21  C   LIG    1       -2.777   2.744  -4.095  0.00  0.00    +0.015 C 
ATOM     22  C   LIG    1       -1.144   3.059  -2.231  0.00  0.00    +0.015 C 
ATOM     23  C   LIG    1       -1.311   0.850  -3.385  0.00  0.00    +0.015 C 
ENDBRANCH  17  20
ENDBRANCH  12  14
BRANCH   4  24
ATOM     24  N   LIG    1      -10.719   3.182   0.503  0.00  0.00    -0.264 N 
ATOM     25  C   LIG    1      -10.719   2.972  -0.828  0.00  0.00    +0.217 C 
ATOM     26  C   LIG    1      -11.816   3.553  -1.682  0.00  0.00    +0.109 C 
ATOM     27  O   LIG    1       -9.836   2.316  -1.338  0.00  0.00    -0.276 OA
BRANCH  24  28
ATOM     28  C   LIG    1      -11.795   3.841   1.108  0.00  0.00    +0.037 A 
ATOM     29  C   LIG    1      -11.964   5.208   0.928  0.00  0.00    +0.023 A 
ATOM     30  C   LIG    1      -13.031   5.855   1.521  0.00  0.00    +0.002 A 
ATOM     31  C   LIG    1      -13.924   5.145   2.302  0.00  0.00    +0.000 A 
ATOM     32  C   LIG    1      -13.755   3.785   2.488  0.00  0.00    +0.002 A 
ATOM     33  C   LIG    1      -12.694   3.131   1.893  0.00  0.00    +0.023 A 
ENDBRANCH  24  28
ENDBRANCH   4  24
TORSDOF 4
