REMARK  Name = ZINC02630267
REMARK                            x       y       z     vdW  Elec       q    Type
REMARK                         _______ _______ _______ _____ _____    ______ ____
ROOT
ATOM      1  C   LIG    1        2.230   4.228  -0.012  0.00  0.00    +0.041 A 
ATOM      2  C   LIG    1        3.460   3.587  -0.177  0.00  0.00    +0.013 A 
ATOM      3  C   LIG    1        3.512   2.212  -0.278  0.00  0.00    +0.004 A 
ATOM      4  C   LIG    1        2.350   1.465  -0.210  0.00  0.00    +0.046 A 
ATOM      5  C   LIG    1        1.123   2.094  -0.051  0.00  0.00    +0.129 A 
ATOM      6  C   LIG    1        1.059   3.473   0.051  0.00  0.00    +0.059 A 
ENDROOT
BRANCH   1   9
ATOM      7  N   LIG    1        3.304   6.428   0.036  0.00  0.00    -0.261 N 
ATOM      8  H   LIG    1        4.159   5.984  -0.079  0.00  0.00    +0.157 HD
ATOM      9  C   LIG    1        2.171   5.701   0.097  0.00  0.00    +0.250 C 
ATOM     10  O   LIG    1        1.099   6.257   0.241  0.00  0.00    -0.270 OA
BRANCH   7  15
ATOM     11  C   LIG    1        5.141  10.970   0.172  0.00  0.00    +0.066 C 
ATOM     12  C   LIG    1        4.006   9.979   0.215  0.00  0.00    +0.047 A 
ATOM     13  C   LIG    1        2.727  10.398   0.371  0.00  0.00    +0.071 A 
ATOM     14  S   LIG    1        1.861   8.835   0.347  0.00  0.00    -0.060 S 
ATOM     15  C   LIG    1        3.248   7.811   0.138  0.00  0.00    +0.165 A 
ATOM     16  N   LIG    1        4.236   8.685   0.107  0.00  0.00    -0.230 NA
ENDBRANCH   7  15
ENDBRANCH   1   9
BRANCH   5  17
ATOM     17  O   LIG    1       -0.016   1.355   0.009  0.00  0.00    -0.456 OA
BRANCH  17  18
ATOM     18  C   LIG    1        0.102   0.001   0.033  0.00  0.00    +0.128 A 
ATOM     19  C   LIG    1       -0.346  -0.754  -1.042  0.00  0.00    +0.046 A 
ATOM     20  C   LIG    1       -0.220  -2.130  -1.018  0.00  0.00    +0.004 A 
ATOM     21  C   LIG    1        0.342  -2.755   0.080  0.00  0.00    +0.000 A 
ATOM     22  C   LIG    1        0.784  -2.005   1.154  0.00  0.00    +0.004 A 
ATOM     23  C   LIG    1        0.665  -0.629   1.133  0.00  0.00    +0.046 A 
ENDBRANCH  17  18
ENDBRANCH   5  17
TORSDOF 4
