REMARK  Name = ZINC03242873
REMARK                            x       y       z     vdW  Elec       q    Type
REMARK                         _______ _______ _______ _____ _____    ______ ____
ROOT
ATOM      1  C   LIG    1        3.696  -0.706  -0.034  0.00  0.00    +0.292 C 
ENDROOT
BRANCH   1   5
ATOM      2  C   LIG    1       -0.039   1.365   0.042  0.00  0.00    +0.000 A 
ATOM      3  C   LIG    1        1.146   2.077   0.027  0.00  0.00    +0.000 A 
ATOM      4  C   LIG    1        2.354   1.406   0.003  0.00  0.00    +0.008 A 
ATOM      5  C   LIG    1        2.378   0.024  -0.006  0.00  0.00    +0.002 A 
ATOM      6  C   LIG    1        1.193  -0.688   0.010  0.00  0.00    +0.008 A 
ATOM      7  C   LIG    1       -0.015  -0.017   0.033  0.00  0.00    +0.000 A 
ENDBRANCH   1   5
BRANCH   1   8
ATOM      8  C   LIG    1        4.040  -1.174   1.357  0.00  0.00    +0.263 C 
ATOM      9  N   LIG    1        4.285  -0.274   2.329  0.00  0.00    -0.281 N 
ATOM     10  H   LIG    1        4.319   0.672   2.117  0.00  0.00    +0.155 HD
ATOM     11  O   LIG    1        4.097  -2.361   1.600  0.00  0.00    -0.271 OA
BRANCH   9  12
ATOM     12  C   LIG    1        4.490  -0.704   3.645  0.00  0.00    +0.053 A 
ATOM     13  C   LIG    1        3.961  -1.915   4.072  0.00  0.00    +0.037 A 
ATOM     14  C   LIG    1        4.166  -2.337   5.372  0.00  0.00    +0.057 A 
ATOM     15  C   LIG    1        4.897  -1.555   6.247  0.00  0.00    +0.014 A 
ATOM     16  C   LIG    1        5.426  -0.349   5.826  0.00  0.00    +0.022 A 
ATOM     17  C   LIG    1        5.229   0.077   4.526  0.00  0.00    +0.062 A 
ATOM     18 CL   LIG    1        5.899   1.588   3.995  0.00  0.00    -0.082 Cl
BRANCH  14  19
ATOM     19  C   LIG    1        3.592  -3.651   5.835  0.00  0.00    +0.417 C 
ATOM     20  F   LIG    1        2.416  -3.921   5.128  0.00  0.00    -0.166 F 
ATOM     21  F   LIG    1        3.308  -3.579   7.203  0.00  0.00    -0.166 F 
ATOM     22  F   LIG    1        4.520  -4.672   5.605  0.00  0.00    -0.166 F 
ENDBRANCH  14  19
ENDBRANCH   9  12
ENDBRANCH   1   8
BRANCH   1  23
ATOM     23  O   LIG    1        3.597  -1.835  -0.905  0.00  0.00    -0.446 OA
BRANCH  23  24
ATOM     24  C   LIG    1        3.911  -1.638  -2.195  0.00  0.00    +0.325 C 
ATOM     25  O   LIG    1        4.259  -0.544  -2.572  0.00  0.00    -0.249 OA
BRANCH  24  26
ATOM     26  C   LIG    1        3.830  -2.781  -3.174  0.00  0.00    +0.225 C 
BRANCH  26  27
ATOM     27  N   LIG    1        4.220  -2.313  -4.506  0.00  0.00    -0.301 N 
ATOM     28  H   LIG    1        4.476  -1.387  -4.638  0.00  0.00    +0.150 HD
ATOM     29  C   LIG    1        4.223  -3.169  -5.547  0.00  0.00    +0.245 C 
ATOM     30  O   LIG    1        3.902  -4.329  -5.381  0.00  0.00    -0.270 OA
BRANCH  29  31
ATOM     31  C   LIG    1        4.617  -2.696  -6.891  0.00  0.00    +0.037 A 
ATOM     32  C   LIG    1        4.992  -1.365  -7.085  0.00  0.00    +0.013 A 
ATOM     33  C   LIG    1        5.358  -0.931  -8.341  0.00  0.00    +0.001 A 
ATOM     34  C   LIG    1        5.355  -1.811  -9.409  0.00  0.00    +0.000 A 
ATOM     35  C   LIG    1        4.984  -3.131  -9.225  0.00  0.00    +0.001 A 
ATOM     36  C   LIG    1        4.621  -3.580  -7.972  0.00  0.00    +0.013 A 
ENDBRANCH  29  31
ENDBRANCH  26  27
ENDBRANCH  24  26
ENDBRANCH  23  24
ENDBRANCH   1  23
TORSDOF 9
