REMARK  Name = ZINC02530707
REMARK                            x       y       z     vdW  Elec       q    Type
REMARK                         _______ _______ _______ _____ _____    ______ ____
ROOT
ATOM      1  C   LIG    1       -2.537   3.096   2.897  0.00  0.00    +0.062 C 
ATOM      2  C   LIG    1       -3.905   3.423   3.498  0.00  0.00    +0.023 C 
ATOM      3  C   LIG    1       -4.957   2.477   2.914  0.00  0.00    +0.037 C 
ATOM      4  C   LIG    1       -5.005   2.642   1.396  0.00  0.00    +0.068 C 
ATOM      5  C   LIG    1       -3.638   2.328   0.789  0.00  0.00    +0.021 C 
ATOM      6  C   LIG    1       -5.407   4.086   1.045  0.00  0.00    +0.037 C 
ATOM      7  C   LIG    1       -6.746   3.930   0.283  0.00  0.00    +0.031 C 
ATOM      8  C   LIG    1       -7.223   2.530   0.748  0.00  0.00    +0.160 C 
ATOM      9  O   LIG    1       -5.998   1.769   0.840  0.00  0.00    -0.373 OA
ATOM     10  C   LIG    1       -2.589   3.275   1.378  0.00  0.00    -0.045 C 
ENDROOT
BRANCH  10  11
ATOM     11  N   LIG    1       -1.254   2.969   0.800  0.00  0.00    +0.383 N 
ATOM     12  H   LIG    1       -0.559   3.605   1.208  0.00  0.00    -0.081 HD
ATOM     13  C   LIG    1       -1.280   3.146  -0.660  0.00  0.00    -0.078 C 
ATOM     14  C   LIG    1       -0.844   1.805  -1.288  0.00  0.00    -0.020 C 
ATOM     15  C   LIG    1       -0.068   1.116  -0.135  0.00  0.00    -0.020 C 
ATOM     16  C   LIG    1       -0.876   1.573   1.105  0.00  0.00    -0.078 C 
ENDBRANCH  10  11
BRANCH   1  18
ATOM     17  C   LIG    1       -1.658   5.446   3.277  0.00  0.00    +0.132 C 
ATOM     18  N   LIG    1       -1.529   3.998   3.460  0.00  0.00    -0.303 N 
ATOM     19  C   LIG    1       -0.483   3.496   4.145  0.00  0.00    +0.220 C 
ATOM     20  O   LIG    1       -0.376   2.297   4.296  0.00  0.00    -0.275 OA
BRANCH  19  21
ATOM     21  C   LIG    1        0.554   4.423   4.724  0.00  0.00    +0.131 C 
BRANCH  21  22
ATOM     22  C   LIG    1        1.608   3.616   5.436  0.00  0.00    -0.037 A 
ATOM     23  C   LIG    1        1.464   3.322   6.780  0.00  0.00    +0.005 A 
ATOM     24  C   LIG    1        2.428   2.578   7.433  0.00  0.00    +0.022 A 
ATOM     25  C   LIG    1        3.543   2.135   6.745  0.00  0.00    +0.059 A 
ATOM     26 CL   LIG    1        4.758   1.206   7.567  0.00  0.00    -0.082 Cl
ATOM     27  C   LIG    1        3.691   2.434   5.402  0.00  0.00    +0.060 A 
ATOM     28 CL   LIG    1        5.090   1.879   4.537  0.00  0.00    -0.082 Cl
ATOM     29  C   LIG    1        2.722   3.175   4.748  0.00  0.00    +0.025 A 
ENDBRANCH  21  22
ENDBRANCH  19  21
ENDBRANCH   1  18
TORSDOF 4
