REMARK  Name = ZINC03607120
REMARK                            x       y       z     vdW  Elec       q    Type
REMARK                         _______ _______ _______ _____ _____    ______ ____
ROOT
ATOM      1  C   LIG    1       -1.963   1.907   1.065  0.00  0.00    -0.012 C 
ATOM      2  C   LIG    1       -1.341   0.606   0.553  0.00  0.00    -0.055 C 
ATOM      3  C   LIG    1       -2.376  -0.521   0.634  0.00  0.00    +0.100 C 
ATOM      4  N   LIG    1       -1.719  -1.784   0.262  0.00  0.00    -0.369 N 
ATOM      5  C   LIG    1       -2.257  -2.593  -0.655  0.00  0.00    +0.118 A 
ATOM      6  C   LIG    1       -3.091  -2.059  -1.666  0.00  0.00    +0.151 A 
ATOM      7  F   LIG    1       -3.340  -0.731  -1.700  0.00  0.00    -0.203 F 
ATOM      8  C   LIG    1       -3.641  -2.872  -2.601  0.00  0.00    +0.054 A 
ATOM      9  C   LIG    1       -3.385  -4.259  -2.571  0.00  0.00    +0.047 A 
ATOM     10  C   LIG    1       -2.551  -4.807  -1.562  0.00  0.00    +0.097 A 
ATOM     11  N   LIG    1       -2.303  -6.167  -1.538  0.00  0.00    -0.340 N 
ATOM     12  C   LIG    1       -2.838  -6.984  -2.455  0.00  0.00    +0.105 A 
ATOM     13  C   LIG    1       -3.659  -6.499  -3.460  0.00  0.00    +0.117 A 
ATOM     14  C   LIG    1       -3.947  -5.114  -3.532  0.00  0.00    +0.142 A 
ATOM     15  C   LIG    1       -1.988  -3.974  -0.615  0.00  0.00    +0.170 A 
ATOM     16  C   LIG    1       -0.454  -2.130   0.928  0.00  0.00    +0.097 C 
ATOM     17  C   LIG    1        0.490  -0.927   0.833  0.00  0.00    -0.061 C 
ATOM     18  N   LIG    1       -0.177   0.262   1.380  0.00  0.00    +0.383 N 
ATOM     19  H   LIG    1       -0.481   0.071   2.323  0.00  0.00    -0.085 HD
ATOM     20  H   LIG    1        0.470   1.036   1.387  0.00  0.00    -0.085 HD
ENDROOT
BRANCH  11  21
ATOM     21  C   LIG    1       -1.440  -6.724  -0.493  0.00  0.00    +0.088 C 
ATOM     22  C   LIG    1       -1.178  -8.231  -0.522  0.00  0.00    +0.027 C 
ATOM     23  C   LIG    1       -2.092  -7.634   0.550  0.00  0.00    +0.027 C 
ENDBRANCH  11  21
BRANCH  13  24
ATOM     24  C   LIG    1       -4.231  -7.420  -4.451  0.00  0.00    +0.342 C 
ATOM     25  O   LIG    1       -4.083  -8.628  -4.320  0.00  0.00    -0.245 OA
BRANCH  24  26
ATOM     26  O   LIG    1       -4.855  -6.980  -5.407  0.00  0.00    -0.477 OA
ATOM     27  H   LIG    1       -4.968  -6.055  -5.507  0.00  0.00    +0.295 HD
ENDBRANCH  24  26
ENDBRANCH  13  24
BRANCH  14  28
ATOM     28  O   LIG    1       -4.745  -4.625  -4.505  0.00  0.00    -0.505 OA
ATOM     29  H   LIG    1       -5.148  -5.306  -5.061  0.00  0.00    +0.292 HD
ENDBRANCH  14  28
BRANCH  15  30
ATOM     30  O   LIG    1       -1.181  -4.488   0.355  0.00  0.00    -0.491 OA
ATOM     31  C   LIG    1       -1.696  -4.501   1.688  0.00  0.00    +0.277 C 
ENDBRANCH  15  30
TORSDOF 5
