REMARK  Name = ZINC02558151
REMARK                            x       y       z     vdW  Elec       q    Type
REMARK                         _______ _______ _______ _____ _____    ______ ____
ROOT
ATOM      1  C   LIG    1       -0.554   1.476  -0.329  0.00  0.00    +0.008 C 
ATOM      2  C   LIG    1       -0.462  -0.050  -0.274  0.00  0.00    -0.007 C 
ATOM      3  C   LIG    1       -1.865  -0.633  -0.108  0.00  0.00    +0.039 C 
ATOM      4  C   LIG    1       -1.944  -1.970  -0.816  0.00  0.00    -0.032 A 
ATOM      5  C   LIG    1       -2.060  -2.034  -2.185  0.00  0.00    +0.054 A 
ATOM      6  C   LIG    1       -2.162  -3.268  -2.815  0.00  0.00    +0.170 A 
ATOM      7  C   LIG    1       -2.146  -4.437  -2.060  0.00  0.00    +0.208 A 
ATOM      8  O   LIG    1       -2.269  -5.504  -2.905  0.00  0.00    -0.449 OA
ATOM      9  C   LIG    1       -2.767  -4.958  -4.141  0.00  0.00    +0.467 C 
ATOM     10  C   LIG    1       -2.019  -4.374  -0.680  0.00  0.00    +0.173 A 
ATOM     11  O   LIG    1       -2.288  -3.601  -4.133  0.00  0.00    -0.452 OA
ATOM     12  C   LIG    1       -1.907  -3.130  -0.046  0.00  0.00    +0.035 A 
ATOM     13  C   LIG    1       -1.710  -3.063   1.415  0.00  0.00    +0.035 A 
ATOM     14  C   LIG    1       -0.576  -2.463   1.960  0.00  0.00    -0.032 A 
ATOM     15  C   LIG    1        0.505  -1.980   1.014  0.00  0.00    +0.039 C 
ATOM     16  C   LIG    1       -0.419  -2.353   3.321  0.00  0.00    +0.054 A 
ATOM     17  C   LIG    1       -1.384  -2.875   4.174  0.00  0.00    +0.165 A 
ATOM     18  C   LIG    1       -2.506  -3.506   3.649  0.00  0.00    +0.204 A 
ATOM     19  C   LIG    1       -2.675  -3.602   2.275  0.00  0.00    +0.173 A 
ATOM     20  C   LIG    1        0.433  -0.458   0.893  0.00  0.00    -0.007 C 
ATOM     21  C   LIG    1        1.841   0.095   0.665  0.00  0.00    +0.008 C 
ENDROOT
BRANCH  10  22
ATOM     22  O   LIG    1       -2.006  -5.517   0.056  0.00  0.00    -0.491 OA
ATOM     23  C   LIG    1       -0.732  -6.120   0.294  0.00  0.00    +0.277 C 
ENDBRANCH  10  22
BRANCH  17  24
ATOM     24  O   LIG    1       -1.231  -2.768   5.521  0.00  0.00    -0.491 OA
ATOM     25  C   LIG    1       -0.054  -2.106   5.990  0.00  0.00    +0.277 C 
ENDBRANCH  17  24
BRANCH  18  26
ATOM     26  O   LIG    1       -3.441  -4.032   4.485  0.00  0.00    -0.488 OA
ATOM     27  C   LIG    1       -4.440  -3.140   4.985  0.00  0.00    +0.277 C 
ENDBRANCH  18  26
BRANCH  19  28
ATOM     28  O   LIG    1       -3.775  -4.216   1.765  0.00  0.00    -0.491 OA
ATOM     29  C   LIG    1       -4.877  -3.381   1.404  0.00  0.00    +0.277 C 
ENDBRANCH  19  28
TORSDOF 4
