REMARK  Name = ZINC02516018
REMARK                            x       y       z     vdW  Elec       q    Type
REMARK                         _______ _______ _______ _____ _____    ______ ____
ROOT
ATOM      1  C   LIG    1        2.105  -3.548  -0.045  0.00  0.00    +0.146 A 
ATOM      2  C   LIG    1        2.706  -4.008   1.207  0.00  0.00    +0.087 A 
ATOM      3  C   LIG    1        2.523  -3.652   2.525  0.00  0.00    +0.031 A 
ATOM      4  C   LIG    1        3.387  -4.445   3.288  0.00  0.00    +0.020 A 
ATOM      5  C   LIG    1        4.068  -5.255   2.439  0.00  0.00    +0.092 A 
ATOM      6  N   LIG    1        3.664  -5.000   1.170  0.00  0.00    -0.311 N 
ATOM      7  C   LIG    1        4.028  -5.533  -0.064  0.00  0.00    +0.072 A 
ATOM      8  C   LIG    1        4.988  -6.532  -0.137  0.00  0.00    +0.029 A 
ATOM      9  C   LIG    1        5.345  -7.058  -1.362  0.00  0.00    +0.014 A 
ATOM     10  C   LIG    1        4.750  -6.593  -2.525  0.00  0.00    +0.057 A 
ATOM     11  C   LIG    1        3.796  -5.602  -2.472  0.00  0.00    +0.042 A 
ATOM     12  C   LIG    1        3.422  -5.058  -1.237  0.00  0.00    +0.090 A 
ATOM     13  N   LIG    1        2.475  -4.083  -1.187  0.00  0.00    -0.228 NA
ENDROOT
BRANCH   1  19
ATOM     14  C   LIG    1       -0.186   1.319  -0.885  0.00  0.00    -0.096 C 
ATOM     15  N   LIG    1       -0.080  -0.075  -0.433  0.00  0.00    +0.380 N 
ATOM     16  H   LIG    1       -0.948  -0.355  -0.002  0.00  0.00    -0.082 HD
ATOM     17  C   LIG    1        0.191  -0.943  -1.587  0.00  0.00    -0.060 C 
ATOM     18  C   LIG    1        0.188  -2.407  -1.135  0.00  0.00    +0.088 C 
ATOM     19  N   LIG    1        1.144  -2.555  -0.027  0.00  0.00    -0.317 N 
ATOM     20  C   LIG    1        1.048  -1.616   1.101  0.00  0.00    +0.088 C 
ATOM     21  C   LIG    1        1.010  -0.189   0.544  0.00  0.00    -0.060 C 
ENDBRANCH   1  19
BRANCH  10  22
ATOM     22  C   LIG    1        5.150  -7.176  -3.856  0.00  0.00    +0.417 C 
ATOM     23  F   LIG    1        5.665  -6.164  -4.673  0.00  0.00    -0.166 F 
ATOM     24  F   LIG    1        4.031  -7.748  -4.470  0.00  0.00    -0.166 F 
ATOM     25  F   LIG    1        6.127  -8.159  -3.659  0.00  0.00    -0.166 F 
ENDBRANCH  10  22
TORSDOF 2
