REMARK  Name = ZINC02940388
REMARK                            x       y       z     vdW  Elec       q    Type
REMARK                         _______ _______ _______ _____ _____    ______ ____
ROOT
ATOM      1  C   LIG    1       -0.308  -7.155   4.698  0.00  0.00    +0.233 C 
ATOM      2  N   LIG    1       -0.392  -8.500   4.691  0.00  0.00    -0.207 N 
ATOM      3  H   LIG    1       -0.389  -8.982   3.849  0.00  0.00    +0.177 HD
ATOM      4  O   LIG    1       -0.311  -6.553   5.751  0.00  0.00    -0.274 OA
ENDROOT
BRANCH   2   5
ATOM      5  N   LIG    1       -0.482  -9.203   5.900  0.00  0.00    -0.188 NA
ATOM      6  C   LIG    1       -0.562 -10.498   5.893  0.00  0.00    +0.142 C 
BRANCH   6   7
ATOM      7  C   LIG    1       -0.657 -11.237   7.164  0.00  0.00    +0.037 A 
ATOM      8  C   LIG    1       -0.738 -12.632   7.161  0.00  0.00    +0.033 A 
ATOM      9  C   LIG    1       -0.827 -13.318   8.355  0.00  0.00    +0.042 A 
ATOM     10 CL   LIG    1       -0.927 -15.051   8.352  0.00  0.00    -0.084 Cl
ATOM     11  C   LIG    1       -0.836 -12.629   9.557  0.00  0.00    +0.023 A 
ATOM     12  C   LIG    1       -0.757 -11.249   9.572  0.00  0.00    +0.047 A 
ATOM     13  C   LIG    1       -0.661 -10.545   8.383  0.00  0.00    +0.126 A 
BRANCH  13  14
ATOM     14  O   LIG    1       -0.578  -9.190   8.397  0.00  0.00    -0.506 OA
ATOM     15  H   LIG    1       -1.435  -8.743   8.368  0.00  0.00    +0.292 HD
ENDBRANCH  13  14
ENDBRANCH   6   7
ENDBRANCH   2   5
BRANCH   1  16
ATOM     16  C   LIG    1       -0.211  -6.399   3.398  0.00  0.00    +0.107 C 
BRANCH  16  17
ATOM     17  C   LIG    1       -0.129  -4.898   3.686  0.00  0.00    +0.105 C 
BRANCH  17  20
ATOM     18  N   LIG    1        0.052  -2.797   2.393  0.00  0.00    -0.285 N 
ATOM     19  H   LIG    1        0.127  -2.321   3.234  0.00  0.00    +0.155 HD
ATOM     20  C   LIG    1       -0.031  -4.143   2.385  0.00  0.00    +0.218 C 
ATOM     21  O   LIG    1       -0.028  -4.745   1.333  0.00  0.00    -0.275 OA
BRANCH  18  27
ATOM     22  C   LIG    1        1.524   1.061  -0.275  0.00  0.00    +0.044 C 
ATOM     23  C   LIG    1        0.735  -0.215  -0.134  0.00  0.00    -0.049 A 
ATOM     24  C   LIG    1       -0.011  -0.687  -1.199  0.00  0.00    +0.003 A 
ATOM     25  C   LIG    1       -0.736  -1.857  -1.074  0.00  0.00    +0.002 A 
ATOM     26  C   LIG    1       -0.717  -2.559   0.116  0.00  0.00    +0.023 A 
ATOM     27  C   LIG    1        0.031  -2.089   1.186  0.00  0.00    +0.034 A 
ATOM     28  C   LIG    1        0.763  -0.915   1.056  0.00  0.00    +0.026 A 
ENDBRANCH  18  27
ENDBRANCH  17  20
ENDBRANCH  16  17
ENDBRANCH   1  16
TORSDOF 7
