REMARK  Name = ZINC02571868
REMARK                            x       y       z     vdW  Elec       q    Type
REMARK                         _______ _______ _______ _____ _____    ______ ____
ROOT
ATOM      1  C   LIG    1       -0.017   1.414   0.010  0.00  0.00    +0.030 A 
ATOM      2  C   LIG    1        1.159   2.104   0.002  0.00  0.00    +0.030 A 
ATOM      3  C   LIG    1        2.371   1.426  -0.013  0.00  0.00    +0.105 A 
ATOM      4  C   LIG    1        2.406   0.037  -0.022  0.00  0.00    +0.030 A 
ATOM      5  C   LIG    1        1.248  -0.682  -0.014  0.00  0.00    +0.030 A 
ATOM      6  C   LIG    1        0.002  -0.004   0.002  0.00  0.00    +0.074 A 
ENDROOT
BRANCH   3   7
ATOM      7  S   LIG    1        3.879   2.337  -0.024  0.00  0.00    +0.056 S 
ATOM      8  O   LIG    1        3.578   3.615  -0.565  0.00  0.00    -0.153 OA
ATOM      9  O   LIG    1        4.865   1.483  -0.589  0.00  0.00    -0.153 OA
BRANCH   7  10
ATOM     10  N   LIG    1        4.314   2.581   1.556  0.00  0.00    -0.204 NA
ATOM     11  H   LIG    1        3.632   2.652   2.241  0.00  0.00    +0.144 HD
ATOM     12  H   LIG    1        5.252   2.653   1.795  0.00  0.00    +0.144 HD
ENDBRANCH   7  10
ENDBRANCH   3   7
BRANCH   6  13
ATOM     13  N   LIG    1       -1.132  -0.689   0.010  0.00  0.00    -0.197 NA
ATOM     14  C   LIG    1       -1.108  -1.939   0.003  0.00  0.00    +0.041 C 
ATOM     15  S   LIG    1       -1.078  -3.492  -0.006  0.00  0.00    +0.021 S 
ENDBRANCH   6  13
TORSDOF 3
