REMARK  Name = ZINC02874023
REMARK                            x       y       z     vdW  Elec       q    Type
REMARK                         _______ _______ _______ _____ _____    ______ ____
ROOT
ATOM      1  N   LIG    1        2.164   4.096   0.031  0.00  0.00    -0.340 N 
ATOM      2  C   LIG    1        1.145   3.160   0.044  0.00  0.00    +0.050 A 
ATOM      3  C   LIG    1        1.152   1.769   0.046  0.00  0.00    +0.026 A 
ATOM      4  C   LIG    1       -0.038   1.073   0.060  0.00  0.00    +0.002 A 
ATOM      5  C   LIG    1       -1.249   1.748   0.067  0.00  0.00    +0.001 A 
ATOM      6  C   LIG    1       -1.276   3.126   0.071  0.00  0.00    +0.010 A 
ATOM      7  C   LIG    1       -0.081   3.841   0.057  0.00  0.00    +0.008 A 
ATOM      8  C   LIG    1        0.239   5.281   0.051  0.00  0.00    +0.009 A 
ATOM      9  C   LIG    1       -0.541   6.434   0.057  0.00  0.00    +0.034 A 
ATOM     10  C   LIG    1        0.069   7.676   0.049  0.00  0.00    +0.034 A 
ATOM     11  C   LIG    1        1.458   7.771   0.032  0.00  0.00    +0.025 A 
ATOM     12  C   LIG    1        2.236   6.634   0.025  0.00  0.00    +0.028 A 
ATOM     13  C   LIG    1        1.638   5.378   0.035  0.00  0.00    +0.050 A 
ENDROOT
BRANCH  10  14
ATOM     14  N   LIG    1       -0.711   8.840   0.056  0.00  0.00    -0.278 N 
ATOM     15  H   LIG    1       -0.405   9.627   0.534  0.00  0.00    +0.155 HD
ATOM     16  C   LIG    1       -1.888   8.867  -0.602  0.00  0.00    +0.321 C 
ATOM     17  O   LIG    1       -2.310   7.859  -1.129  0.00  0.00    -0.266 OA
BRANCH  16  18
ATOM     18  C   LIG    1       -2.677  10.148  -0.681  0.00  0.00    +0.470 C 
ATOM     19  F   LIG    1       -1.911  11.129  -1.320  0.00  0.00    -0.162 F 
ATOM     20  F   LIG    1       -3.002  10.576   0.610  0.00  0.00    -0.162 F 
ATOM     21  F   LIG    1       -3.852   9.927  -1.409  0.00  0.00    -0.162 F 
ENDBRANCH  16  18
ENDBRANCH  10  14
BRANCH   1  23
ATOM     22  C   LIG    1        4.075   3.665  -1.433  0.00  0.00    +0.027 C 
ATOM     23  C   LIG    1        3.594   3.777   0.015  0.00  0.00    +0.119 C 
ENDBRANCH   1  23
TORSDOF 3
