REMARK  Name = ZINC02712357
REMARK                            x       y       z     vdW  Elec       q    Type
REMARK                         _______ _______ _______ _____ _____    ______ ____
ROOT
ATOM      1  C   LIG    1       -3.754  -4.476   0.845  0.00  0.00    +0.130 A 
ATOM      2  C   LIG    1       -4.828  -3.762   1.342  0.00  0.00    +0.046 A 
ATOM      3  C   LIG    1       -5.820  -4.395   2.079  0.00  0.00    +0.004 A 
ATOM      4  C   LIG    1       -5.757  -5.747   2.331  0.00  0.00    +0.014 A 
ATOM      5  C   LIG    1       -4.684  -6.492   1.840  0.00  0.00    +0.050 A 
ATOM      6  C   LIG    1       -4.566  -7.935   2.079  0.00  0.00    +0.260 A 
ATOM      7  O   LIG    1       -5.417  -8.524   2.721  0.00  0.00    -0.267 OA
ATOM      8  N   LIG    1       -3.515  -8.604   1.565  0.00  0.00    -0.306 N 
ATOM      9  C   LIG    1       -2.539  -7.981   0.840  0.00  0.00    +0.090 A 
ATOM     10  C   LIG    1       -2.565  -6.664   0.580  0.00  0.00    +0.030 A 
ATOM     11  C   LIG    1       -3.674  -5.853   1.085  0.00  0.00    +0.030 A 
ENDROOT
BRANCH   1  12
ATOM     12  O   LIG    1       -2.788  -3.848   0.125  0.00  0.00    -0.477 OA
BRANCH  12  13
ATOM     13  C   LIG    1       -2.879  -2.426   0.019  0.00  0.00    +0.278 C 
ATOM     14  C   LIG    1       -3.814  -2.060  -1.136  0.00  0.00    +0.064 C 
BRANCH  13  15
ATOM     15  C   LIG    1       -1.510  -1.853  -0.242  0.00  0.00    +0.348 C 
ATOM     16  O   LIG    1       -0.569  -2.591  -0.418  0.00  0.00    -0.247 OA
BRANCH  15  17
ATOM     17  O   LIG    1       -1.335  -0.523  -0.280  0.00  0.00    -0.462 OA
BRANCH  17  19
ATOM     18  C   LIG    1       -0.008   1.480  -0.537  0.00  0.00    +0.048 C 
ATOM     19  C   LIG    1       -0.010  -0.050  -0.532  0.00  0.00    +0.229 C 
ENDBRANCH  17  19
ENDBRANCH  15  17
ENDBRANCH  13  15
ENDBRANCH  12  13
ENDBRANCH   1  12
BRANCH   8  20
ATOM     20  C   LIG    1       -3.409 -10.045   1.802  0.00  0.00    +0.220 C 
BRANCH  20  21
ATOM     21  C   LIG    1       -2.646 -10.289   3.079  0.00  0.00    +0.233 C 
ATOM     22  N   LIG    1       -2.425 -11.550   3.501  0.00  0.00    -0.314 N 
ATOM     23  H   LIG    1       -2.756 -12.300   2.983  0.00  0.00    +0.149 HD
ATOM     24  O   LIG    1       -2.232  -9.351   3.726  0.00  0.00    -0.274 OA
BRANCH  22  25
ATOM     25  C   LIG    1       -1.683 -11.787   4.742  0.00  0.00    +0.109 C 
BRANCH  25  26
ATOM     26  C   LIG    1       -1.572 -13.292   4.990  0.00  0.00    +0.054 C 
BRANCH  26  27
ATOM     27  C   LIG    1       -0.809 -13.536   6.267  0.00  0.00    -0.046 A 
ATOM     28  C   LIG    1        0.567 -13.669   6.235  0.00  0.00    +0.004 A 
ATOM     29  C   LIG    1        1.267 -13.893   7.406  0.00  0.00    +0.000 A 
ATOM     30  C   LIG    1        0.591 -13.983   8.608  0.00  0.00    +0.000 A 
ATOM     31  C   LIG    1       -0.784 -13.849   8.640  0.00  0.00    +0.000 A 
ATOM     32  C   LIG    1       -1.484 -13.621   7.470  0.00  0.00    +0.004 A 
ENDBRANCH  26  27
ENDBRANCH  25  26
ENDBRANCH  22  25
ENDBRANCH  20  21
ENDBRANCH   8  20
TORSDOF 10
