REMARK  Name = ZINC03596264
REMARK                            x       y       z     vdW  Elec       q    Type
REMARK                         _______ _______ _______ _____ _____    ______ ____
ROOT
ATOM      1  N   LIG    1        0.738  -1.962  -1.265  0.00  0.00    -0.311 N 
ATOM      2  C   LIG    1        1.795  -2.622  -0.670  0.00  0.00    +0.056 A 
ATOM      3  C   LIG    1        2.829  -1.911  -0.070  0.00  0.00    +0.026 A 
ATOM      4  C   LIG    1        3.876  -2.585   0.519  0.00  0.00    +0.002 A 
ATOM      5  C   LIG    1        3.913  -3.972   0.521  0.00  0.00    +0.001 A 
ATOM      6  C   LIG    1        2.900  -4.695  -0.067  0.00  0.00    +0.014 A 
ATOM      7  C   LIG    1        1.833  -4.026  -0.667  0.00  0.00    +0.046 A 
ATOM      8  C   LIG    1        0.731  -4.769  -1.307  0.00  0.00    +0.208 A 
ATOM      9  O   LIG    1        0.723  -5.988  -1.328  0.00  0.00    -0.286 OA
ATOM     10  C   LIG    1       -0.321  -4.019  -1.898  0.00  0.00    +0.174 A 
ATOM     11  C   LIG    1       -0.283  -2.631  -1.850  0.00  0.00    +0.212 A 
ENDROOT
BRANCH  10  12
ATOM     12  C   LIG    1       -1.447  -4.708  -2.550  0.00  0.00    +0.358 C 
ATOM     13  N   LIG    1       -2.373  -3.968  -3.075  0.00  0.00    +0.096 NA
ATOM     14  S   LIG    1       -3.686  -4.650  -3.823  0.00  0.00    +0.183 S 
ATOM     15  C   LIG    1       -3.692  -6.346  -3.340  0.00  0.00    +0.179 A 
ATOM     16  C   LIG    1       -4.803  -7.134  -3.544  0.00  0.00    +0.035 A 
ATOM     17  C   LIG    1       -4.785  -8.462  -3.155  0.00  0.00    +0.002 A 
ATOM     18  C   LIG    1       -3.655  -8.995  -2.563  0.00  0.00    +0.004 A 
ATOM     19  C   LIG    1       -2.539  -8.208  -2.357  0.00  0.00    +0.051 A 
ATOM     20  C   LIG    1       -2.550  -6.874  -2.748  0.00  0.00    +0.148 A 
ATOM     21  O   LIG    1       -3.425  -4.618  -5.220  0.00  0.00    -0.125 OA
ATOM     22  O   LIG    1       -4.841  -4.056  -3.247  0.00  0.00    -0.125 OA
ATOM     23  N   LIG    1       -1.426  -6.073  -2.556  0.00  0.00    -0.196 N 
ATOM     24  H   LIG    1       -0.560  -6.521  -2.417  0.00  0.00    +0.299 HD
ENDBRANCH  10  12
BRANCH  11  25
ATOM     25  O   LIG    1       -1.290  -1.930  -2.409  0.00  0.00    -0.493 OA
ATOM     26  H   LIG    1       -1.278  -0.993  -2.385  0.00  0.00    +0.294 HD
ENDBRANCH  11  25
BRANCH   1  27
ATOM     27  C   LIG    1        0.718  -0.497  -1.257  0.00  0.00    +0.125 C 
BRANCH  27  29
ATOM     28  C   LIG    1       -0.019   1.526   0.010  0.00  0.00    +0.005 C 
ATOM     29  C   LIG    1        0.002  -0.004   0.002  0.00  0.00    +0.018 C 
ENDBRANCH  27  29
ENDBRANCH   1  27
TORSDOF 4
