REMARK  Name = ZINC03076473
REMARK                            x       y       z     vdW  Elec       q    Type
REMARK                         _______ _______ _______ _____ _____    ______ ____
ROOT
ATOM      1  N   LIG    1        0.039  -4.180  -0.013  0.00  0.00    -0.155 N 
ATOM      2  C   LIG    1       -0.034  -4.877  -1.197  0.00  0.00    +0.383 C 
ATOM      3  N   LIG    1        0.568  -6.049  -1.277  0.00  0.00    -0.012 NA
ATOM      4  C   LIG    1        1.216  -6.567  -0.220  0.00  0.00    +0.384 C 
ATOM      5  N   LIG    1        1.079  -6.077   0.983  0.00  0.00    -0.241 N 
ATOM      6  H   LIG    1        1.587  -6.455   1.718  0.00  0.00    +0.261 HD
ATOM      7  C   LIG    1        0.168  -4.958   1.229  0.00  0.00    +0.336 C 
ENDROOT
BRANCH   1  12
ATOM      8  C   LIG    1       -0.130   1.489   0.076  0.00  0.00    +0.044 C 
ATOM      9  C   LIG    1       -0.085  -0.017   0.053  0.00  0.00    -0.050 A 
ATOM     10  C   LIG    1       -1.202  -0.734  -0.335  0.00  0.00    +0.006 A 
ATOM     11  C   LIG    1       -1.164  -2.115  -0.358  0.00  0.00    +0.040 A 
ATOM     12  C   LIG    1       -0.003  -2.782   0.009  0.00  0.00    +0.098 A 
ATOM     13  C   LIG    1        1.117  -2.058   0.398  0.00  0.00    +0.040 A 
ATOM     14  C   LIG    1        1.074  -0.678   0.414  0.00  0.00    +0.006 A 
ENDBRANCH   1  12
BRANCH   7  15
ATOM     15  C   LIG    1       -1.181  -5.489   1.639  0.00  0.00    +0.023 A 
ATOM     16  C   LIG    1       -2.327  -4.787   1.314  0.00  0.00    +0.010 A 
ATOM     17  C   LIG    1       -3.565  -5.274   1.690  0.00  0.00    +0.000 A 
ATOM     18  C   LIG    1       -3.657  -6.462   2.390  0.00  0.00    +0.000 A 
ATOM     19  C   LIG    1       -2.511  -7.164   2.715  0.00  0.00    +0.000 A 
ATOM     20  C   LIG    1       -1.274  -6.679   2.335  0.00  0.00    +0.010 A 
ENDBRANCH   7  15
BRANCH   2  21
ATOM     21  N   LIG    1       -0.714  -4.366  -2.267  0.00  0.00    -0.251 N 
ATOM     22  H   LIG    1       -0.835  -4.903  -3.066  0.00  0.00    +0.241 HD
ATOM     23  H   LIG    1       -1.076  -3.467  -2.228  0.00  0.00    +0.241 HD
ENDBRANCH   2  21
BRANCH   4  24
ATOM     24  N   LIG    1        2.051  -7.649  -0.411  0.00  0.00    -0.249 N 
ATOM     25  H   LIG    1        2.526  -8.034   0.342  0.00  0.00    +0.241 HD
ATOM     26  H   LIG    1        2.163  -8.025  -1.299  0.00  0.00    +0.241 HD
ENDBRANCH   4  24
TORSDOF 4
