REMARK  Name = ZINC03453620
REMARK                            x       y       z     vdW  Elec       q    Type
REMARK                         _______ _______ _______ _____ _____    ______ ____
ROOT
ATOM      1  N   LIG    1        6.075   0.589   2.771  0.00  0.00    -0.311 N 
ATOM      2  H   LIG    1        5.452   0.594   3.514  0.00  0.00    +0.149 HD
ATOM      3  C   LIG    1        7.403   0.570   3.005  0.00  0.00    +0.251 C 
ATOM      4  O   LIG    1        8.185   0.564   2.072  0.00  0.00    -0.270 OA
ENDROOT
BRANCH   3   5
ATOM      5  C   LIG    1        7.904   0.555   4.381  0.00  0.00    +0.076 A 
ATOM      6  C   LIG    1        9.215   0.541   4.833  0.00  0.00    +0.037 A 
ATOM      7  C   LIG    1        9.376   0.530   6.198  0.00  0.00    +0.040 A 
ATOM      8 BR   LIG    1       11.106   0.509   6.960  0.00  0.00    -0.049 Br
ATOM      9  C   LIG    1        8.274   0.534   6.991  0.00  0.00    +0.070 A 
ATOM     10 BR   LIG    1        8.203   0.521   8.881  0.00  0.00    -0.041 Br
ATOM     11  S   LIG    1        6.988   0.561   5.910  0.00  0.00    -0.076 S 
ENDBRANCH   3   5
BRANCH   1  12
ATOM     12  C   LIG    1        5.574   0.603   1.395  0.00  0.00    +0.106 C 
BRANCH  12  13
ATOM     13  C   LIG    1        4.044   0.624   1.409  0.00  0.00    +0.040 C 
BRANCH  13  14
ATOM     14  C   LIG    1        3.521   0.638  -0.028  0.00  0.00    +0.124 C 
BRANCH  14  17
ATOM     15  C   LIG    1       -0.016   1.337   0.009  0.00  0.00    +0.101 A 
ATOM     16  C   LIG    1        1.259   1.771  -0.000  0.00  0.00    +0.104 A 
ATOM     17  N   LIG    1        2.056   0.658  -0.014  0.00  0.00    -0.338 N 
ATOM     18  C   LIG    1        1.240  -0.418  -0.012  0.00  0.00    +0.173 A 
ATOM     19  N   LIG    1        0.002  -0.004   0.002  0.00  0.00    -0.352 N 
ATOM     20  H   LIG    1       -0.781  -0.576   0.007  0.00  0.00    +0.166 HD
ENDBRANCH  14  17
ENDBRANCH  13  14
ENDBRANCH  12  13
ENDBRANCH   1  12
TORSDOF 5
