REMARK  Name = ZINC02555356
REMARK                            x       y       z     vdW  Elec       q    Type
REMARK                         _______ _______ _______ _____ _____    ______ ____
ROOT
ATOM      1  C   LIG    1        2.186  -6.194   0.575  0.00  0.00    +0.158 C 
ENDROOT
BRANCH   1   2
ATOM      2  C   LIG    1        3.582  -6.104   1.134  0.00  0.00    -0.029 A 
ATOM      3  C   LIG    1        4.495  -5.230   0.575  0.00  0.00    +0.005 A 
ATOM      4  C   LIG    1        5.776  -5.147   1.088  0.00  0.00    +0.000 A 
ATOM      5  C   LIG    1        6.144  -5.937   2.160  0.00  0.00    +0.000 A 
ATOM      6  C   LIG    1        5.230  -6.811   2.720  0.00  0.00    +0.000 A 
ATOM      7  C   LIG    1        3.948  -6.890   2.210  0.00  0.00    +0.005 A 
ENDBRANCH   1   2
BRANCH   1   8
ATOM      8  C   LIG    1        2.237  -6.776  -0.814  0.00  0.00    -0.029 A 
ATOM      9  C   LIG    1        2.798  -6.049  -1.848  0.00  0.00    +0.005 A 
ATOM     10  C   LIG    1        2.845  -6.582  -3.122  0.00  0.00    +0.000 A 
ATOM     11  C   LIG    1        2.333  -7.844  -3.363  0.00  0.00    +0.000 A 
ATOM     12  C   LIG    1        1.774  -8.571  -2.329  0.00  0.00    +0.000 A 
ATOM     13  C   LIG    1        1.730  -8.039  -1.054  0.00  0.00    +0.005 A 
ENDBRANCH   1   8
BRANCH   1  14
ATOM     14  C   LIG    1        1.576  -4.817   0.520  0.00  0.00    +0.319 C 
ATOM     15  O   LIG    1        2.211  -3.860   0.896  0.00  0.00    -0.250 OA
BRANCH  14  16
ATOM     16  O   LIG    1        0.328  -4.653   0.053  0.00  0.00    -0.461 OA
BRANCH  16  22
ATOM     17  C   LIG    1       -3.127  -0.240   0.176  0.00  0.00    -0.092 C 
ATOM     18  N   LIG    1       -2.481  -1.559   0.183  0.00  0.00    +0.376 N 
ATOM     19  C   LIG    1       -3.501  -2.601   0.363  0.00  0.00    -0.092 C 
ATOM     20  C   LIG    1       -1.790  -1.771  -1.094  0.00  0.00    -0.072 C 
ATOM     21  C   LIG    1       -1.184  -3.176  -1.123  0.00  0.00    +0.026 C 
ATOM     22  C   LIG    1       -0.186  -3.320   0.030  0.00  0.00    +0.173 C 
ATOM     23  C   LIG    1       -0.901  -3.024   1.351  0.00  0.00    +0.026 C 
ATOM     24  C   LIG    1       -1.518  -1.625   1.288  0.00  0.00    -0.072 C 
ENDBRANCH  16  22
ENDBRANCH  14  16
ENDBRANCH   1  14
TORSDOF 5
