REMARK  Name = ZINC02518269
REMARK                            x       y       z     vdW  Elec       q    Type
REMARK                         _______ _______ _______ _____ _____    ______ ____
ROOT
ATOM      1  C   LIG    1       -2.452   3.714   0.035  0.00  0.00    +0.133 A 
ATOM      2  C   LIG    1       -1.246   3.036   0.030  0.00  0.00    +0.069 A 
ATOM      3  C   LIG    1       -1.229   1.647   0.017  0.00  0.00    +0.028 A 
ATOM      4  C   LIG    1       -2.423   0.933   0.019  0.00  0.00    +0.023 A 
ATOM      5  C   LIG    1       -3.629   1.600   0.028  0.00  0.00    +0.017 A 
ATOM      6  C   LIG    1       -3.655   2.996   0.037  0.00  0.00    +0.061 A 
ENDROOT
BRANCH   6   7
ATOM      7  C   LIG    1       -4.946   3.713   0.048  0.00  0.00    +0.158 A 
ATOM      8  C   LIG    1       -5.997   3.502  -0.787  0.00  0.00    +0.161 A 
ATOM      9  N   LIG    1       -6.968   4.359  -0.438  0.00  0.00    -0.224 NA
ATOM     10  C   LIG    1       -6.553   5.084   0.562  0.00  0.00    +0.308 A 
ATOM     11  O   LIG    1       -5.307   4.710   0.886  0.00  0.00    -0.442 OA
ENDBRANCH   6   7
BRANCH   3  12
ATOM     12  N   LIG    1       -0.011   0.966   0.007  0.00  0.00    -0.358 N 
ATOM     13  H   LIG    1        0.934   1.529   0.011  0.00  0.00    +0.142 HD
ATOM     14  H   LIG    1        0.004  -0.134  -0.003  0.00  0.00    +0.142 HD
ENDBRANCH   3  12
BRANCH   1  16
ATOM     15  C   LIG    1       -1.205   5.738   0.041  0.00  0.00    +0.277 C 
ATOM     16  O   LIG    1       -2.470   5.072   0.043  0.00  0.00    -0.494 OA
ENDBRANCH   1  16
TORSDOF 3
