REMARK  Name = ZINC02561713
REMARK                            x       y       z     vdW  Elec       q    Type
REMARK                         _______ _______ _______ _____ _____    ______ ____
ROOT
ATOM      1  C   LIG    1       -4.549   5.079  -2.964  0.00  0.00    +0.249 C 
ATOM      2  O   LIG    1       -3.877   4.683  -3.896  0.00  0.00    -0.282 OA
ENDROOT
BRANCH   1   8
ATOM      3  C   LIG    1       -6.761   6.379  -6.883  0.00  0.00    +0.001 A 
ATOM      4  C   LIG    1       -7.935   7.069  -6.617  0.00  0.00    +0.002 A 
ATOM      5  C   LIG    1       -8.333   7.303  -5.319  0.00  0.00    +0.026 A 
ATOM      6  C   LIG    1       -7.555   6.846  -4.260  0.00  0.00    +0.047 A 
ATOM      7  C   LIG    1       -6.368   6.148  -4.532  0.00  0.00    +0.011 A 
ATOM      8  C   LIG    1       -5.790   5.809  -3.216  0.00  0.00    +0.052 A 
ATOM      9  C   LIG    1       -6.663   6.316  -2.272  0.00  0.00    +0.095 A 
ATOM     10  N   LIG    1       -7.691   6.926  -2.888  0.00  0.00    -0.360 N 
ATOM     11  H   LIG    1       -8.428   7.360  -2.432  0.00  0.00    +0.165 HD
ATOM     12  C   LIG    1       -5.977   5.917  -5.847  0.00  0.00    +0.011 A 
ENDBRANCH   1   8
BRANCH   1  13
ATOM     13  C   LIG    1       -4.108   4.820  -1.563  0.00  0.00    +0.285 C 
ATOM     14  N   LIG    1       -2.963   4.147  -1.330  0.00  0.00    -0.305 N 
ATOM     15  H   LIG    1       -2.427   3.831  -2.074  0.00  0.00    +0.149 HD
ATOM     16  O   LIG    1       -4.779   5.216  -0.632  0.00  0.00    -0.267 OA
BRANCH  14  17
ATOM     17  C   LIG    1       -2.530   3.893   0.046  0.00  0.00    +0.140 C 
BRANCH  17  18
ATOM     18  C   LIG    1       -1.231   3.129   0.030  0.00  0.00    -0.027 A 
ATOM     19  C   LIG    1       -1.223   1.742   0.017  0.00  0.00    +0.025 A 
ATOM     20  C   LIG    1       -0.013   1.076   0.008  0.00  0.00    +0.111 A 
ATOM     21  N   LIG    1        1.125   1.743   0.001  0.00  0.00    -0.263 NA
ATOM     22  C   LIG    1        1.155   3.061   0.007  0.00  0.00    +0.111 A 
ATOM     23  C   LIG    1       -0.015   3.796   0.022  0.00  0.00    +0.025 A 
ENDBRANCH  17  18
ENDBRANCH  14  17
ENDBRANCH   1  13
TORSDOF 4
