REMARK  Name = ZINC02479470
REMARK                            x       y       z     vdW  Elec       q    Type
REMARK                         _______ _______ _______ _____ _____    ______ ____
ROOT
ATOM      1  S   LIG    1        1.398  -4.387   2.217  0.00  0.00    +0.076 S 
ATOM      2  O   LIG    1        0.751  -4.866   1.046  0.00  0.00    -0.150 OA
ATOM      3  O   LIG    1        0.984  -4.763   3.523  0.00  0.00    -0.150 OA
ENDROOT
BRANCH   1   8
ATOM      4  C   LIG    1        0.626  -0.619   1.042  0.00  0.00    +0.122 A 
ATOM      5  C   LIG    1        1.202   0.139   2.051  0.00  0.00    +0.049 A 
ATOM      6  C   LIG    1        1.837  -0.485   3.107  0.00  0.00    +0.051 A 
ATOM      7  C   LIG    1        1.897  -1.870   3.159  0.00  0.00    +0.147 A 
ATOM      8  C   LIG    1        1.321  -2.628   2.151  0.00  0.00    +0.153 A 
ATOM      9  C   LIG    1        0.682  -2.003   1.097  0.00  0.00    +0.078 A 
BRANCH   4  11
ATOM     10  C   LIG    1       -0.017   1.425   0.010  0.00  0.00    +0.277 C 
ATOM     11  O   LIG    1        0.002  -0.004   0.002  0.00  0.00    -0.495 OA
ENDBRANCH   4  11
BRANCH   7  12
ATOM     12  O   LIG    1        2.522  -2.485   4.199  0.00  0.00    -0.493 OA
ATOM     13  C   LIG    1        3.094  -1.642   5.202  0.00  0.00    +0.277 C 
ENDBRANCH   7  12
ENDBRANCH   1   8
BRANCH   1  14
ATOM     14  N   LIG    1        2.993  -4.812   2.085  0.00  0.00    -0.215 N 
ATOM     15  H   LIG    1        3.299  -5.311   1.311  0.00  0.00    +0.174 HD
BRANCH  14  16
ATOM     16  C   LIG    1        3.897  -4.453   3.087  0.00  0.00    +0.067 A 
ATOM     17  C   LIG    1        5.128  -3.921   2.754  0.00  0.00    +0.036 A 
ATOM     18  C   LIG    1        6.003  -3.575   3.799  0.00  0.00    +0.002 A 
ATOM     19  C   LIG    1        7.271  -3.028   3.539  0.00  0.00    +0.010 A 
ATOM     20  C   LIG    1        8.090  -2.705   4.577  0.00  0.00    +0.001 A 
ATOM     21  C   LIG    1        7.688  -2.910   5.895  0.00  0.00    +0.002 A 
ATOM     22  C   LIG    1        6.467  -3.437   6.184  0.00  0.00    +0.028 A 
ATOM     23  C   LIG    1        5.592  -3.783   5.139  0.00  0.00    +0.071 A 
ATOM     24  N   LIG    1        4.387  -4.302   5.397  0.00  0.00    -0.253 NA
ATOM     25  C   LIG    1        3.559  -4.624   4.435  0.00  0.00    +0.135 A 
ENDBRANCH  14  16
ENDBRANCH   1  14
TORSDOF 5
