REMARK  Name = ZINC02516018
REMARK                            x       y       z     vdW  Elec       q    Type
REMARK                         _______ _______ _______ _____ _____    ______ ____
ROOT
ATOM      1  C   LIG    1        1.909  -3.641  -0.105  0.00  0.00    +0.146 A 
ATOM      2  C   LIG    1        2.532  -4.124   1.126  0.00  0.00    +0.087 A 
ATOM      3  C   LIG    1        2.409  -3.759   2.449  0.00  0.00    +0.031 A 
ATOM      4  C   LIG    1        3.265  -4.587   3.184  0.00  0.00    +0.020 A 
ATOM      5  C   LIG    1        3.882  -5.425   2.316  0.00  0.00    +0.092 A 
ATOM      6  N   LIG    1        3.446  -5.155   1.059  0.00  0.00    -0.311 N 
ATOM      7  C   LIG    1        3.746  -5.704  -0.184  0.00  0.00    +0.072 A 
ATOM      8  C   LIG    1        4.661  -6.743  -0.288  0.00  0.00    +0.029 A 
ATOM      9  C   LIG    1        4.954  -7.284  -1.523  0.00  0.00    +0.014 A 
ATOM     10  C   LIG    1        4.340  -6.796  -2.666  0.00  0.00    +0.057 A 
ATOM     11  C   LIG    1        3.431  -5.766  -2.583  0.00  0.00    +0.042 A 
ATOM     12  C   LIG    1        3.121  -5.205  -1.337  0.00  0.00    +0.090 A 
ATOM     13  N   LIG    1        2.218  -4.192  -1.258  0.00  0.00    -0.228 NA
ENDROOT
BRANCH   1  18
ATOM     14  C   LIG    1       -0.116   1.338   0.843  0.00  0.00    +0.105 C 
ATOM     15  N   LIG    1       -0.048  -0.068   0.425  0.00  0.00    -0.302 NA
ATOM     16  C   LIG    1        0.924  -0.248  -0.662  0.00  0.00    +0.103 C 
ATOM     17  C   LIG    1        0.835  -1.683  -1.190  0.00  0.00    +0.122 C 
ATOM     18  N   LIG    1        0.991  -2.608  -0.057  0.00  0.00    -0.311 N 
ATOM     19  C   LIG    1        0.144  -2.406   1.128  0.00  0.00    +0.122 C 
ATOM     20  C   LIG    1        0.260  -0.942   1.565  0.00  0.00    +0.103 C 
ENDBRANCH   1  18
BRANCH  10  21
ATOM     21  C   LIG    1        4.670  -7.397  -4.008  0.00  0.00    +0.417 C 
ATOM     22  F   LIG    1        5.199  -6.407  -4.844  0.00  0.00    -0.166 F 
ATOM     23  F   LIG    1        3.508  -7.922  -4.583  0.00  0.00    -0.166 F 
ATOM     24  F   LIG    1        5.611  -8.418  -3.842  0.00  0.00    -0.166 F 
ENDBRANCH  10  21
TORSDOF 2
