REMARK  Name = ZINC03326915
REMARK                            x       y       z     vdW  Elec       q    Type
REMARK                         _______ _______ _______ _____ _____    ______ ____
ROOT
ATOM      1  N   LIG    1       -1.424   5.882   0.048  0.00  0.00    -0.280 N 
ATOM      2  H   LIG    1       -0.705   5.437   0.522  0.00  0.00    +0.155 HD
ATOM      3  C   LIG    1       -2.399   5.154  -0.532  0.00  0.00    +0.267 C 
ATOM      4  O   LIG    1       -3.345   5.712  -1.054  0.00  0.00    -0.268 OA
ENDROOT
BRANCH   1   8
ATOM      5  C   LIG    1       -1.500  10.043  -0.197  0.00  0.00    +0.138 A 
ATOM      6  C   LIG    1       -0.288   9.369  -0.218  0.00  0.00    +0.049 A 
ATOM      7  C   LIG    1       -0.262   7.991  -0.131  0.00  0.00    +0.027 A 
ATOM      8  C   LIG    1       -1.450   7.279  -0.034  0.00  0.00    +0.035 A 
ATOM      9  C   LIG    1       -2.664   7.954  -0.013  0.00  0.00    +0.047 A 
ATOM     10  C   LIG    1       -2.688   9.333  -0.094  0.00  0.00    +0.084 A 
ATOM     11 CL   LIG    1       -4.205  10.177  -0.068  0.00  0.00    -0.080 Cl
BRANCH   5  13
ATOM     12  C   LIG    1       -0.265  12.067  -0.380  0.00  0.00    +0.277 C 
ATOM     13  O   LIG    1       -1.524  11.401  -0.276  0.00  0.00    -0.494 OA
ENDBRANCH   5  13
ENDBRANCH   1   8
BRANCH   3  14
ATOM     14  C   LIG    1       -2.319   3.675  -0.534  0.00  0.00    +0.126 A 
ATOM     15  C   LIG    1       -3.330   2.929  -1.136  0.00  0.00    +0.033 A 
ATOM     16  C   LIG    1       -3.240   1.546  -1.130  0.00  0.00    +0.004 A 
ATOM     17  C   LIG    1       -2.142   0.957  -0.522  0.00  0.00    +0.020 A 
ATOM     18  C   LIG    1       -1.177   1.761   0.062  0.00  0.00    +0.111 A 
ATOM     19  N   LIG    1       -1.284   3.072   0.037  0.00  0.00    -0.250 NA
ENDBRANCH   3  14
TORSDOF 3
