REMARK  Name = ZINC02479533
REMARK                            x       y       z     vdW  Elec       q    Type
REMARK                         _______ _______ _______ _____ _____    ______ ____
ROOT
ATOM      1  C   LIG    1       -1.182  -2.098  -0.102  0.00  0.00    +0.225 A 
ATOM      2  N   LIG    1       -0.024  -2.750  -0.112  0.00  0.00    -0.181 NA
ATOM      3  C   LIG    1       -0.007  -4.075  -0.219  0.00  0.00    +0.221 A 
ATOM      4  N   LIG    1       -1.150  -4.748  -0.317  0.00  0.00    -0.181 NA
ATOM      5  C   LIG    1       -2.308  -4.096  -0.307  0.00  0.00    +0.224 A 
ATOM      6  N   LIG    1       -2.325  -2.771  -0.194  0.00  0.00    -0.181 NA
ENDROOT
BRANCH   5   7
ATOM      7  N   LIG    1       -3.494  -4.795  -0.409  0.00  0.00    -0.299 N 
ATOM      8  C   LIG    1       -3.621  -6.254  -0.527  0.00  0.00    +0.108 C 
ATOM      9  C   LIG    1       -5.127  -6.576  -0.639  0.00  0.00    +0.020 C 
ATOM     10  C   LIG    1       -5.730  -5.240  -1.147  0.00  0.00    +0.020 C 
ATOM     11  C   LIG    1       -4.844  -4.201  -0.411  0.00  0.00    +0.108 C 
ENDBRANCH   5   7
BRANCH   1  12
ATOM     12  N   LIG    1       -1.199  -0.721   0.010  0.00  0.00    -0.283 N 
ATOM     13  H   LIG    1       -2.043  -0.252   0.102  0.00  0.00    +0.155 HD
BRANCH  12  20
ATOM     14  C   LIG    1        1.068  -0.452  -0.776  0.00  0.00    +0.025 A 
ATOM     15  C   LIG    1        2.252   0.259  -0.794  0.00  0.00    +0.022 A 
ATOM     16  C   LIG    1        2.376   1.418  -0.047  0.00  0.00    +0.041 A 
ATOM     17 CL   LIG    1        3.865   2.309  -0.071  0.00  0.00    -0.084 Cl
ATOM     18  C   LIG    1        1.315   1.867   0.719  0.00  0.00    +0.022 A 
ATOM     19  C   LIG    1        0.129   1.159   0.740  0.00  0.00    +0.025 A 
ATOM     20  C   LIG    1        0.001  -0.003  -0.009  0.00  0.00    +0.034 A 
ENDBRANCH  12  20
ENDBRANCH   1  12
BRANCH   3  21
ATOM     21  N   LIG    1        1.195  -4.752  -0.230  0.00  0.00    -0.311 N 
ATOM     22  H   LIG    1        1.207  -5.718  -0.308  0.00  0.00    +0.149 HD
BRANCH  21  23
ATOM     23  C   LIG    1        2.454  -4.010  -0.122  0.00  0.00    +0.132 C 
BRANCH  23  24
ATOM     24  C   LIG    1        3.628  -4.990  -0.159  0.00  0.00    +0.174 C 
BRANCH  24  25
ATOM     25  O   LIG    1        3.675  -5.631  -1.435  0.00  0.00    -0.393 OA
ATOM     26  H   LIG    1        4.396  -6.268  -1.530  0.00  0.00    +0.209 HD
ENDBRANCH  24  25
ENDBRANCH  23  24
ENDBRANCH  21  23
ENDBRANCH   3  21
TORSDOF 7
