REMARK  Name = ZINC02889428
REMARK                            x       y       z     vdW  Elec       q    Type
REMARK                         _______ _______ _______ _____ _____    ______ ____
ROOT
ATOM      1  C   LIG    1        3.660   2.164  -0.021  0.00  0.00    +0.170 A 
ATOM      2  N   LIG    1        3.652   3.483  -0.014  0.00  0.00    -0.204 NA
ATOM      3  C   LIG    1        4.809   4.125  -0.022  0.00  0.00    +0.185 A 
ATOM      4  S   LIG    1        5.941   2.811  -0.040  0.00  0.00    +0.050 S 
ATOM      5  N   LIG    1        4.813   1.524  -0.030  0.00  0.00    -0.187 NA
ENDROOT
BRANCH   1   9
ATOM      6  C   LIG    1        0.002  -0.004   0.002  0.00  0.00    +0.000 A 
ATOM      7  C   LIG    1       -0.017   1.379   0.010  0.00  0.00    +0.001 A 
ATOM      8  C   LIG    1        1.167   2.088   0.002  0.00  0.00    +0.011 A 
ATOM      9  C   LIG    1        2.384   1.407  -0.013  0.00  0.00    +0.020 A 
ATOM     10  C   LIG    1        2.397   0.014  -0.021  0.00  0.00    +0.011 A 
ATOM     11  C   LIG    1        1.206  -0.684  -0.013  0.00  0.00    +0.001 A 
ENDBRANCH   1   9
BRANCH   3  12
ATOM     12  N   LIG    1        5.052   5.491  -0.018  0.00  0.00    -0.259 N 
ATOM     13  H   LIG    1        4.310   6.115  -0.008  0.00  0.00    +0.157 HD
ATOM     14  C   LIG    1        6.320   5.949  -0.027  0.00  0.00    +0.250 C 
ATOM     15  O   LIG    1        7.249   5.166  -0.040  0.00  0.00    -0.270 OA
BRANCH  14  16
ATOM     16  C   LIG    1        6.579   7.404  -0.023  0.00  0.00    +0.037 A 
ATOM     17  C   LIG    1        5.514   8.306  -0.014  0.00  0.00    +0.013 A 
ATOM     18  C   LIG    1        5.763   9.663  -0.003  0.00  0.00    +0.001 A 
ATOM     19  C   LIG    1        7.065  10.130  -0.013  0.00  0.00    +0.000 A 
ATOM     20  C   LIG    1        8.126   9.242  -0.028  0.00  0.00    +0.001 A 
ATOM     21  C   LIG    1        7.891   7.882  -0.033  0.00  0.00    +0.013 A 
ENDBRANCH  14  16
ENDBRANCH   3  12
TORSDOF 3
