REMARK  Name = ZINC03157622
REMARK                            x       y       z     vdW  Elec       q    Type
REMARK                         _______ _______ _______ _____ _____    ______ ____
ROOT
ATOM      1  C   LIG    1        3.649   2.150  -0.022  0.00  0.00    +0.026 C 
ATOM      2  C   LIG    1        3.697   3.434   0.490  0.00  0.00    +0.096 C 
ATOM      3  C   LIG    1        2.533   4.042   1.155  0.00  0.00    +0.218 C 
ATOM      4  N   LIG    1        2.646   5.273   1.623  0.00  0.00    -0.127 NA
ATOM      5  C   LIG    1        3.773   5.972   1.510  0.00  0.00    +0.333 C 
ATOM      6  N   LIG    1        4.883   5.502   0.921  0.00  0.00    -0.234 N 
ATOM      7  H   LIG    1        5.672   6.064   0.872  0.00  0.00    +0.159 HD
ATOM      8  O   LIG    1        3.799   7.101   1.966  0.00  0.00    -0.250 OA
ATOM      9  C   LIG    1        4.922   4.256   0.401  0.00  0.00    +0.256 C 
ATOM     10  O   LIG    1        5.930   3.827  -0.128  0.00  0.00    -0.270 OA
ENDROOT
BRANCH   1  13
ATOM     11  C   LIG    1        0.046   1.442  -0.763  0.00  0.00    +0.003 A 
ATOM     12  C   LIG    1        1.249   2.107  -0.666  0.00  0.00    +0.008 A 
ATOM     13  C   LIG    1        2.366   1.452  -0.128  0.00  0.00    -0.022 A 
ATOM     14  C   LIG    1        2.247   0.124   0.306  0.00  0.00    +0.040 A 
ATOM     15  C   LIG    1        1.036  -0.524   0.202  0.00  0.00    +0.122 A 
ATOM     16  C   LIG    1       -0.062   0.131  -0.331  0.00  0.00    +0.032 A 
BRANCH  15  17
ATOM     17  N   LIG    1        0.908  -1.926   0.660  0.00  0.00    +0.006 N 
ATOM     18  O   LIG    1        1.865  -2.500   1.125  0.00  0.00    -0.130 OA
BRANCH  17  19
ATOM     19  O   LIG    1       -0.154  -2.497   0.569  0.00  0.00    -0.396 OA
ATOM     20  H   LIG    1       -0.896  -2.052   0.208  0.00  0.00    +0.329 HD
ENDBRANCH  17  19
ENDBRANCH  15  17
ENDBRANCH   1  13
BRANCH   3  21
ATOM     21  O   LIG    1        1.377   3.358   1.285  0.00  0.00    -0.493 OA
ATOM     22  H   LIG    1        1.309   2.486   0.950  0.00  0.00    +0.294 HD
ENDBRANCH   3  21
TORSDOF 4
