REMARK  Name = ZINC03280663
REMARK                            x       y       z     vdW  Elec       q    Type
REMARK                         _______ _______ _______ _____ _____    ______ ____
ROOT
ATOM      1  C   LIG    1       -5.212  -2.087  -0.179  0.00  0.00    +0.021 C 
ATOM      2  C   LIG    1       -5.465  -3.339   0.305  0.00  0.00    +0.047 C 
ATOM      3  C   LIG    1       -6.744  -4.084   0.254  0.00  0.00    +0.010 A 
ATOM      4  C   LIG    1       -8.001  -3.784  -0.259  0.00  0.00    +0.030 A 
ATOM      5  C   LIG    1       -9.022  -4.708  -0.152  0.00  0.00    +0.042 A 
ATOM      6 CL   LIG    1      -10.594  -4.341  -0.790  0.00  0.00    -0.084 Cl
ATOM      7  C   LIG    1       -8.793  -5.929   0.463  0.00  0.00    +0.022 A 
ATOM      8  C   LIG    1       -7.546  -6.237   0.969  0.00  0.00    +0.025 A 
ATOM      9  C   LIG    1       -6.507  -5.318   0.874  0.00  0.00    +0.042 A 
ATOM     10  N   LIG    1       -5.185  -5.369   1.303  0.00  0.00    -0.281 N 
ATOM     11  H   LIG    1       -4.789  -6.125   1.764  0.00  0.00    +0.155 HD
ATOM     12  C   LIG    1       -4.527  -4.238   0.997  0.00  0.00    +0.249 C 
ATOM     13  O   LIG    1       -3.359  -4.000   1.247  0.00  0.00    -0.270 OA
ENDROOT
BRANCH   1  19
ATOM     14  C   LIG    1       -2.775  -2.421  -0.526  0.00  0.00    +0.010 A 
ATOM     15  C   LIG    1       -1.499  -1.936  -0.542  0.00  0.00    +0.024 A 
ATOM     16  C   LIG    1       -1.255  -0.600  -0.233  0.00  0.00    +0.030 A 
ATOM     17  C   LIG    1       -2.311   0.247   0.099  0.00  0.00    +0.024 A 
ATOM     18  C   LIG    1       -3.591  -0.228   0.113  0.00  0.00    +0.010 A 
ATOM     19  C   LIG    1       -3.841  -1.572  -0.197  0.00  0.00    -0.024 A 
BRANCH  16  20
ATOM     20  N   LIG    1        0.046  -0.111  -0.251  0.00  0.00    -0.326 N 
ATOM     21  C   LIG    1        0.077   1.316   0.103  0.00  0.00    +0.133 C 
ATOM     22  C   LIG    1        1.518   1.827   0.013  0.00  0.00    +0.178 C 
ATOM     23  O   LIG    1        2.352   1.038   0.866  0.00  0.00    -0.377 OA
ATOM     24  C   LIG    1        2.346  -0.356   0.549  0.00  0.00    +0.178 C 
ATOM     25  C   LIG    1        0.914  -0.889   0.644  0.00  0.00    +0.133 C 
ENDBRANCH  16  20
ENDBRANCH   1  19
TORSDOF 2
