REMARK  Name = ZINC02516061
REMARK                            x       y       z     vdW  Elec       q    Type
REMARK                         _______ _______ _______ _____ _____    ______ ____
ROOT
ATOM      1  C   LIG    1       -0.018   1.465   0.010  0.00  0.00    -0.096 C 
ATOM      2  N   LIG    1        0.002  -0.004   0.002  0.00  0.00    +0.379 N 
ATOM      3  H   LIG    1        0.480  -0.327  -0.826  0.00  0.00    -0.082 HD
ATOM      4  C   LIG    1       -1.372  -0.507  -0.009  0.00  0.00    -0.074 C 
ATOM      5  C   LIG    1       -1.853  -0.605   1.442  0.00  0.00    +0.017 C 
ATOM      6  C   LIG    1       -1.620  -1.990   1.986  0.00  0.00    -0.044 A 
ATOM      7  C   LIG    1       -2.680  -2.631   2.615  0.00  0.00    +0.022 A 
ATOM      8  C   LIG    1       -2.516  -3.891   3.152  0.00  0.00    +0.059 A 
ATOM      9 BR   LIG    1       -3.966  -4.757   4.002  0.00  0.00    -0.047 Br
ATOM     10  C   LIG    1       -1.281  -4.520   3.067  0.00  0.00    +0.131 A 
ATOM     11  C   LIG    1       -0.229  -3.883   2.432  0.00  0.00    +0.051 A 
ATOM     12  C   LIG    1       -0.402  -2.621   1.879  0.00  0.00    -0.035 A 
ATOM     13  C   LIG    1        0.767  -2.013   1.143  0.00  0.00    +0.033 C 
ATOM     14  C   LIG    1        0.712  -0.487   1.192  0.00  0.00    -0.066 C 
ENDROOT
BRANCH  13  15
ATOM     15  C   LIG    1        2.050  -2.482   1.780  0.00  0.00    -0.042 A 
ATOM     16  C   LIG    1        2.301  -2.206   3.111  0.00  0.00    +0.004 A 
ATOM     17  C   LIG    1        3.478  -2.636   3.696  0.00  0.00    +0.000 A 
ATOM     18  C   LIG    1        4.403  -3.341   2.949  0.00  0.00    +0.000 A 
ATOM     19  C   LIG    1        4.151  -3.617   1.618  0.00  0.00    +0.000 A 
ATOM     20  C   LIG    1        2.973  -3.191   1.035  0.00  0.00    +0.004 A 
ENDBRANCH  13  15
BRANCH  10  21
ATOM     21  O   LIG    1       -1.106  -5.756   3.604  0.00  0.00    -0.506 OA
ATOM     22  H   LIG    1       -1.296  -6.481   2.994  0.00  0.00    +0.292 HD
ENDBRANCH  10  21
TORSDOF 2
