REMARK  Name = ZINC02567089
REMARK                            x       y       z     vdW  Elec       q    Type
REMARK                         _______ _______ _______ _____ _____    ______ ____
ROOT
ATOM      1  C   LIG    1        2.476   1.079  -0.016  0.00  0.00    +0.175 A 
ATOM      2  C   LIG    1        3.749   1.641  -0.122  0.00  0.00    +0.050 A 
ATOM      3  C   LIG    1        4.307   2.916  -0.241  0.00  0.00    +0.024 A 
ATOM      4  C   LIG    1        5.681   3.048  -0.322  0.00  0.00    +0.001 A 
ATOM      5  C   LIG    1        6.525   1.920  -0.287  0.00  0.00    +0.012 A 
ATOM      6  C   LIG    1        6.033   0.664  -0.173  0.00  0.00    +0.032 A 
ATOM      7  C   LIG    1        4.639   0.462  -0.085  0.00  0.00    +0.114 A 
ATOM      8  N   LIG    1        3.835  -0.570   0.029  0.00  0.00    -0.078 NA
ATOM      9  O   LIG    1        2.669  -0.247   0.073  0.00  0.00    -0.353 OA
ENDROOT
BRANCH   1  16
ATOM     10  C   LIG    1        1.021   2.923   0.807  0.00  0.00    +0.013 A 
ATOM     11  C   LIG    1       -0.189   3.582   0.823  0.00  0.00    +0.021 A 
ATOM     12  C   LIG    1       -1.236   3.135   0.032  0.00  0.00    +0.041 A 
ATOM     13 CL   LIG    1       -2.754   3.976   0.052  0.00  0.00    -0.084 Cl
ATOM     14  C   LIG    1       -1.077   2.016  -0.769  0.00  0.00    +0.021 A 
ATOM     15  C   LIG    1        0.126   1.344  -0.790  0.00  0.00    +0.013 A 
ATOM     16  C   LIG    1        1.188   1.793   0.000  0.00  0.00    +0.021 A 
ENDBRANCH   1  16
BRANCH   4  17
ATOM     17  C   LIG    1        6.276   4.398  -0.448  0.00  0.00    +0.076 A 
ATOM     18  C   LIG    1        7.664   4.558  -0.526  0.00  0.00    +0.048 A 
ATOM     19  C   LIG    1        8.173   5.837  -0.647  0.00  0.00    +0.116 A 
ATOM     20  N   LIG    1        7.340   6.866  -0.677  0.00  0.00    -0.223 NA
ATOM     21  C   LIG    1        6.029   6.686  -0.597  0.00  0.00    +0.213 A 
ATOM     22  N   LIG    1        5.499   5.479  -0.484  0.00  0.00    -0.215 NA
BRANCH  21  23
ATOM     23  N   LIG    1        5.194   7.789  -0.631  0.00  0.00    -0.327 N 
ATOM     24  H   LIG    1        5.570   8.680  -0.713  0.00  0.00    +0.145 HD
ATOM     25  H   LIG    1        4.233   7.672  -0.573  0.00  0.00    +0.145 HD
ENDBRANCH  21  23
ENDBRANCH   4  17
TORSDOF 3
