REMARK  Name = ZINC02567733
REMARK                            x       y       z     vdW  Elec       q    Type
REMARK                         _______ _______ _______ _____ _____    ______ ____
ROOT
ATOM      1  C   LIG    1       -1.740  -0.994  -1.407  0.00  0.00    +0.220 C 
ATOM      2  N   LIG    1       -2.716  -1.881  -1.686  0.00  0.00    -0.300 N 
ATOM      3  C   LIG    1       -3.334  -2.675  -0.616  0.00  0.00    +0.108 C 
ATOM      4  C   LIG    1       -4.854  -2.490  -0.680  0.00  0.00    +0.019 C 
ATOM      5  C   LIG    1       -5.347  -2.838  -2.087  0.00  0.00    +0.003 C 
ATOM      6  C   LIG    1       -4.702  -1.894  -3.104  0.00  0.00    +0.021 C 
ATOM      7  C   LIG    1       -3.185  -2.067  -3.066  0.00  0.00    +0.059 C 
ATOM      8  O   LIG    1       -1.174  -0.412  -2.307  0.00  0.00    -0.275 OA
ENDROOT
BRANCH   1   9
ATOM      9  C   LIG    1       -1.353  -0.726   0.025  0.00  0.00    +0.131 C 
BRANCH   9  17
ATOM     10  C   LIG    1       -0.553   1.643   0.136  0.00  0.00    +0.005 A 
ATOM     11  C   LIG    1        0.460   2.583   0.171  0.00  0.00    +0.022 A 
ATOM     12  C   LIG    1        1.782   2.176   0.134  0.00  0.00    +0.059 A 
ATOM     13 CL   LIG    1        3.055   3.355   0.178  0.00  0.00    -0.082 Cl
ATOM     14  C   LIG    1        2.088   0.827   0.061  0.00  0.00    +0.060 A 
ATOM     15 CL   LIG    1        3.746   0.315   0.013  0.00  0.00    -0.082 Cl
ATOM     16  C   LIG    1        1.073  -0.111   0.025  0.00  0.00    +0.025 A 
ATOM     17  C   LIG    1       -0.247   0.297   0.063  0.00  0.00    -0.037 A 
ENDBRANCH   9  17
ENDBRANCH   1   9
BRANCH   7  18
ATOM     18  C   LIG    1       -2.529  -1.027  -3.976  0.00  0.00    -0.056 C 
BRANCH  18  19
ATOM     19  N   LIG    1       -3.036  -1.185  -5.346  0.00  0.00    +0.381 N 
ATOM     20  H   LIG    1       -3.177  -2.162  -5.554  0.00  0.00    -0.082 HD
ATOM     21  C   LIG    1       -4.308  -0.436  -5.511  0.00  0.00    -0.079 C 
ATOM     22  C   LIG    1       -4.399  -0.226  -7.044  0.00  0.00    -0.020 C 
ATOM     23  C   LIG    1       -2.928   0.029  -7.445  0.00  0.00    -0.020 C 
ATOM     24  C   LIG    1       -2.088  -0.589  -6.312  0.00  0.00    -0.079 C 
ENDBRANCH  18  19
ENDBRANCH   7  18
TORSDOF 4
