REMARK  Name = ZINC02539831
REMARK                            x       y       z     vdW  Elec       q    Type
REMARK                         _______ _______ _______ _____ _____    ______ ____
ROOT
ATOM      1  C   LIG    1        3.736   2.660  -2.567  0.00  0.00    +0.032 C 
ATOM      2  C   LIG    1        4.695   3.849  -2.519  0.00  0.00    -0.070 C 
ATOM      3  N   LIG    1        6.051   3.355  -2.211  0.00  0.00    +0.380 N 
ATOM      4  H   LIG    1        6.338   2.683  -2.933  0.00  0.00    -0.086 HD
ATOM      5  H   LIG    1        6.705   4.147  -2.202  0.00  0.00    -0.086 HD
ATOM      6  C   LIG    1        6.074   2.693  -0.897  0.00  0.00    -0.078 C 
ATOM      7  C   LIG    1        5.070   3.402   0.016  0.00  0.00    +0.016 C 
ATOM      8  C   LIG    1        3.731   2.714  -0.033  0.00  0.00    -0.044 A 
ATOM      9  C   LIG    1        3.116   2.406   1.174  0.00  0.00    +0.027 A 
ATOM     10  C   LIG    1        1.865   1.824   1.194  0.00  0.00    +0.083 A 
ATOM     11 CL   LIG    1        1.102   1.450   2.708  0.00  0.00    -0.080 Cl
ATOM     12  C   LIG    1        1.223   1.532  -0.001  0.00  0.00    +0.135 A 
ATOM     13  C   LIG    1        1.843   1.830  -1.203  0.00  0.00    +0.051 A 
ATOM     14  C   LIG    1        3.104   2.413  -1.220  0.00  0.00    -0.035 A 
ENDROOT
BRANCH   1  18
ATOM     15  C   LIG    1        0.664   3.455  -5.428  0.00  0.00    +0.000 A 
ATOM     16  C   LIG    1        1.514   2.379  -5.607  0.00  0.00    +0.000 A 
ATOM     17  C   LIG    1        2.508   2.122  -4.681  0.00  0.00    +0.004 A 
ATOM     18  C   LIG    1        2.652   2.941  -3.577  0.00  0.00    -0.042 A 
ATOM     19  C   LIG    1        1.799   4.013  -3.395  0.00  0.00    +0.004 A 
ATOM     20  C   LIG    1        0.808   4.273  -4.323  0.00  0.00    +0.000 A 
ENDBRANCH   1  18
BRANCH  12  21
ATOM     21  O   LIG    1       -0.011   0.963   0.007  0.00  0.00    -0.505 OA
ATOM     22  H   LIG    1        0.002  -0.004   0.002  0.00  0.00    +0.292 HD
ENDBRANCH  12  21
TORSDOF 2
