REMARK  Name = ZINC02501415
REMARK                            x       y       z     vdW  Elec       q    Type
REMARK                         _______ _______ _______ _____ _____    ______ ____
ROOT
ATOM      1  C   LIG    1        1.293  -0.435  -0.154  0.00  0.00    +0.041 A 
ATOM      2  C   LIG    1        2.127   0.769  -0.049  0.00  0.00    +0.088 A 
ATOM      3  C   LIG    1        3.503   1.033  -0.083  0.00  0.00    +0.134 A 
ATOM      4  N   LIG    1        3.907   2.293   0.049  0.00  0.00    -0.220 NA
ATOM      5  C   LIG    1        3.035   3.272   0.208  0.00  0.00    +0.227 A 
ATOM      6  N   LIG    1        1.735   3.067   0.246  0.00  0.00    -0.200 NA
ATOM      7  C   LIG    1        1.235   1.840   0.123  0.00  0.00    +0.233 A 
ATOM      8  O   LIG    1       -0.012   1.338   0.122  0.00  0.00    -0.436 OA
ATOM      9  C   LIG    1        0.000  -0.001  -0.040  0.00  0.00    +0.146 A 
ENDROOT
BRANCH   1  13
ATOM     10  C   LIG    1        2.618  -4.438  -0.697  0.00  0.00    +0.120 A 
ATOM     11  C   LIG    1        1.909  -3.800  -1.706  0.00  0.00    +0.046 A 
ATOM     12  C   LIG    1        1.478  -2.501  -1.534  0.00  0.00    +0.012 A 
ATOM     13  C   LIG    1        1.754  -1.829  -0.343  0.00  0.00    -0.013 A 
ATOM     14  C   LIG    1        2.472  -2.471   0.667  0.00  0.00    +0.012 A 
ATOM     15  C   LIG    1        2.895  -3.771   0.490  0.00  0.00    +0.046 A 
BRANCH  10  17
ATOM     16  C   LIG    1        3.765  -6.313   0.208  0.00  0.00    +0.277 C 
ATOM     17  O   LIG    1        3.042  -5.717  -0.871  0.00  0.00    -0.495 OA
ENDBRANCH  10  17
ENDBRANCH   1  13
BRANCH   9  18
ATOM     18  C   LIG    1       -1.195  -0.863  -0.087  0.00  0.00    +0.018 A 
ATOM     19  C   LIG    1       -2.287  -0.506  -0.883  0.00  0.00    +0.015 A 
ATOM     20  C   LIG    1       -3.399  -1.319  -0.928  0.00  0.00    +0.046 A 
ATOM     21  C   LIG    1       -3.441  -2.485  -0.176  0.00  0.00    +0.120 A 
ATOM     22  C   LIG    1       -2.361  -2.841   0.622  0.00  0.00    +0.046 A 
ATOM     23  C   LIG    1       -1.242  -2.038   0.669  0.00  0.00    +0.015 A 
BRANCH  21  24
ATOM     24  O   LIG    1       -4.542  -3.280  -0.219  0.00  0.00    -0.495 OA
ATOM     25  C   LIG    1       -5.616  -2.854  -1.059  0.00  0.00    +0.277 C 
ENDBRANCH  21  24
ENDBRANCH   9  18
BRANCH   3  26
ATOM     26  N   LIG    1        4.417   0.008  -0.250  0.00  0.00    -0.326 N 
ATOM     27  H   LIG    1        4.109  -0.907  -0.344  0.00  0.00    +0.148 HD
BRANCH  26  28
ATOM     28  C   LIG    1        5.852   0.305  -0.283  0.00  0.00    +0.130 C 
BRANCH  28  29
ATOM     29  C   LIG    1        6.637  -0.994  -0.477  0.00  0.00    +0.174 C 
BRANCH  29  30
ATOM     30  O   LIG    1        6.335  -1.547  -1.759  0.00  0.00    -0.393 OA
ATOM     31  H   LIG    1        6.799  -2.373  -1.950  0.00  0.00    +0.209 HD
ENDBRANCH  29  30
ENDBRANCH  28  29
ENDBRANCH  26  28
ENDBRANCH   3  26
TORSDOF 8
