REMARK  Name = ZINC03080604
REMARK                            x       y       z     vdW  Elec       q    Type
REMARK                         _______ _______ _______ _____ _____    ______ ____
ROOT
ATOM      1  C   LIG    1        3.724  -0.702  -0.037  0.00  0.00    +0.224 C 
ATOM      2  O   LIG    1        4.714   0.083   0.642  0.00  0.00    -0.339 OA
ATOM      3  C   LIG    1        5.180  -0.692   1.764  0.00  0.00    +0.194 C 
ATOM      4  C   LIG    1        4.026  -1.699   1.998  0.00  0.00    +0.134 C 
ATOM      5  O   LIG    1        3.584  -1.960   0.644  0.00  0.00    -0.337 OA
ENDROOT
BRANCH   4   6
ATOM      6  C   LIG    1        4.541  -2.977   2.663  0.00  0.00    -0.040 C 
ATOM      7  C   LIG    1        3.372  -3.938   2.893  0.00  0.00    -0.013 C 
ATOM      8  C   LIG    1        3.892  -5.215   3.559  0.00  0.00    -0.003 C 
ATOM      9  C   LIG    1        4.984  -5.830   2.678  0.00  0.00    -0.019 C 
ATOM     10  C   LIG    1        6.093  -4.799   2.456  0.00  0.00    -0.082 C 
ATOM     11  N   LIG    1        5.537  -3.614   1.793  0.00  0.00    +0.383 N 
ATOM     12  H   LIG    1        6.280  -2.959   1.599  0.00  0.00    -0.085 HD
ATOM     13  H   LIG    1        5.099  -3.888   0.926  0.00  0.00    -0.085 HD
ENDBRANCH   4   6
BRANCH   1  17
ATOM     14  C   LIG    1       -0.013   1.367  -0.014  0.00  0.00    +0.000 A 
ATOM     15  C   LIG    1        1.171   2.080  -0.009  0.00  0.00    +0.000 A 
ATOM     16  C   LIG    1        2.381   1.410  -0.016  0.00  0.00    +0.009 A 
ATOM     17  C   LIG    1        2.406   0.028  -0.028  0.00  0.00    +0.016 A 
ATOM     18  C   LIG    1        1.221  -0.684  -0.032  0.00  0.00    +0.009 A 
ATOM     19  C   LIG    1        0.012  -0.015  -0.026  0.00  0.00    +0.000 A 
ENDBRANCH   1  17
BRANCH   1  20
ATOM     20  C   LIG    1        4.160  -0.941  -1.459  0.00  0.00    +0.016 A 
ATOM     21  C   LIG    1        3.776  -2.096  -2.115  0.00  0.00    +0.009 A 
ATOM     22  C   LIG    1        4.176  -2.316  -3.419  0.00  0.00    +0.000 A 
ATOM     23  C   LIG    1        4.960  -1.381  -4.069  0.00  0.00    +0.000 A 
ATOM     24  C   LIG    1        5.344  -0.226  -3.414  0.00  0.00    +0.000 A 
ATOM     25  C   LIG    1        4.940  -0.004  -2.110  0.00  0.00    +0.009 A 
ENDBRANCH   1  20
TORSDOF 3
