REMARK  Name = ZINC02994534
REMARK                            x       y       z     vdW  Elec       q    Type
REMARK                         _______ _______ _______ _____ _____    ______ ____
ROOT
ATOM      1  C   LIG    1       -0.018   1.503   0.010  0.00  0.00    +0.045 C 
ATOM      2  C   LIG    1        0.002  -0.004   0.002  0.00  0.00    -0.030 A 
ATOM      3  C   LIG    1        0.006  -0.695  -1.167  0.00  0.00    +0.037 A 
ATOM      4  C   LIG    1       -0.011   0.043  -2.481  0.00  0.00    +0.051 C 
ATOM      5  C   LIG    1        0.026  -2.105  -1.149  0.00  0.00    +0.340 A 
ATOM      6  O   LIG    1        0.041  -2.795   0.003  0.00  0.00    -0.422 OA
ATOM      7  C   LIG    1        0.038  -2.169   1.199  0.00  0.00    +0.143 A 
ATOM      8  C   LIG    1        0.053  -2.897   2.379  0.00  0.00    +0.095 A 
ATOM      9  C   LIG    1        0.066  -2.234   3.596  0.00  0.00    +0.160 A 
ATOM     10  C   LIG    1        0.046  -0.842   3.644  0.00  0.00    +0.049 A 
ATOM     11  C   LIG    1        0.026  -0.111   2.492  0.00  0.00    +0.015 A 
ATOM     12  O   LIG    1        0.030  -2.712  -2.204  0.00  0.00    -0.245 OA
ATOM     13  C   LIG    1        0.024  -0.763   1.254  0.00  0.00    +0.021 A 
ENDROOT
BRANCH   9  14
ATOM     14  O   LIG    1        0.086  -2.948   4.751  0.00  0.00    -0.346 OA
BRANCH  14  15
ATOM     15  S   LIG    1       -1.295  -3.293   5.290  0.00  0.00    +0.118 S 
ATOM     16  C   LIG    1       -1.897  -4.623   4.214  0.00  0.00    +0.242 C 
ATOM     17  O   LIG    1       -2.066  -2.116   5.091  0.00  0.00    -0.137 OA
ATOM     18  O   LIG    1       -1.058  -3.791   6.600  0.00  0.00    -0.137 OA
ENDBRANCH  14  15
ENDBRANCH   9  14
TORSDOF 2
