REMARK  Name = ZINC03120962
REMARK                            x       y       z     vdW  Elec       q    Type
REMARK                         _______ _______ _______ _____ _____    ______ ____
ROOT
ATOM      1  C   LIG    1       -1.155  -0.898   0.009  0.00  0.00    +0.249 C 
ATOM      2  O   LIG    1       -2.279  -0.437   0.022  0.00  0.00    -0.282 OA
ENDROOT
BRANCH   1   3
ATOM      3  C   LIG    1        0.002  -0.004   0.002  0.00  0.00    +0.052 A 
ATOM      4  C   LIG    1        1.335  -0.370  -0.013  0.00  0.00    +0.095 A 
ATOM      5  N   LIG    1        2.106   0.733  -0.014  0.00  0.00    -0.360 N 
ATOM      6  C   LIG    1        1.327   1.873  -0.001  0.00  0.00    +0.047 A 
ATOM      7  C   LIG    1        1.633   3.230   0.004  0.00  0.00    +0.026 A 
ATOM      8  C   LIG    1        0.618   4.164   0.019  0.00  0.00    +0.002 A 
ATOM      9  C   LIG    1       -0.709   3.765   0.030  0.00  0.00    +0.001 A 
ATOM     10  C   LIG    1       -1.032   2.424   0.030  0.00  0.00    +0.011 A 
ATOM     11  H   LIG    1        3.075   0.727  -0.023  0.00  0.00    +0.165 HD
ATOM     12  C   LIG    1       -0.018   1.472   0.010  0.00  0.00    +0.011 A 
ENDBRANCH   1   3
BRANCH   1  15
ATOM     13  N   LIG    1       -2.021  -3.201   0.005  0.00  0.00    -0.305 N 
ATOM     14  H   LIG    1       -2.918  -2.833   0.016  0.00  0.00    +0.149 HD
ATOM     15  C   LIG    1       -0.955  -2.377  -0.001  0.00  0.00    +0.285 C 
ATOM     16  O   LIG    1        0.169  -2.837  -0.015  0.00  0.00    -0.267 OA
BRANCH  13  17
ATOM     17  C   LIG    1       -1.824  -4.653  -0.005  0.00  0.00    +0.140 C 
BRANCH  17  21
ATOM     18  C   LIG    1       -5.624  -6.604   0.022  0.00  0.00    +0.000 A 
ATOM     19  C   LIG    1       -5.021  -6.282  -1.179  0.00  0.00    +0.000 A 
ATOM     20  C   LIG    1       -3.792  -5.650  -1.188  0.00  0.00    +0.005 A 
ATOM     21  C   LIG    1       -3.165  -5.341   0.005  0.00  0.00    -0.030 A 
ATOM     22  C   LIG    1       -3.765  -5.668   1.206  0.00  0.00    +0.005 A 
ATOM     23  C   LIG    1       -4.997  -6.295   1.215  0.00  0.00    +0.000 A 
ENDBRANCH  17  21
ENDBRANCH  13  17
ENDBRANCH   1  15
TORSDOF 4
