REMARK  Name = ZINC03194801
REMARK                            x       y       z     vdW  Elec       q    Type
REMARK                         _______ _______ _______ _____ _____    ______ ____
ROOT
ATOM      1  N   LIG    1        4.886   1.328  -0.037  0.00  0.00    -0.285 N 
ATOM      2  H   LIG    1        4.907   0.360   0.025  0.00  0.00    +0.155 HD
ATOM      3  C   LIG    1        6.037   2.021  -0.146  0.00  0.00    +0.224 C 
ATOM      4  O   LIG    1        6.017   3.234  -0.140  0.00  0.00    -0.275 OA
ENDROOT
BRANCH   3   5
ATOM      5  C   LIG    1        7.348   1.290  -0.276  0.00  0.00    +0.124 C 
ATOM      6  C   LIG    1        7.373   0.415  -1.569  0.00  0.00    +0.154 C 
ATOM      7  C   LIG    1        6.886   1.341  -2.686  0.00  0.00    +0.003 C 
ATOM      8  C   LIG    1        7.898   2.190  -2.915  0.00  0.00    +0.003 C 
ATOM      9  C   LIG    1        9.018   1.814  -1.942  0.00  0.00    +0.156 C 
ATOM     10  O   LIG    1        8.814   0.363  -1.844  0.00  0.00    -0.364 OA
ATOM     11  C   LIG    1        8.513   2.281  -0.541  0.00  0.00    +0.145 C 
BRANCH  11  12
ATOM     12  C   LIG    1        9.593   2.132   0.499  0.00  0.00    +0.311 C 
ATOM     13  O   LIG    1        9.473   1.317   1.383  0.00  0.00    -0.251 OA
BRANCH  12  14
ATOM     14  O   LIG    1       10.690   2.904   0.443  0.00  0.00    -0.480 OA
ATOM     15  H   LIG    1       10.783   3.536  -0.243  0.00  0.00    +0.295 HD
ENDBRANCH  12  14
ENDBRANCH  11  12
ENDBRANCH   3   5
BRANCH   1  20
ATOM     16  C   LIG    1        1.329   2.100  -0.590  0.00  0.00    +0.003 A 
ATOM     17  C   LIG    1        1.221   3.329   0.027  0.00  0.00    +0.015 A 
ATOM     18  C   LIG    1        2.341   3.912   0.623  0.00  0.00    +0.061 A 
ATOM     19  C   LIG    1        3.564   3.242   0.603  0.00  0.00    +0.038 A 
ATOM     20  C   LIG    1        3.661   2.005  -0.014  0.00  0.00    +0.034 A 
ATOM     21  C   LIG    1        2.541   1.436  -0.610  0.00  0.00    +0.023 A 
BRANCH  18  22
ATOM     22  C   LIG    1        2.229   5.231   1.279  0.00  0.00    +0.337 C 
ATOM     23  O   LIG    1        3.204   5.734   1.801  0.00  0.00    -0.245 OA
BRANCH  22  24
ATOM     24  O   LIG    1        1.045   5.874   1.302  0.00  0.00    -0.477 OA
ATOM     25  H   LIG    1        0.294   5.486   0.899  0.00  0.00    +0.295 HD
ENDBRANCH  22  24
ENDBRANCH  18  22
ENDBRANCH   1  20
TORSDOF 6
