REMARK  Name = ZINC02939076
REMARK                            x       y       z     vdW  Elec       q    Type
REMARK                         _______ _______ _______ _____ _____    ______ ____
ROOT
ATOM      1  C   LIG    1        9.000   5.541   0.913  0.00  0.00    +0.001 A 
ATOM      2  C   LIG    1        9.181   5.695   2.277  0.00  0.00    +0.002 A 
ATOM      3  C   LIG    1        8.248   5.208   3.169  0.00  0.00    +0.024 A 
ATOM      4  C   LIG    1        7.111   4.555   2.704  0.00  0.00    +0.042 A 
ATOM      5  C   LIG    1        6.932   4.402   1.323  0.00  0.00    +0.008 A 
ATOM      6  C   LIG    1        5.651   3.680   1.145  0.00  0.00    +0.046 C 
ATOM      7  C   LIG    1        5.146   3.459   2.511  0.00  0.00    +0.249 C 
ATOM      8  O   LIG    1        4.107   2.898   2.808  0.00  0.00    -0.270 OA
ATOM      9  C   LIG    1        5.064   3.307  -0.029  0.00  0.00    +0.021 C 
ATOM     10  N   LIG    1        6.036   3.981   3.372  0.00  0.00    -0.281 N 
ATOM     11  H   LIG    1        5.938   3.964   4.337  0.00  0.00    +0.155 HD
ATOM     12  C   LIG    1        7.879   4.896   0.432  0.00  0.00    +0.010 A 
ENDROOT
BRANCH   9  13
ATOM     13  C   LIG    1        3.875   2.449  -0.013  0.00  0.00    -0.024 A 
ATOM     14  C   LIG    1        3.782   1.393   0.903  0.00  0.00    +0.011 A 
ATOM     15  C   LIG    1        2.668   0.594   0.913  0.00  0.00    +0.046 A 
ATOM     16  C   LIG    1        1.632   0.829   0.015  0.00  0.00    +0.117 A 
ATOM     17  C   LIG    1        1.722   1.872  -0.900  0.00  0.00    +0.046 A 
ATOM     18  C   LIG    1        2.828   2.682  -0.915  0.00  0.00    +0.011 A 
BRANCH  16  19
ATOM     19  O   LIG    1        0.532   0.034   0.029  0.00  0.00    -0.507 OA
ATOM     20  H   LIG    1       -0.170   0.344   0.617  0.00  0.00    +0.292 HD
ENDBRANCH  16  19
ENDBRANCH   9  13
TORSDOF 2
