REMARK  Name = ZINC02530682
REMARK                            x       y       z     vdW  Elec       q    Type
REMARK                         _______ _______ _______ _____ _____    ______ ____
ROOT
ATOM      1  N   LIG    1       -1.601  -1.434  -1.112  0.00  0.00    -0.298 NA
ATOM      2  C   LIG    1       -0.398  -2.220  -0.887  0.00  0.00    +0.089 C 
ATOM      3  C   LIG    1        0.034  -2.936  -2.170  0.00  0.00    +0.052 C 
ATOM      4  C   LIG    1       -0.738  -4.236  -2.272  0.00  0.00    -0.025 A 
ATOM      5  C   LIG    1       -2.088  -4.211  -2.522  0.00  0.00    -0.031 A 
ATOM      6  C   LIG    1       -2.799  -2.885  -2.695  0.00  0.00    +0.063 C 
ATOM      7  C   LIG    1       -2.805  -5.391  -2.618  0.00  0.00    +0.053 A 
ATOM      8  C   LIG    1       -2.153  -6.604  -2.460  0.00  0.00    +0.160 A 
ATOM      9  C   LIG    1       -0.785  -6.630  -2.207  0.00  0.00    +0.173 A 
ATOM     10  C   LIG    1       -0.076  -5.441  -2.112  0.00  0.00    +0.066 A 
ATOM     11 BR   LIG    1        1.783  -5.466  -1.769  0.00  0.00    -0.046 Br
ATOM     12  C   LIG    1       -2.831  -2.175  -1.338  0.00  0.00    +0.097 C 
ENDROOT
BRANCH   6  13
ATOM     13  C   LIG    1       -2.056  -2.037  -3.695  0.00  0.00    -0.039 A 
ATOM     14  C   LIG    1       -1.421  -2.632  -4.769  0.00  0.00    +0.004 A 
ATOM     15  C   LIG    1       -0.740  -1.855  -5.687  0.00  0.00    +0.000 A 
ATOM     16  C   LIG    1       -0.694  -0.482  -5.531  0.00  0.00    +0.000 A 
ATOM     17  C   LIG    1       -1.329   0.113  -4.457  0.00  0.00    +0.000 A 
ATOM     18  C   LIG    1       -2.014  -0.664  -3.542  0.00  0.00    +0.004 A 
ENDBRANCH   6  13
BRANCH   8  19
ATOM     19  O   LIG    1       -2.849  -7.768  -2.553  0.00  0.00    -0.503 OA
ATOM     20  H   LIG    1       -2.891  -8.132  -3.448  0.00  0.00    +0.292 HD
ENDBRANCH   8  19
BRANCH   9  21
ATOM     21  O   LIG    1       -0.143  -7.819  -2.052  0.00  0.00    -0.503 OA
ATOM     22  H   LIG    1        0.203  -8.189  -2.876  0.00  0.00    +0.292 HD
ENDBRANCH   9  21
BRANCH   1  23
ATOM     23  C   LIG    1       -1.778  -0.428  -0.057  0.00  0.00    +0.111 C 
BRANCH  23  25
ATOM     24  C   LIG    1       -0.727   1.774  -0.122  0.00  0.00    +0.005 C 
ATOM     25  C   LIG    1       -0.574   0.477  -0.018  0.00  0.00    -0.019 C 
ENDBRANCH  23  25
ENDBRANCH   1  23
TORSDOF 5
