REMARK  Name = ZINC02940598
REMARK                            x       y       z     vdW  Elec       q    Type
REMARK                         _______ _______ _______ _____ _____    ______ ____
ROOT
ATOM      1  N   LIG    1       -3.004  -1.778  -1.420  0.00  0.00    -0.315 N 
ATOM      2  H   LIG    1       -3.412  -2.031  -0.578  0.00  0.00    +0.149 HD
ATOM      3  C   LIG    1       -3.594  -2.117  -2.584  0.00  0.00    +0.215 C 
ATOM      4  O   LIG    1       -3.084  -1.801  -3.637  0.00  0.00    -0.276 OA
ENDROOT
BRANCH   1   5
ATOM      5  C   LIG    1       -1.745  -1.028  -1.429  0.00  0.00    +0.109 C 
BRANCH   5   6
ATOM      6  C   LIG    1       -1.293  -0.775   0.011  0.00  0.00    +0.054 C 
BRANCH   6  12
ATOM      7  C   LIG    1       -0.017   1.378   0.010  0.00  0.00    +0.005 A 
ATOM      8  C   LIG    1        1.171   2.086   0.002  0.00  0.00    +0.029 A 
ATOM      9  C   LIG    1        2.377   1.411  -0.013  0.00  0.00    +0.105 A 
ATOM     10  C   LIG    1        2.396   0.029  -0.020  0.00  0.00    +0.029 A 
ATOM     11  C   LIG    1        1.208  -0.679  -0.012  0.00  0.00    +0.005 A 
ATOM     12  C   LIG    1        0.002  -0.004   0.002  0.00  0.00    -0.046 A 
BRANCH   9  13
ATOM     13  S   LIG    1        3.891   2.312  -0.024  0.00  0.00    +0.056 S 
ATOM     14  O   LIG    1        3.597   3.593  -0.566  0.00  0.00    -0.153 OA
ATOM     15  O   LIG    1        4.872   1.453  -0.588  0.00  0.00    -0.153 OA
BRANCH  13  16
ATOM     16  N   LIG    1        4.327   2.556   1.555  0.00  0.00    -0.204 NA
ATOM     17  H   LIG    1        5.142   3.039   1.764  0.00  0.00    +0.144 HD
ATOM     18  H   LIG    1        3.768   2.215   2.271  0.00  0.00    +0.144 HD
ENDBRANCH  13  16
ENDBRANCH   9  13
ENDBRANCH   6  12
ENDBRANCH   5   6
ENDBRANCH   1   5
BRANCH   3  19
ATOM     19  C   LIG    1       -4.889  -2.888  -2.575  0.00  0.00    +0.119 C 
BRANCH  19  20
ATOM     20  C   LIG    1       -5.341  -3.141  -4.014  0.00  0.00    +0.181 C 
BRANCH  20  21
ATOM     21  S   LIG    1       -6.900  -4.069  -4.004  0.00  0.00    -0.003 S 
ATOM     22  O   LIG    1       -7.947  -3.262  -3.484  0.00  0.00    -0.169 OA
ATOM     23  O   LIG    1       -6.684  -5.383  -3.508  0.00  0.00    -0.169 OA
BRANCH  21  24
ATOM     24  C   LIG    1       -7.306  -4.292  -5.704  0.00  0.00    +0.088 A 
ATOM     25  C   LIG    1       -8.073  -3.348  -6.361  0.00  0.00    +0.028 A 
ATOM     26  C   LIG    1       -8.391  -3.522  -7.694  0.00  0.00    +0.017 A 
ATOM     27  C   LIG    1       -7.942  -4.641  -8.372  0.00  0.00    +0.018 A 
ATOM     28 BR   LIG    1       -8.377  -4.880 -10.197  0.00  0.00    -0.050 Br
ATOM     29  C   LIG    1       -7.174  -5.585  -7.715  0.00  0.00    +0.017 A 
ATOM     30  C   LIG    1       -6.852  -5.408  -6.382  0.00  0.00    +0.028 A 
ENDBRANCH  21  24
ENDBRANCH  20  21
ENDBRANCH  19  20
ENDBRANCH   3  19
TORSDOF 9
