REMARK  Name = ZINC03607120
REMARK                            x       y       z     vdW  Elec       q    Type
REMARK                         _______ _______ _______ _____ _____    ______ ____
ROOT
ATOM      1  C   LIG    1       -2.064  -2.928  -0.675  0.00  0.00    +0.110 A 
ATOM      2  C   LIG    1       -3.373  -3.295  -0.360  0.00  0.00    +0.149 A 
ATOM      3  F   LIG    1       -3.921  -2.894   0.808  0.00  0.00    -0.203 F 
ATOM      4  C   LIG    1       -4.104  -4.058  -1.227  0.00  0.00    +0.054 A 
ATOM      5  C   LIG    1       -3.539  -4.473  -2.435  0.00  0.00    +0.052 A 
ATOM      6  C   LIG    1       -2.221  -4.110  -2.765  0.00  0.00    +0.097 A 
ATOM      7  N   LIG    1       -1.663  -4.521  -3.959  0.00  0.00    -0.340 N 
ATOM      8  C   LIG    1       -2.325  -5.269  -4.848  0.00  0.00    +0.105 A 
ATOM      9  C   LIG    1       -3.625  -5.688  -4.635  0.00  0.00    +0.122 A 
ATOM     10  C   LIG    1       -4.303  -5.296  -3.388  0.00  0.00    +0.204 A 
ATOM     11  O   LIG    1       -5.449  -5.640  -3.154  0.00  0.00    -0.286 OA
ATOM     12  C   LIG    1       -1.489  -3.328  -1.874  0.00  0.00    +0.168 A 
ENDROOT
BRANCH   1  16
ATOM     13  C   LIG    1        0.070   1.368   0.205  0.00  0.00    -0.012 C 
ATOM     14  C   LIG    1        0.079  -0.160   0.142  0.00  0.00    -0.057 C 
ATOM     15  C   LIG    1       -1.363  -0.680   0.149  0.00  0.00    +0.089 C 
ATOM     16  N   LIG    1       -1.329  -2.149   0.220  0.00  0.00    -0.328 N 
ATOM     17  C   LIG    1       -0.498  -2.773   1.262  0.00  0.00    +0.086 C 
ATOM     18  C   LIG    1        0.902  -2.155   1.202  0.00  0.00    -0.063 C 
ATOM     19  N   LIG    1        0.796  -0.694   1.306  0.00  0.00    +0.383 N 
ATOM     20  H   LIG    1        0.295  -0.454   2.148  0.00  0.00    -0.085 HD
ATOM     21  H   LIG    1        1.722  -0.293   1.342  0.00  0.00    -0.085 HD
ENDBRANCH   1  16
BRANCH   7  22
ATOM     22  C   LIG    1       -0.287  -4.121  -4.264  0.00  0.00    +0.088 C 
ATOM     23  C   LIG    1        0.295  -4.562  -5.609  0.00  0.00    +0.027 C 
ATOM     24  C   LIG    1        0.774  -5.222  -4.314  0.00  0.00    +0.027 C 
ENDBRANCH   7  22
BRANCH   9  25
ATOM     25  C   LIG    1       -4.317  -6.506  -5.635  0.00  0.00    +0.342 C 
ATOM     26  O   LIG    1       -3.744  -6.825  -6.669  0.00  0.00    -0.245 OA
BRANCH  25  27
ATOM     27  O   LIG    1       -5.469  -6.871  -5.436  0.00  0.00    -0.477 OA
ATOM     28  H   LIG    1       -5.908  -6.627  -4.645  0.00  0.00    +0.295 HD
ENDBRANCH  25  27
ENDBRANCH   9  25
BRANCH  12  29
ATOM     29  O   LIG    1       -0.214  -2.961  -2.176  0.00  0.00    -0.491 OA
ATOM     30  C   LIG    1        0.831  -3.842  -1.758  0.00  0.00    +0.277 C 
ENDBRANCH  12  29
TORSDOF 5
