REMARK  Name = ZINC03610032
REMARK                            x       y       z     vdW  Elec       q    Type
REMARK                         _______ _______ _______ _____ _____    ______ ____
ROOT
ATOM      1  C   LIG    1       -0.363   7.051   3.913  0.00  0.00    +0.001 A 
ATOM      2  C   LIG    1        0.785   6.321   3.663  0.00  0.00    +0.001 A 
ATOM      3  C   LIG    1        0.977   5.726   2.428  0.00  0.00    +0.011 A 
ATOM      4  C   LIG    1        0.022   5.859   1.444  0.00  0.00    +0.045 A 
ATOM      5  C   LIG    1       -1.137   6.591   1.688  0.00  0.00    +0.071 A 
ATOM      6  C   LIG    1       -1.986   6.570   0.464  0.00  0.00    +0.276 C 
ATOM      7  N   LIG    1       -3.142   7.050   0.075  0.00  0.00    -0.271 N 
ATOM      8  H   LIG    1       -3.766   7.623   0.654  0.00  0.00    +0.304 HD
ATOM      9  C   LIG    1       -3.414   6.648  -1.313  0.00  0.00    +0.277 C 
ATOM     10  C   LIG    1       -2.184   5.813  -1.716  0.00  0.00    +0.274 C 
ATOM     11  N   LIG    1       -1.349   5.836  -0.504  0.00  0.00    -0.183 N 
ATOM     12  C   LIG    1       -0.072   5.348   0.030  0.00  0.00    +0.256 C 
ATOM     13  C   LIG    1       -1.326   7.191   2.933  0.00  0.00    +0.016 A 
ENDROOT
BRANCH  12  14
ATOM     14  C   LIG    1       -0.050   3.841   0.022  0.00  0.00    +0.032 A 
ATOM     15  C   LIG    1       -1.238   3.133   0.030  0.00  0.00    +0.011 A 
ATOM     16  C   LIG    1       -1.219   1.751   0.017  0.00  0.00    +0.002 A 
ATOM     17  C   LIG    1       -0.013   1.076   0.008  0.00  0.00    +0.020 A 
ATOM     18  C   LIG    1        1.176   1.784   0.000  0.00  0.00    +0.041 A 
ATOM     19 CL   LIG    1        2.691   0.937  -0.019  0.00  0.00    -0.084 Cl
ATOM     20  C   LIG    1        1.156   3.167   0.007  0.00  0.00    +0.030 A 
ENDBRANCH  12  14
BRANCH  12  21
ATOM     21  O   LIG    1        1.013   5.857  -0.748  0.00  0.00    -0.346 OA
ATOM     22  H   LIG    1        1.885   5.579  -0.437  0.00  0.00    +0.215 HD
ENDBRANCH  12  21
TORSDOF 2
