REMARK  Name = ZINC02914165
REMARK                            x       y       z     vdW  Elec       q    Type
REMARK                         _______ _______ _______ _____ _____    ______ ____
ROOT
ATOM      1  C   LIG    1       -5.100  -3.831   0.044  0.00  0.00    +0.085 C 
ATOM      2  C   LIG    1       -5.464  -5.147   0.047  0.00  0.00    +0.060 C 
ATOM      3  C   LIG    1       -6.838  -5.702   0.052  0.00  0.00    +0.010 A 
ATOM      4  C   LIG    1       -8.101  -5.122   0.056  0.00  0.00    +0.010 A 
ATOM      5  C   LIG    1       -9.223  -5.925   0.061  0.00  0.00    +0.001 A 
ATOM      6  C   LIG    1       -9.091  -7.303   0.063  0.00  0.00    +0.002 A 
ATOM      7  C   LIG    1       -7.842  -7.889   0.060  0.00  0.00    +0.024 A 
ATOM      8  C   LIG    1       -6.699  -7.096   0.054  0.00  0.00    +0.042 A 
ATOM      9  N   LIG    1       -5.348  -7.420   0.049  0.00  0.00    -0.281 N 
ATOM     10  H   LIG    1       -5.003  -8.326   0.049  0.00  0.00    +0.155 HD
ATOM     11  C   LIG    1       -4.580  -6.317   0.038  0.00  0.00    +0.250 C 
ATOM     12  O   LIG    1       -3.361  -6.294   0.028  0.00  0.00    -0.270 OA
ENDROOT
BRANCH   1  13
ATOM     13  N   LIG    1       -3.783  -3.489   0.033  0.00  0.00    -0.320 N 
ATOM     14  H   LIG    1       -3.102  -4.180   0.027  0.00  0.00    +0.152 HD
BRANCH  13  19
ATOM     15  C   LIG    1       -1.702  -0.454   0.016  0.00  0.00    +0.009 A 
ATOM     16  C   LIG    1       -2.682   0.533   0.025  0.00  0.00    +0.015 A 
ATOM     17  C   LIG    1       -4.017   0.181   0.036  0.00  0.00    +0.003 A 
ATOM     18  C   LIG    1       -4.384  -1.151   0.038  0.00  0.00    +0.023 A 
ATOM     19  C   LIG    1       -3.410  -2.142   0.029  0.00  0.00    +0.032 A 
ATOM     20  C   LIG    1       -2.067  -1.793   0.012  0.00  0.00    +0.038 A 
BRANCH  15  22
ATOM     21  C   LIG    1       -0.022   1.810   0.012  0.00  0.00    +0.090 C 
ATOM     22  S   LIG    1        0.002  -0.004   0.002  0.00  0.00    -0.129 S 
ENDBRANCH  15  22
ENDBRANCH  13  19
ENDBRANCH   1  13
TORSDOF 3
