REMARK  Name = ZINC02516058
REMARK                            x       y       z     vdW  Elec       q    Type
REMARK                         _______ _______ _______ _____ _____    ______ ____
ROOT
ATOM      1  C   LIG    1        3.702   2.153  -0.104  0.00  0.00    +0.032 C 
ATOM      2  C   LIG    1        3.629   3.515   0.583  0.00  0.00    -0.070 C 
ATOM      3  N   LIG    1        3.271   4.537  -0.421  0.00  0.00    +0.380 N 
ATOM      4  H   LIG    1        3.245   5.459   0.030  0.00  0.00    -0.086 HD
ATOM      5  H   LIG    1        3.977   4.540  -1.166  0.00  0.00    -0.086 HD
ATOM      6  C   LIG    1        1.952   4.246  -1.005  0.00  0.00    -0.078 C 
ATOM      7  C   LIG    1        1.080   3.599   0.075  0.00  0.00    +0.016 C 
ATOM      8  C   LIG    1        1.170   2.097   0.002  0.00  0.00    -0.044 A 
ATOM      9  C   LIG    1       -0.017   1.376   0.010  0.00  0.00    +0.027 A 
ATOM     10  C   LIG    1        0.002  -0.004   0.002  0.00  0.00    +0.083 A 
ATOM     11 CL   LIG    1       -1.487  -0.897   0.016  0.00  0.00    -0.080 Cl
ATOM     12  C   LIG    1        1.218  -0.674  -0.017  0.00  0.00    +0.135 A 
ATOM     13  C   LIG    1        2.398   0.047  -0.042  0.00  0.00    +0.051 A 
ATOM     14  C   LIG    1        2.376   1.436  -0.040  0.00  0.00    -0.035 A 
ENDROOT
BRANCH   1  18
ATOM     15  C   LIG    1        6.676  -0.231   1.825  0.00  0.00    +0.000 A 
ATOM     16  C   LIG    1        6.816   0.103   0.491  0.00  0.00    +0.000 A 
ATOM     17  C   LIG    1        5.854   0.874  -0.133  0.00  0.00    +0.004 A 
ATOM     18  C   LIG    1        4.751   1.312   0.576  0.00  0.00    -0.042 A 
ATOM     19  C   LIG    1        4.613   0.982   1.912  0.00  0.00    +0.004 A 
ATOM     20  C   LIG    1        5.573   0.207   2.535  0.00  0.00    +0.000 A 
ENDBRANCH   1  18
BRANCH  12  21
ATOM     21  O   LIG    1        1.248  -2.033  -0.012  0.00  0.00    -0.505 OA
ATOM     22  H   LIG    1        1.241  -2.430  -0.894  0.00  0.00    +0.292 HD
ENDBRANCH  12  21
TORSDOF 2
