REMARK  Name = ZINC02570830
REMARK                            x       y       z     vdW  Elec       q    Type
REMARK                         _______ _______ _______ _____ _____    ______ ____
ROOT
ATOM      1  C   LIG    1        0.128   1.363  -0.214  0.00  0.00    +0.088 C 
ATOM      2  C   LIG    1        0.080  -0.141  -0.129  0.00  0.00    +0.135 A 
ATOM      3  N   LIG    1        0.041  -0.977  -1.135  0.00  0.00    -0.134 NA
ATOM      4  N   LIG    1        0.015  -2.189  -0.699  0.00  0.00    -0.132 NA
ATOM      5  C   LIG    1        0.041  -2.190   0.600  0.00  0.00    +0.160 A 
ATOM      6  C   LIG    1        0.047  -3.369   1.537  0.00  0.00    +0.218 C 
ATOM      7  N   LIG    1        1.258  -3.324   2.369  0.00  0.00    -0.275 NA
ATOM      8  C   LIG    1        1.495  -2.379   3.219  0.00  0.00    +0.077 C 
ATOM      9  C   LIG    1        0.686  -1.152   3.397  0.00  0.00    +0.033 A 
ATOM     10  C   LIG    1        0.478  -0.520   4.689  0.00  0.00    +0.035 A 
ATOM     11  C   LIG    1       -0.231   0.619   4.762  0.00  0.00    +0.058 A 
ATOM     12 BR   LIG    1       -0.652   1.647   6.293  0.00  0.00    -0.042 Br
ATOM     13  S   LIG    1       -0.678   0.924   3.063  0.00  0.00    -0.063 S 
ATOM     14  C   LIG    1        0.080  -0.498   2.326  0.00  0.00    +0.097 A 
ATOM     15  N   LIG    1        0.075  -0.885   1.004  0.00  0.00    -0.275 N 
ENDROOT
BRANCH   8  16
ATOM     16  C   LIG    1        2.682  -2.537   4.091  0.00  0.00    +0.019 A 
ATOM     17  C   LIG    1        2.727  -3.565   5.033  0.00  0.00    +0.011 A 
ATOM     18  C   LIG    1        3.834  -3.708   5.842  0.00  0.00    +0.001 A 
ATOM     19  C   LIG    1        4.901  -2.833   5.722  0.00  0.00    +0.001 A 
ATOM     20  C   LIG    1        4.863  -1.812   4.791  0.00  0.00    +0.020 A 
ATOM     21  C   LIG    1        3.762  -1.662   3.970  0.00  0.00    +0.050 A 
ATOM     22 CL   LIG    1        3.719  -0.384   2.796  0.00  0.00    -0.083 Cl
ENDBRANCH   8  16
TORSDOF 1
