REMARK  Name = ZINC02679219
REMARK                            x       y       z     vdW  Elec       q    Type
REMARK                         _______ _______ _______ _____ _____    ______ ____
ROOT
ATOM      1  C   LIG    1       -3.667  -1.145   0.014  0.00  0.00    +0.022 A 
ATOM      2  C   LIG    1       -2.457  -0.522   0.011  0.00  0.00    +0.031 A 
ATOM      3  C   LIG    1       -2.448   0.873   0.018  0.00  0.00    +0.066 A 
ATOM      4  C   LIG    1       -3.677   1.528   0.033  0.00  0.00    +0.085 A 
ATOM      5  S   LIG    1       -4.813   0.219   0.027  0.00  0.00    -0.073 S 
ENDROOT
BRANCH   1   9
ATOM      6  C   LIG    1       -4.502  -5.310  -0.004  0.00  0.00    +0.000 A 
ATOM      7  C   LIG    1       -5.543  -4.399   0.006  0.00  0.00    +0.001 A 
ATOM      8  C   LIG    1       -5.279  -3.045   0.012  0.00  0.00    +0.009 A 
ATOM      9  C   LIG    1       -3.957  -2.595   0.007  0.00  0.00    -0.011 A 
ATOM     10  C   LIG    1       -2.912  -3.519  -0.009  0.00  0.00    +0.009 A 
ATOM     11  C   LIG    1       -3.190  -4.870  -0.009  0.00  0.00    +0.001 A 
ENDBRANCH   1   9
BRANCH   3  12
ATOM     12  C   LIG    1       -1.187   1.624   0.017  0.00  0.00    +0.244 C 
ATOM     13  N   LIG    1       -0.011   0.966   0.007  0.00  0.00    -0.325 N 
ATOM     14  H   LIG    1        0.822   1.462   0.002  0.00  0.00    +0.145 HD
ATOM     15  H   LIG    1        0.002  -0.004   0.002  0.00  0.00    +0.145 HD
ATOM     16  O   LIG    1       -1.204   2.841   0.023  0.00  0.00    -0.270 OA
ENDBRANCH   3  12
BRANCH   4  17
ATOM     17  N   LIG    1       -3.930   2.889   0.047  0.00  0.00    -0.275 N 
ATOM     18  H   LIG    1       -3.192   3.519   0.048  0.00  0.00    +0.156 HD
ATOM     19  C   LIG    1       -5.200   3.339   0.060  0.00  0.00    +0.249 C 
ATOM     20  O   LIG    1       -6.125   2.549   0.060  0.00  0.00    -0.270 OA
BRANCH  19  21
ATOM     21  C   LIG    1       -5.469   4.789   0.075  0.00  0.00    +0.037 A 
ATOM     22  C   LIG    1       -4.407   5.699   0.082  0.00  0.00    +0.016 A 
ATOM     23  C   LIG    1       -4.663   7.052   0.089  0.00  0.00    +0.046 A 
ATOM     24  C   LIG    1       -5.974   7.514   0.103  0.00  0.00    +0.127 A 
ATOM     25  C   LIG    1       -7.032   6.612   0.103  0.00  0.00    +0.046 A 
ATOM     26  C   LIG    1       -6.785   5.258   0.089  0.00  0.00    +0.016 A 
BRANCH  24  27
ATOM     27  O   LIG    1       -6.221   8.848   0.117  0.00  0.00    -0.434 OA
BRANCH  27  28
ATOM     28  C   LIG    1       -5.087   9.718   0.117  0.00  0.00    +0.541 C 
ATOM     29  F   LIG    1       -4.324   9.489  -1.034  0.00  0.00    -0.166 F 
ATOM     30  F   LIG    1       -4.308   9.468   1.251  0.00  0.00    -0.166 F 
ENDBRANCH  27  28
ENDBRANCH  24  27
ENDBRANCH  19  21
ENDBRANCH   4  17
TORSDOF 6
