REMARK  Name = ZINC02567732
REMARK                            x       y       z     vdW  Elec       q    Type
REMARK                         _______ _______ _______ _____ _____    ______ ____
ROOT
ATOM      1  C   LIG    1       -2.199  -4.205  -0.022  0.00  0.00    -0.021 A 
ATOM      2  C   LIG    1       -2.373  -4.992  -1.095  0.00  0.00    +0.087 A 
ATOM      3  N   LIG    1       -2.522  -6.293  -0.701  0.00  0.00    -0.360 N 
ATOM      4  C   LIG    1       -2.445  -6.378   0.673  0.00  0.00    +0.047 A 
ATOM      5  C   LIG    1       -2.530  -7.437   1.570  0.00  0.00    +0.028 A 
ATOM      6  C   LIG    1       -2.396  -7.207   2.921  0.00  0.00    +0.025 A 
ATOM      7  C   LIG    1       -2.190  -5.917   3.405  0.00  0.00    +0.037 A 
ATOM      8  C   LIG    1       -2.108  -4.850   2.529  0.00  0.00    +0.033 A 
ATOM      9  H   LIG    1       -2.660  -7.044  -1.299  0.00  0.00    +0.165 HD
ATOM     10  C   LIG    1       -2.233  -5.074   1.157  0.00  0.00    +0.005 A 
ENDROOT
BRANCH   7  11
ATOM     11  N   LIG    1       -2.066  -5.699   4.784  0.00  0.00    -0.251 N 
ATOM     12  H   LIG    1       -1.649  -6.372   5.346  0.00  0.00    +0.158 HD
ATOM     13  C   LIG    1       -2.525  -4.556   5.330  0.00  0.00    +0.404 C 
ATOM     14  O   LIG    1       -3.132  -3.756   4.645  0.00  0.00    -0.226 OA
BRANCH  13  15
ATOM     15  O   LIG    1       -2.310  -4.299   6.634  0.00  0.00    -0.453 OA
ATOM     16  C   LIG    1       -2.824  -3.068   7.146  0.00  0.00    +0.282 C 
ENDBRANCH  13  15
ENDBRANCH   7  11
BRANCH   1  17
ATOM     17  C   LIG    1       -1.999  -2.711  -0.028  0.00  0.00    +0.056 C 
BRANCH  17  18
ATOM     18  C   LIG    1       -0.502  -2.396  -0.004  0.00  0.00    +0.109 C 
BRANCH  18  21
ATOM     19  C   LIG    1        1.137   1.063   0.003  0.00  0.00    +0.109 C 
ATOM     20  C   LIG    1        0.938  -0.430   0.009  0.00  0.00    +0.210 C 
ATOM     21  N   LIG    1       -0.308  -0.944  -0.010  0.00  0.00    -0.315 N 
ATOM     22  H   LIG    1       -1.077  -0.352  -0.028  0.00  0.00    +0.149 HD
ATOM     23  O   LIG    1        1.898  -1.170   0.031  0.00  0.00    -0.276 OA
ENDBRANCH  18  21
ENDBRANCH  17  18
ENDBRANCH   1  17
TORSDOF 5
