REMARK  Name = ZINC02879523
REMARK                            x       y       z     vdW  Elec       q    Type
REMARK                         _______ _______ _______ _____ _____    ______ ____
ROOT
ATOM      1  C   LIG    1        4.072  -1.282   2.521  0.00  0.00    +0.060 A 
ATOM      2  C   LIG    1        5.062  -1.028   1.458  0.00  0.00    +0.011 A 
ATOM      3  C   LIG    1        4.962  -0.647   0.121  0.00  0.00    +0.011 A 
ATOM      4  C   LIG    1        6.105  -0.488  -0.631  0.00  0.00    +0.001 A 
ATOM      5  C   LIG    1        7.351  -0.705  -0.063  0.00  0.00    +0.002 A 
ATOM      6  C   LIG    1        7.465  -1.082   1.258  0.00  0.00    +0.026 A 
ATOM      7  C   LIG    1        6.322  -1.248   2.035  0.00  0.00    +0.048 A 
ATOM      8  N   LIG    1        6.132  -1.611   3.354  0.00  0.00    -0.354 N 
ATOM      9  H   LIG    1        6.845  -1.820   3.978  0.00  0.00    +0.166 HD
ATOM     10  C   LIG    1        4.806  -1.630   3.658  0.00  0.00    +0.059 A 
ENDROOT
BRANCH  10  11
ATOM     11  C   LIG    1        4.234  -1.968   4.975  0.00  0.00    -0.001 A 
ATOM     12  C   LIG    1        3.210  -1.187   5.516  0.00  0.00    +0.010 A 
ATOM     13  C   LIG    1        2.680  -1.508   6.748  0.00  0.00    +0.001 A 
ATOM     14  C   LIG    1        3.161  -2.602   7.448  0.00  0.00    +0.000 A 
ATOM     15  C   LIG    1        4.175  -3.380   6.918  0.00  0.00    +0.001 A 
ATOM     16  C   LIG    1        4.711  -3.074   5.685  0.00  0.00    +0.010 A 
ENDBRANCH  10  11
BRANCH   1  17
ATOM     17  C   LIG    1        2.665  -1.186   2.413  0.00  0.00    +0.250 C 
ATOM     18  O   LIG    1        1.959  -1.522   3.345  0.00  0.00    -0.282 OA
BRANCH  17  20
ATOM     19  N   LIG    1        1.722   0.630   1.049  0.00  0.00    -0.295 N 
ATOM     20  C   LIG    1        2.047  -0.674   1.157  0.00  0.00    +0.287 C 
ATOM     21  O   LIG    1        1.836  -1.431   0.232  0.00  0.00    -0.266 OA
BRANCH  19  23
ATOM     22  C   LIG    1        2.030   1.541  -1.199  0.00  0.00    +0.024 C 
ATOM     23  C   LIG    1        1.014   1.112  -0.139  0.00  0.00    +0.105 C 
ENDBRANCH  19  23
BRANCH  19  24
ATOM     24  C   LIG    1        2.077   1.564   2.120  0.00  0.00    +0.105 C 
ATOM     25  C   LIG    1        0.891   1.723   3.073  0.00  0.00    +0.024 C 
ENDBRANCH  19  24
ENDBRANCH  17  20
ENDBRANCH   1  17
TORSDOF 5
