REMARK  Name = ZINC03067706
REMARK                            x       y       z     vdW  Elec       q    Type
REMARK                         _______ _______ _______ _____ _____    ______ ____
ROOT
ATOM      1  C   LIG    1       -3.504   1.435  -4.069  0.00  0.00    +0.166 C 
ENDROOT
BRANCH   1   3
ATOM      2  C   LIG    1       -3.065   0.520  -6.284  0.00  0.00    +0.401 C 
ATOM      3  N   LIG    1       -3.357   1.590  -5.518  0.00  0.00    -0.269 N 
ATOM      4  H   LIG    1       -3.471   2.462  -5.926  0.00  0.00    +0.153 HD
ATOM      5  O   LIG    1       -2.923  -0.573  -5.772  0.00  0.00    -0.226 OA
BRANCH   2   6
ATOM      6  O   LIG    1       -2.930   0.663  -7.616  0.00  0.00    -0.445 OA
BRANCH   6   8
ATOM      7  C   LIG    1       -3.724  -1.567  -8.186  0.00  0.00    +0.055 C 
ATOM      8  C   LIG    1       -2.614  -0.532  -8.378  0.00  0.00    +0.107 C 
ATOM      9  C   LIG    1       -1.285  -1.112  -7.890  0.00  0.00    +0.055 C 
ATOM     10  C   LIG    1       -2.501  -0.175  -9.862  0.00  0.00    +0.055 C 
ENDBRANCH   6   8
ENDBRANCH   2   6
ENDBRANCH   1   3
BRANCH   1  11
ATOM     11  C   LIG    1       -3.217   2.750  -3.391  0.00  0.00    +0.234 C 
ATOM     12  N   LIG    1       -3.291   2.846  -2.049  0.00  0.00    -0.302 N 
ATOM     13  H   LIG    1       -3.530   2.070  -1.519  0.00  0.00    +0.150 HD
ATOM     14  O   LIG    1       -2.919   3.721  -4.053  0.00  0.00    -0.274 OA
BRANCH  12  15
ATOM     15  C   LIG    1       -3.012   4.125  -1.390  0.00  0.00    +0.163 C 
BRANCH  15  16
ATOM     16  C   LIG    1       -4.262   4.966  -1.375  0.00  0.00    +0.231 C 
ATOM     17  N   LIG    1       -4.243   6.192  -0.816  0.00  0.00    -0.328 N 
ATOM     18  H   LIG    1       -5.048   6.734  -0.806  0.00  0.00    +0.145 HD
ATOM     19  H   LIG    1       -3.424   6.533  -0.423  0.00  0.00    +0.145 HD
ATOM     20  O   LIG    1       -5.286   4.540  -1.867  0.00  0.00    -0.274 OA
ENDBRANCH  15  16
BRANCH  15  21
ATOM     21  C   LIG    1       -2.553   3.869   0.047  0.00  0.00    +0.067 C 
BRANCH  21  22
ATOM     22  C   LIG    1       -1.238   3.133   0.030  0.00  0.00    -0.045 A 
ATOM     23  C   LIG    1       -1.219   1.751   0.017  0.00  0.00    +0.004 A 
ATOM     24  C   LIG    1       -0.013   1.076   0.008  0.00  0.00    +0.000 A 
ATOM     25  C   LIG    1        1.175   1.783   0.000  0.00  0.00    +0.000 A 
ATOM     26  C   LIG    1        1.156   3.165   0.008  0.00  0.00    +0.000 A 
ATOM     27  C   LIG    1       -0.050   3.840   0.022  0.00  0.00    +0.004 A 
ENDBRANCH  21  22
ENDBRANCH  15  21
ENDBRANCH  12  15
ENDBRANCH   1  11
BRANCH   1  28
ATOM     28  C   LIG    1       -4.934   0.996  -3.745  0.00  0.00    +0.067 C 
BRANCH  28  29
ATOM     29  C   LIG    1       -5.181  -0.375  -4.320  0.00  0.00    -0.045 A 
ATOM     30  C   LIG    1       -5.683  -0.507  -5.601  0.00  0.00    +0.004 A 
ATOM     31  C   LIG    1       -5.904  -1.765  -6.130  0.00  0.00    +0.000 A 
ATOM     32  C   LIG    1       -5.634  -2.891  -5.374  0.00  0.00    +0.000 A 
ATOM     33  C   LIG    1       -5.137  -2.758  -4.091  0.00  0.00    +0.000 A 
ATOM     34  C   LIG    1       -4.910  -1.501  -3.564  0.00  0.00    +0.004 A 
ENDBRANCH  28  29
ENDBRANCH   1  28
TORSDOF 10
