REMARK  Name = ZINC02562346
REMARK                            x       y       z     vdW  Elec       q    Type
REMARK                         _______ _______ _______ _____ _____    ______ ____
ROOT
ATOM      1  CA  THR A  1       -0.733   1.918   1.269  0.00  0.00    -0.014 C 
ATOM      2  N   THR A  1        0.062   1.609   2.471  0.00  0.00    +0.389 N 
ATOM      3  H1  THR A  1       -0.285   0.743   2.900  0.00  0.00    -0.085 HD
ATOM      4  H2  THR A  1        1.048   1.492   2.211  0.00  0.00    -0.085 HD
ATOM      5  CA  THR A  1       -0.068   2.721   3.428  0.00  0.00    -0.014 C 
ATOM      6  CB  THR A  1       -0.976   3.780   2.769  0.00  0.00    +0.130 C 
ATOM      7  CG2 THR A  1       -0.843   3.463   1.256  0.00  0.00    +0.130 C 
ENDROOT
BRANCH   6   8
ATOM      8  OG1 THR A  1       -2.330   3.624   3.201  0.00  0.00    -0.391 OA
ATOM      9  HG1 THR A  1       -2.954   4.216   2.759  0.00  0.00    +0.210 HD
ENDBRANCH   6   8
BRANCH   7  10
ATOM     10  OG1 THR A  1        0.338   4.056   0.711  0.00  0.00    -0.391 OA
ATOM     11  HG1 THR A  1        0.316   5.022   0.683  0.00  0.00    +0.210 HD
ENDBRANCH   7  10
BRANCH   1  12
ATOM     12  C   THR A  1       -0.017   1.425   0.010  0.00  0.00    +0.143 C 
BRANCH  12  13
ATOM     13  O   THR A  1        0.002  -0.004   0.002  0.00  0.00    -0.397 OA
ATOM     14  H   THR A  1        0.442  -0.387  -0.769  0.00  0.00    +0.209 HD
ENDBRANCH  12  13
ENDBRANCH   1  12
BRANCH   5  15
ATOM     15  C   THR A  1       -0.708   2.220   4.724  0.00  0.00    +0.143 C 
BRANCH  15  16
ATOM     16  O   THR A  1        0.192   1.328   5.385  0.00  0.00    -0.397 OA
ATOM     17  H   THR A  1       -0.149   0.971   6.217  0.00  0.00    +0.209 HD
ENDBRANCH  15  16
ENDBRANCH   5  15
TORSDOF 6
