REMARK  Name = ZINC02602006
REMARK                            x       y       z     vdW  Elec       q    Type
REMARK                         _______ _______ _______ _____ _____    ______ ____
ROOT
ATOM      1  C   LIG    1        3.699  -0.689  -0.038  0.00  0.00    +0.182 A 
ATOM      2  N   LIG    1        3.845  -2.018  -0.052  0.00  0.00    -0.206 NA
ATOM      3  C   LIG    1        5.123  -2.323  -0.066  0.00  0.00    +0.171 A 
ATOM      4  C   LIG    1        5.879  -3.580  -0.085  0.00  0.00    +0.045 A 
ATOM      5  C   LIG    1        5.248  -4.822  -0.092  0.00  0.00    +0.014 A 
ATOM      6  C   LIG    1        6.007  -5.971  -0.110  0.00  0.00    +0.001 A 
ATOM      7  C   LIG    1        7.394  -5.901  -0.120  0.00  0.00    +0.002 A 
ATOM      8  C   LIG    1        8.038  -4.685  -0.113  0.00  0.00    +0.028 A 
ATOM      9  C   LIG    1        7.290  -3.504  -0.096  0.00  0.00    +0.080 A 
ATOM     10  N   LIG    1        7.889  -2.288  -0.089  0.00  0.00    -0.195 NA
ATOM     11  C   LIG    1        7.202  -1.179  -0.072  0.00  0.00    +0.319 A 
ATOM     12  N   LIG    1        5.836  -1.153  -0.061  0.00  0.00    -0.163 N 
ATOM     13  N   LIG    1        4.888  -0.121  -0.048  0.00  0.00    -0.141 NA
ENDROOT
BRANCH   1  17
ATOM     14  C   LIG    1       -0.017   1.379   0.010  0.00  0.00    +0.000 A 
ATOM     15  C   LIG    1        1.169   2.092   0.002  0.00  0.00    +0.001 A 
ATOM     16  C   LIG    1        2.377   1.426  -0.013  0.00  0.00    +0.011 A 
ATOM     17  C   LIG    1        2.402   0.033  -0.021  0.00  0.00    +0.021 A 
ATOM     18  C   LIG    1        1.205  -0.680  -0.013  0.00  0.00    +0.011 A 
ATOM     19  C   LIG    1        0.002  -0.004   0.002  0.00  0.00    +0.001 A 
ENDBRANCH   1  17
BRANCH  11  20
ATOM     20  O   LIG    1        7.870  -0.004  -0.065  0.00  0.00    -0.478 OA
ATOM     21  H   LIG    1        8.807   0.001  -0.073  0.00  0.00    +0.295 HD
ENDBRANCH  11  20
TORSDOF 2
