REMARK  Name = ZINC03267994
REMARK                            x       y       z     vdW  Elec       q    Type
REMARK                         _______ _______ _______ _____ _____    ______ ____
ROOT
ATOM      1  C   LIG    1       -3.848   6.288   0.054  0.00  0.00    +0.014 A 
ATOM      2  C   LIG    1       -3.861   7.666   0.062  0.00  0.00    +0.042 A 
ATOM      3  C   LIG    1       -2.670   8.375   0.061  0.00  0.00    +0.158 A 
ATOM      4  F   LIG    1       -2.689   9.726   0.068  0.00  0.00    -0.202 F 
ATOM      5  C   LIG    1       -1.454   7.701   0.052  0.00  0.00    +0.159 A 
ATOM      6  F   LIG    1       -0.297   8.397   0.051  0.00  0.00    -0.202 F 
ATOM      7  C   LIG    1       -1.429   6.321   0.049  0.00  0.00    +0.053 A 
ATOM      8  C   LIG    1       -2.629   5.603   0.045  0.00  0.00    +0.025 A 
ENDROOT
BRANCH   8   9
ATOM      9  C   LIG    1       -2.609   4.128   0.037  0.00  0.00    +0.186 C 
ATOM     10  O   LIG    1       -3.653   3.506   0.038  0.00  0.00    -0.287 OA
BRANCH   9  11
ATOM     11  C   LIG    1       -1.321   3.407   0.027  0.00  0.00    +0.058 C 
ATOM     12  C   LIG    1       -1.303   2.063   0.019  0.00  0.00    +0.095 C 
BRANCH  12  13
ATOM     13  C   LIG    1       -0.016   1.343   0.009  0.00  0.00    +0.330 C 
ATOM     14  O   LIG    1        1.027   1.965   0.003  0.00  0.00    -0.246 OA
BRANCH  13  15
ATOM     15  O   LIG    1        0.002  -0.004   0.002  0.00  0.00    -0.478 OA
ATOM     16  H   LIG    1       -0.803  -0.484   0.007  0.00  0.00    +0.295 HD
ENDBRANCH  13  15
ENDBRANCH  12  13
ENDBRANCH   9  11
ENDBRANCH   8   9
TORSDOF 4
