REMARK  Name = ZINC03065515
REMARK                            x       y       z     vdW  Elec       q    Type
REMARK                         _______ _______ _______ _____ _____    ______ ____
ROOT
ATOM      1  C   LIG    1       -0.221   5.276   0.035  0.00  0.00    +0.267 C 
ATOM      2  N   LIG    1       -1.424   5.882   0.047  0.00  0.00    -0.280 N 
ATOM      3  H   LIG    1       -2.235   5.353  -0.022  0.00  0.00    +0.155 HD
ATOM      4  O   LIG    1        0.795   5.942   0.037  0.00  0.00    -0.268 OA
ENDROOT
BRANCH   2   5
ATOM      5  C   LIG    1       -1.505   7.273   0.161  0.00  0.00    +0.035 A 
ATOM      6  C   LIG    1       -2.552   7.854   0.866  0.00  0.00    +0.025 A 
ATOM      7  C   LIG    1       -2.627   9.228   0.982  0.00  0.00    +0.023 A 
ATOM      8  C   LIG    1       -1.667  10.028   0.387  0.00  0.00    +0.059 A 
ATOM      9 CL   LIG    1       -1.769  11.755   0.529  0.00  0.00    -0.082 Cl
ATOM     10  C   LIG    1       -0.626   9.452  -0.321  0.00  0.00    +0.061 A 
ATOM     11 CL   LIG    1        0.577  10.458  -1.066  0.00  0.00    -0.082 Cl
ATOM     12  C   LIG    1       -0.543   8.077  -0.435  0.00  0.00    +0.044 A 
ENDBRANCH   2   5
BRANCH   1  17
ATOM     13  C   LIG    1        1.174   1.792  -0.012  0.00  0.00    +0.004 A 
ATOM     14  C   LIG    1       -0.013   1.076  -0.014  0.00  0.00    +0.020 A 
ATOM     15  C   LIG    1       -1.219   1.759  -0.006  0.00  0.00    +0.111 A 
ATOM     16  N   LIG    1       -1.250   3.074   0.015  0.00  0.00    -0.250 NA
ATOM     17  C   LIG    1       -0.136   3.797   0.017  0.00  0.00    +0.126 A 
ATOM     18  C   LIG    1        1.111   3.176   0.004  0.00  0.00    +0.033 A 
ENDBRANCH   1  17
TORSDOF 2
