REMARK  Name = ZINC02654727
REMARK                            x       y       z     vdW  Elec       q    Type
REMARK                         _______ _______ _______ _____ _____    ______ ____
ROOT
ATOM      1  C   LIG    1       -3.166   6.648   0.179  0.00  0.00    -0.048 C 
ENDROOT
BRANCH   1   2
ATOM      2  N   LIG    1       -2.794   8.075   0.184  0.00  0.00    +0.383 N 
ATOM      3  H   LIG    1       -2.165   8.258   0.975  0.00  0.00    -0.086 HD
ATOM      4  H   LIG    1       -2.314   8.303  -0.695  0.00  0.00    -0.086 HD
BRANCH   2   5
ATOM      5  C   LIG    1       -3.997   8.918   0.315  0.00  0.00    -0.034 C 
BRANCH   5   6
ATOM      6  C   LIG    1       -3.580  10.390   0.317  0.00  0.00    +0.194 C 
ATOM      7  C   LIG    1       -4.821  11.279   0.483  0.00  0.00    +0.271 C 
ATOM      8  O   LIG    1       -4.394  12.646   0.494  0.00  0.00    -0.485 OA
ATOM      9  C   LIG    1       -3.323  12.945   1.279  0.00  0.00    +0.162 A 
ATOM     10  C   LIG    1       -3.079  14.267   1.621  0.00  0.00    +0.049 A 
ATOM     11  C   LIG    1       -1.993  14.588   2.414  0.00  0.00    +0.004 A 
ATOM     12  C   LIG    1       -1.148  13.592   2.868  0.00  0.00    +0.004 A 
ATOM     13  C   LIG    1       -1.387  12.273   2.532  0.00  0.00    +0.049 A 
ATOM     14  C   LIG    1       -2.475  11.944   1.738  0.00  0.00    +0.162 A 
ATOM     15  O   LIG    1       -2.699  10.641   1.417  0.00  0.00    -0.484 OA
ENDBRANCH   5   6
ENDBRANCH   2   5
ENDBRANCH   1   2
BRANCH   1  16
ATOM     16  C   LIG    1       -1.900   5.800   0.043  0.00  0.00    +0.123 C 
BRANCH  16  17
ATOM     17  O   LIG    1       -1.236   6.128  -1.180  0.00  0.00    -0.391 OA
ATOM     18  H   LIG    1       -1.770   5.973  -1.971  0.00  0.00    +0.210 HD
ENDBRANCH  16  17
BRANCH  16  19
ATOM     19  C   LIG    1       -2.278   4.317   0.036  0.00  0.00    +0.189 C 
BRANCH  19  20
ATOM     20  O   LIG    1       -1.090   3.523   0.026  0.00  0.00    -0.373 OA
BRANCH  20  21
ATOM     21  C   LIG    1       -1.332   2.115   0.020  0.00  0.00    +0.196 C 
BRANCH  21  27
ATOM     22  C   LIG    1        2.377   1.411  -0.013  0.00  0.00    +0.000 A 
ATOM     23  C   LIG    1        2.397   0.029  -0.021  0.00  0.00    +0.001 A 
ATOM     24  C   LIG    1        1.210  -0.679  -0.013  0.00  0.00    +0.020 A 
ATOM     25  C   LIG    1        0.002  -0.004   0.002  0.00  0.00    +0.046 A 
ATOM     26 CL   LIG    1       -1.489  -0.893   0.011  0.00  0.00    -0.083 Cl
ATOM     27  C   LIG    1       -0.017   1.379   0.010  0.00  0.00    -0.004 A 
ATOM     28  C   LIG    1        1.171   2.086   0.002  0.00  0.00    +0.007 A 
ENDBRANCH  21  27
ENDBRANCH  20  21
ENDBRANCH  19  20
ENDBRANCH  16  19
ENDBRANCH   1  16
TORSDOF 9
