REMARK  Name = ZINC03614844
REMARK                            x       y       z     vdW  Elec       q    Type
REMARK                         _______ _______ _______ _____ _____    ______ ____
ROOT
ATOM      1  C   LIG    1        2.401   0.041  -0.020  0.00  0.00    +0.001 A 
ATOM      2  C   LIG    1        2.374   1.424  -0.012  0.00  0.00    +0.001 A 
ATOM      3  C   LIG    1        1.165   2.097   0.002  0.00  0.00    +0.011 A 
ATOM      4  C   LIG    1       -0.017   1.388   0.010  0.00  0.00    +0.045 A 
ATOM      5  C   LIG    1        0.002  -0.004   0.002  0.00  0.00    +0.071 A 
ATOM      6  C   LIG    1       -1.401  -0.504   0.013  0.00  0.00    +0.276 C 
ATOM      7  N   LIG    1       -2.021  -1.659   0.012  0.00  0.00    -0.271 N 
ATOM      8  H   LIG    1       -1.558  -2.575   0.003  0.00  0.00    +0.304 HD
ATOM      9  C   LIG    1       -3.477  -1.451   0.027  0.00  0.00    +0.277 C 
ATOM     10  C   LIG    1       -3.643   0.080   0.037  0.00  0.00    +0.274 C 
ATOM     11  N   LIG    1       -2.254   0.570   0.027  0.00  0.00    -0.183 N 
ATOM     12  C   LIG    1       -1.464   1.807   0.032  0.00  0.00    +0.256 C 
ATOM     13  C   LIG    1        1.223  -0.678  -0.013  0.00  0.00    +0.016 A 
ENDROOT
BRANCH  12  14
ATOM     14  C   LIG    1       -1.786   2.621  -1.195  0.00  0.00    +0.032 A 
ATOM     15  C   LIG    1       -1.565   3.986  -1.195  0.00  0.00    +0.012 A 
ATOM     16  C   LIG    1       -1.859   4.734  -2.320  0.00  0.00    +0.022 A 
ATOM     17  C   LIG    1       -2.375   4.117  -3.445  0.00  0.00    +0.059 A 
ATOM     18 CL   LIG    1       -2.745   5.057  -4.857  0.00  0.00    -0.082 Cl
ATOM     19  C   LIG    1       -2.596   2.751  -3.445  0.00  0.00    +0.060 A 
ATOM     20 CL   LIG    1       -3.243   1.975  -4.857  0.00  0.00    -0.082 Cl
ATOM     21  C   LIG    1       -2.296   2.003  -2.320  0.00  0.00    +0.032 A 
ENDBRANCH  12  14
BRANCH  12  22
ATOM     22  O   LIG    1       -1.737   2.567   1.211  0.00  0.00    -0.346 OA
ATOM     23  H   LIG    1       -1.226   3.385   1.278  0.00  0.00    +0.215 HD
ENDBRANCH  12  22
TORSDOF 2
