REMARK  Name = ZINC03067705
REMARK                            x       y       z     vdW  Elec       q    Type
REMARK                         _______ _______ _______ _____ _____    ______ ____
ROOT
ATOM      1  C   LIG    1       -2.551   0.342   4.141  0.00  0.00    +0.166 C 
ENDROOT
BRANCH   1   3
ATOM      2  C   LIG    1       -3.362   0.222   6.435  0.00  0.00    +0.401 C 
ATOM      3  N   LIG    1       -2.331   0.405   5.588  0.00  0.00    -0.269 N 
ATOM      4  H   LIG    1       -1.442   0.579   5.936  0.00  0.00    +0.153 HD
ATOM      5  O   LIG    1       -4.476   0.004   5.999  0.00  0.00    -0.226 OA
BRANCH   2   6
ATOM      6  O   LIG    1       -3.160   0.280   7.765  0.00  0.00    -0.445 OA
BRANCH   6   8
ATOM      7  C   LIG    1       -4.905  -1.314   8.352  0.00  0.00    +0.055 C 
ATOM      8  C   LIG    1       -4.317   0.073   8.618  0.00  0.00    +0.107 C 
ATOM      9  C   LIG    1       -5.370   1.141   8.315  0.00  0.00    +0.055 C 
ATOM     10  C   LIG    1       -3.894   0.175  10.085  0.00  0.00    +0.055 C 
ENDBRANCH   6   8
ENDBRANCH   2   6
ENDBRANCH   1   3
BRANCH   1  11
ATOM     11  C   LIG    1       -1.265  -0.036   3.453  0.00  0.00    +0.234 C 
ATOM     12  N   LIG    1       -1.228  -0.155   2.111  0.00  0.00    -0.302 N 
ATOM     13  H   LIG    1       -2.030   0.003   1.588  0.00  0.00    +0.150 HD
ATOM     14  O   LIG    1       -0.262  -0.233   4.106  0.00  0.00    -0.274 OA
BRANCH  12  15
ATOM     15  C   LIG    1        0.023  -0.522   1.442  0.00  0.00    +0.163 C 
BRANCH  15  16
ATOM     16  C   LIG    1        0.167  -2.022   1.434  0.00  0.00    +0.231 C 
ATOM     17  N   LIG    1        1.249  -2.592   0.867  0.00  0.00    -0.328 N 
ATOM     18  H   LIG    1        1.342  -3.558   0.863  0.00  0.00    +0.145 HD
ATOM     19  H   LIG    1        1.935  -2.037   0.465  0.00  0.00    +0.145 HD
ATOM     20  O   LIG    1       -0.691  -2.716   1.938  0.00  0.00    -0.274 OA
ENDBRANCH  15  16
BRANCH  15  21
ATOM     21  C   LIG    1        0.002  -0.004   0.002  0.00  0.00    +0.067 C 
BRANCH  21  22
ATOM     22  C   LIG    1       -0.018   1.503   0.010  0.00  0.00    -0.045 A 
ATOM     23  C   LIG    1       -1.225   2.178   0.020  0.00  0.00    +0.004 A 
ATOM     24  C   LIG    1       -1.244   3.560   0.032  0.00  0.00    +0.000 A 
ATOM     25  C   LIG    1       -0.056   4.267   0.025  0.00  0.00    +0.000 A 
ATOM     26  C   LIG    1        1.151   3.592   0.010  0.00  0.00    +0.000 A 
ATOM     27  C   LIG    1        1.169   2.210   0.003  0.00  0.00    +0.004 A 
ENDBRANCH  21  22
ENDBRANCH  15  21
ENDBRANCH  12  15
ENDBRANCH   1  11
BRANCH   1  28
ATOM     28  C   LIG    1       -3.018   1.708   3.636  0.00  0.00    +0.067 C 
BRANCH  28  29
ATOM     29  C   LIG    1       -4.364   2.031   4.230  0.00  0.00    -0.045 A 
ATOM     30  C   LIG    1       -5.519   1.656   3.570  0.00  0.00    +0.004 A 
ATOM     31  C   LIG    1       -6.754   1.948   4.117  0.00  0.00    +0.000 A 
ATOM     32  C   LIG    1       -6.835   2.623   5.321  0.00  0.00    +0.000 A 
ATOM     33  C   LIG    1       -5.680   3.002   5.979  0.00  0.00    +0.000 A 
ATOM     34  C   LIG    1       -4.444   2.706   5.434  0.00  0.00    +0.004 A 
ENDBRANCH  28  29
ENDBRANCH   1  28
TORSDOF 10
