REMARK  Name = ZINC02709443
REMARK                            x       y       z     vdW  Elec       q    Type
REMARK                         _______ _______ _______ _____ _____    ______ ____
ROOT
ATOM      1  C   LIG    1       -0.013   1.076   0.008  0.00  0.00    +0.001 A 
ATOM      2  C   LIG    1        1.178   1.784   0.000  0.00  0.00    +0.002 A 
ATOM      3  C   LIG    1        1.177   3.166   0.007  0.00  0.00    +0.024 A 
ATOM      4  C   LIG    1       -0.024   3.864   0.022  0.00  0.00    +0.049 A 
ATOM      5  C   LIG    1       -1.230   3.143   0.030  0.00  0.00    +0.048 A 
ATOM      6  C   LIG    1       -2.316   4.140   0.045  0.00  0.00    +0.250 C 
ATOM      7  C   LIG    1       -1.618   5.468   0.045  0.00  0.00    +0.292 C 
ATOM      8  O   LIG    1       -2.151   6.558   0.056  0.00  0.00    -0.266 OA
ATOM      9  O   LIG    1       -3.512   3.933   0.055  0.00  0.00    -0.282 OA
ATOM     10  N   LIG    1       -0.295   5.230   0.032  0.00  0.00    -0.248 N 
ATOM     11  C   LIG    1       -1.217   1.749   0.017  0.00  0.00    +0.014 A 
ENDROOT
BRANCH  10  12
ATOM     12  C   LIG    1        0.731   6.275   0.027  0.00  0.00    +0.219 C 
BRANCH  12  13
ATOM     13  N   LIG    1        1.060   6.630  -1.356  0.00  0.00    -0.328 N 
ATOM     14  H   LIG    1        1.717   6.112  -1.847  0.00  0.00    +0.148 HD
BRANCH  13  15
ATOM     15  C   LIG    1        0.427   7.715  -1.968  0.00  0.00    +0.028 A 
ATOM     16  C   LIG    1       -0.519   8.454  -1.269  0.00  0.00    +0.024 A 
ATOM     17  C   LIG    1       -1.138   9.530  -1.874  0.00  0.00    +0.022 A 
ATOM     18  C   LIG    1       -0.827   9.864  -3.180  0.00  0.00    +0.041 A 
ATOM     19 CL   LIG    1       -1.614  11.212  -3.941  0.00  0.00    -0.084 Cl
ATOM     20  C   LIG    1        0.110   9.126  -3.881  0.00  0.00    +0.022 A 
ATOM     21  C   LIG    1        0.737   8.053  -3.279  0.00  0.00    +0.024 A 
ENDBRANCH  13  15
ENDBRANCH  12  13
ENDBRANCH  10  12
TORSDOF 3
