REMARK  Name = ZINC02516022
REMARK                            x       y       z     vdW  Elec       q    Type
REMARK                         _______ _______ _______ _____ _____    ______ ____
ROOT
ATOM      1  C   LIG    1        0.339   1.553  -0.309  0.00  0.00    +0.040 C 
ATOM      2  C   LIG    1        0.260   0.029  -0.197  0.00  0.00    +0.144 C 
ATOM      3  C   LIG    1        0.997  -0.636  -1.380  0.00  0.00    +0.145 C 
ATOM      4  C   LIG    1        1.667  -1.879  -0.755  0.00  0.00    +0.063 C 
ATOM      5  C   LIG    1        1.256  -1.819   0.733  0.00  0.00    +0.105 C 
ATOM      6  O   LIG    1        0.963  -0.425   0.981  0.00  0.00    -0.373 OA
ENDROOT
BRANCH   3   7
ATOM      7  O   LIG    1        0.068  -1.022  -2.395  0.00  0.00    -0.389 OA
ATOM      8  H   LIG    1       -0.424  -0.283  -2.780  0.00  0.00    +0.210 HD
ENDBRANCH   3   7
BRANCH   5   9
ATOM      9  C   LIG    1        2.407  -2.290   1.624  0.00  0.00    -0.044 C 
BRANCH   9  10
ATOM     10  N   LIG    1        1.943  -2.386   3.014  0.00  0.00    +0.376 N 
ATOM     11  C   LIG    1        1.401  -1.089   3.440  0.00  0.00    -0.093 C 
ATOM     12  C   LIG    1        3.070  -2.755   3.882  0.00  0.00    -0.093 C 
ATOM     13  C   LIG    1        0.895  -3.411   3.111  0.00  0.00    -0.093 C 
ENDBRANCH   9  10
ENDBRANCH   5   9
TORSDOF 3
