REMARK  Name = ZINC02882943
REMARK                            x       y       z     vdW  Elec       q    Type
REMARK                         _______ _______ _______ _____ _____    ______ ____
ROOT
ATOM      1  N   LIG    1        2.839  -0.440  -2.473  0.00  0.00    -0.294 N 
ATOM      2  H   LIG    1        2.369  -1.001  -3.110  0.00  0.00    +0.151 HD
ATOM      3  C   LIG    1        4.123  -0.096  -2.697  0.00  0.00    +0.300 C 
ATOM      4  N   LIG    1        4.754  -0.531  -3.805  0.00  0.00    -0.299 N 
ATOM      5  H   LIG    1        4.284  -1.091  -4.443  0.00  0.00    +0.150 HD
ATOM      6  O   LIG    1        4.712   0.607  -1.898  0.00  0.00    -0.253 OA
ENDROOT
BRANCH   1  13
ATOM      7  C   LIG    1       -0.019   1.526   0.010  0.00  0.00    +0.007 C 
ATOM      8  C   LIG    1        1.417   2.055  -0.000  0.00  0.00    -0.008 C 
ATOM      9  C   LIG    1        2.157   1.548   1.239  0.00  0.00    +0.007 C 
ATOM     10  C   LIG    1        2.178   0.019   1.231  0.00  0.00    -0.008 C 
ATOM     11  C   LIG    1        0.742  -0.511   1.242  0.00  0.00    +0.007 C 
ATOM     12  C   LIG    1        2.894  -0.475  -0.028  0.00  0.00    +0.029 C 
ATOM     13  C   LIG    1        2.154   0.032  -1.268  0.00  0.00    +0.037 C 
ATOM     14  C   LIG    1        0.718  -0.497  -1.257  0.00  0.00    +0.029 C 
ATOM     15  C   LIG    1        2.133   1.562  -1.259  0.00  0.00    +0.029 C 
ATOM     16  C   LIG    1        0.002  -0.004   0.002  0.00  0.00    -0.008 C 
ENDBRANCH   1  13
BRANCH   4  17
ATOM     17  C   LIG    1        6.149  -0.157  -4.049  0.00  0.00    +0.108 C 
BRANCH  17  18
ATOM     18  C   LIG    1        6.621  -0.776  -5.365  0.00  0.00    +0.046 C 
BRANCH  18  19
ATOM     19  C   LIG    1        8.079  -0.385  -5.620  0.00  0.00    +0.157 C 
BRANCH  19  20
ATOM     20  O   LIG    1        8.520  -0.964  -6.849  0.00  0.00    -0.395 OA
ATOM     21  H   LIG    1        9.437  -0.757  -7.075  0.00  0.00    +0.209 HD
ENDBRANCH  19  20
ENDBRANCH  18  19
ENDBRANCH  17  18
ENDBRANCH   4  17
TORSDOF 5
