REMARK  Name = ZINC02392505
REMARK                            x       y       z     vdW  Elec       q    Type
REMARK                         _______ _______ _______ _____ _____    ______ ____
ROOT
ATOM      1  C   LIG    1       -1.371   5.810   0.047  0.00  0.00    +0.001 A 
ATOM      2  C   LIG    1       -2.536   5.046   0.053  0.00  0.00    +0.002 A 
ATOM      3  C   LIG    1       -2.484   3.686   0.046  0.00  0.00    +0.028 A 
ATOM      4  C   LIG    1       -1.239   3.034   0.030  0.00  0.00    +0.071 A 
ATOM      5  C   LIG    1       -0.055   3.814   0.023  0.00  0.00    +0.001 A 
ATOM      6  C   LIG    1        1.192   3.165   0.008  0.00  0.00    +0.020 A 
ATOM      7  C   LIG    1        1.203   1.778   0.000  0.00  0.00    +0.001 A 
ATOM      8  C   LIG    1       -0.013   1.076   0.008  0.00  0.00    +0.120 A 
ATOM      9  N   LIG    1       -1.163   1.699   0.017  0.00  0.00    -0.254 NA
ATOM     10  C   LIG    1       -0.146   5.216   0.032  0.00  0.00    +0.010 A 
ENDROOT
BRANCH   7  11
ATOM     11  C   LIG    1        2.491   1.042  -0.016  0.00  0.00    -0.009 A 
ATOM     12  C   LIG    1        2.515  -0.350  -0.023  0.00  0.00    +0.016 A 
ATOM     13  C   LIG    1        3.708  -0.985  -0.038  0.00  0.00    +0.046 A 
ATOM     14  S   LIG    1        4.862   0.376  -0.042  0.00  0.00    -0.104 S 
ATOM     15  C   LIG    1        3.681   1.714  -0.029  0.00  0.00    +0.053 A 
ENDBRANCH   7  11
TORSDOF 1
