REMARK  Name = ZINC02654729
REMARK                            x       y       z     vdW  Elec       q    Type
REMARK                         _______ _______ _______ _____ _____    ______ ____
ROOT
ATOM      1  C   LIG    1        2.064   1.114   1.238  0.00  0.00    -0.048 C 
ENDROOT
BRANCH   1   2
ATOM      2  N   LIG    1        1.340   1.531   2.446  0.00  0.00    +0.383 N 
ATOM      3  H   LIG    1        0.342   1.070   2.453  0.00  0.00    -0.086 HD
ATOM      4  H   LIG    1        1.238   2.626   2.453  0.00  0.00    -0.086 HD
BRANCH   2   5
ATOM      5  C   LIG    1        2.059   1.117   3.659  0.00  0.00    -0.034 C 
BRANCH   5   6
ATOM      6  C   LIG    1        1.276   1.568   4.894  0.00  0.00    +0.194 C 
ATOM      7  C   LIG    1        2.068   1.222   6.163  0.00  0.00    +0.271 C 
ATOM      8  O   LIG    1        1.304   1.645   7.297  0.00  0.00    -0.485 OA
ATOM      9  C   LIG    1       -0.018   1.320   7.299  0.00  0.00    +0.162 A 
ATOM     10  C   LIG    1       -0.730   1.370   8.488  0.00  0.00    +0.049 A 
ATOM     11  C   LIG    1       -2.074   1.047   8.505  0.00  0.00    +0.004 A 
ATOM     12  C   LIG    1       -2.712   0.673   7.337  0.00  0.00    +0.004 A 
ATOM     13  C   LIG    1       -2.008   0.620   6.149  0.00  0.00    +0.049 A 
ATOM     14  C   LIG    1       -0.659   0.942   6.125  0.00  0.00    +0.162 A 
ATOM     15  O   LIG    1        0.021   0.882   4.948  0.00  0.00    -0.484 OA
ENDBRANCH   5   6
ENDBRANCH   2   5
ENDBRANCH   1   2
BRANCH   1  16
ATOM     16  C   LIG    1        1.286   1.562  -0.002  0.00  0.00    +0.123 C 
BRANCH  16  17
ATOM     17  O   LIG    1       -0.011   0.963   0.007  0.00  0.00    -0.391 OA
ATOM     18  H   LIG    1       -0.702   1.160   0.840  0.00  0.00    +0.210 HD
ENDBRANCH  16  17
BRANCH  16  19
ATOM     19  C   LIG    1        2.040   1.127  -1.261  0.00  0.00    +0.189 C 
BRANCH  19  20
ATOM     20  O   LIG    1        1.376   1.645  -2.415  0.00  0.00    -0.373 OA
BRANCH  20  21
ATOM     21  C   LIG    1        2.002   1.296  -3.651  0.00  0.00    +0.196 C 
BRANCH  21  27
ATOM     22  C   LIG    1       -0.625   3.187  -5.593  0.00  0.00    +0.000 A 
ATOM     23  C   LIG    1       -0.208   2.983  -6.895  0.00  0.00    +0.001 A 
ATOM     24  C   LIG    1        0.925   2.233  -7.148  0.00  0.00    +0.020 A 
ATOM     25  C   LIG    1        1.641   1.686  -6.098  0.00  0.00    +0.046 A 
ATOM     26 CL   LIG    1        3.063   0.743  -6.415  0.00  0.00    -0.083 Cl
ATOM     27  C   LIG    1        1.223   1.891  -4.796  0.00  0.00    -0.004 A 
ATOM     28  C   LIG    1        0.087   2.637  -4.544  0.00  0.00    +0.007 A 
ENDBRANCH  21  27
ENDBRANCH  20  21
ENDBRANCH  19  20
ENDBRANCH  16  19
ENDBRANCH   1  16
TORSDOF 9
