REMARK  Name = ZINC02470679
REMARK                            x       y       z     vdW  Elec       q    Type
REMARK                         _______ _______ _______ _____ _____    ______ ____
ROOT
ATOM      1  C   LIG    1       -2.417   0.263  -1.329  0.00  0.00    +0.025 A 
ATOM      2  C   LIG    1       -2.330  -1.121  -1.200  0.00  0.00    +0.030 A 
ATOM      3  C   LIG    1       -2.305  -1.926  -2.300  0.00  0.00    +0.051 A 
ATOM      4 CL   LIG    1       -2.203  -3.649  -2.117  0.00  0.00    -0.083 Cl
ATOM      5  C   LIG    1       -2.358  -1.354  -3.583  0.00  0.00    +0.022 A 
ATOM      6  C   LIG    1       -2.329  -2.152  -4.742  0.00  0.00    +0.013 A 
ATOM      7  C   LIG    1       -2.384  -1.528  -5.955  0.00  0.00    +0.020 A 
ATOM      8  C   LIG    1       -2.464  -0.138  -6.019  0.00  0.00    +0.111 A 
ATOM      9  N   LIG    1       -2.490   0.601  -4.937  0.00  0.00    -0.251 NA
ATOM     10  C   LIG    1       -2.441   0.053  -3.720  0.00  0.00    +0.114 A 
ATOM     11  C   LIG    1       -2.469   0.854  -2.558  0.00  0.00    +0.148 A 
ENDROOT
BRANCH  11  12
ATOM     12  O   LIG    1       -2.548   2.206  -2.663  0.00  0.00    -0.504 OA
ATOM     13  H   LIG    1       -1.689   2.648  -2.707  0.00  0.00    +0.292 HD
ENDBRANCH  11  12
BRANCH   1  14
ATOM     14  C   LIG    1       -2.447   1.122  -0.091  0.00  0.00    +0.173 C 
BRANCH  14  17
ATOM     15  C   LIG    1        1.319   1.754   0.139  0.00  0.00    +0.109 C 
ATOM     16  C   LIG    1       -0.018   1.061   0.086  0.00  0.00    +0.211 C 
ATOM     17  N   LIG    1       -1.153   1.788   0.073  0.00  0.00    -0.302 N 
ATOM     18  H   LIG    1       -1.113   2.752   0.173  0.00  0.00    +0.150 HD
ATOM     19  O   LIG    1       -0.073  -0.150   0.051  0.00  0.00    -0.276 OA
ENDBRANCH  14  17
BRANCH  14  20
ATOM     20  C   LIG    1       -2.725   0.259   1.113  0.00  0.00    +0.130 A 
ATOM     21  C   LIG    1       -3.915   0.119   1.724  0.00  0.00    +0.047 A 
ATOM     22  C   LIG    1       -3.721  -0.780   2.798  0.00  0.00    +0.041 A 
ATOM     23  C   LIG    1       -2.423  -1.129   2.784  0.00  0.00    +0.195 A 
ATOM     24  O   LIG    1       -1.824  -0.497   1.762  0.00  0.00    -0.466 OA
ENDBRANCH  14  20
ENDBRANCH   1  14
TORSDOF 4
