REMARK  Name = ZINC03581056
REMARK                            x       y       z     vdW  Elec       q    Type
REMARK                         _______ _______ _______ _____ _____    ______ ____
ROOT
ATOM      1  C   LIG    1       -1.178  -1.028  -2.013  0.00  0.00    +0.101 C 
ATOM      2  C   LIG    1       -0.517  -0.098  -3.032  0.00  0.00    +0.265 C 
ATOM      3  C   LIG    1       -1.497   0.203  -4.168  0.00  0.00    +0.101 C 
ATOM      4  N   LIG    1        0.688  -0.736  -3.575  0.00  0.00    -0.066 NA
ATOM      5  C   LIG    1        1.723  -0.014  -3.911  0.00  0.00    +0.420 C 
ATOM      6  N   LIG    1        1.748   1.319  -3.736  0.00  0.00    -0.005 NA
ATOM      7  C   LIG    1        0.836   1.925  -2.994  0.00  0.00    +0.415 C 
ATOM      8  N   LIG    1       -0.119   1.156  -2.375  0.00  0.00    -0.084 N 
ENDROOT
BRANCH   5   9
ATOM      9  N   LIG    1        2.824  -0.637  -4.462  0.00  0.00    -0.247 N 
ATOM     10  H   LIG    1        3.601  -0.114  -4.717  0.00  0.00    +0.241 HD
ATOM     11  H   LIG    1        2.822  -1.598  -4.595  0.00  0.00    +0.241 HD
ENDBRANCH   5   9
BRANCH   7  12
ATOM     12  N   LIG    1        0.845   3.284  -2.843  0.00  0.00    -0.247 N 
ATOM     13  H   LIG    1        1.524   3.817  -3.285  0.00  0.00    +0.241 HD
ATOM     14  H   LIG    1        0.172   3.715  -2.293  0.00  0.00    +0.241 HD
ENDBRANCH   7  12
BRANCH   8  15
ATOM     15  O   LIG    1       -0.704   1.559  -1.150  0.00  0.00    -0.213 OA
BRANCH  15  16
ATOM     16  C   LIG    1       -0.013   1.086   0.008  0.00  0.00    +0.213 C 
BRANCH  16  17
ATOM     17  C   LIG    1       -0.729   1.579   1.267  0.00  0.00    +0.073 C 
BRANCH  17  18
ATOM     18  C   LIG    1        0.011   1.072   2.506  0.00  0.00    +0.231 C 
BRANCH  18  19
ATOM     19  O   LIG    1       -0.658   1.533   3.682  0.00  0.00    -0.490 OA
BRANCH  19  20
ATOM     20  C   LIG    1       -0.125   1.169   4.878  0.00  0.00    +0.140 A 
ATOM     21  C   LIG    1        1.018   0.384   4.919  0.00  0.00    +0.068 A 
ATOM     22  C   LIG    1        1.559   0.014   6.136  0.00  0.00    +0.063 A 
ATOM     23 CL   LIG    1        2.989  -0.968   6.188  0.00  0.00    -0.082 Cl
ATOM     24  C   LIG    1        0.960   0.427   7.315  0.00  0.00    +0.061 A 
ATOM     25 CL   LIG    1        1.641  -0.038   8.843  0.00  0.00    -0.082 Cl
ATOM     26  C   LIG    1       -0.180   1.210   7.276  0.00  0.00    +0.045 A 
ATOM     27  C   LIG    1       -0.720   1.586   6.061  0.00  0.00    +0.084 A 
ATOM     28 CL   LIG    1       -2.147   2.574   6.013  0.00  0.00    -0.080 Cl
ENDBRANCH  19  20
ENDBRANCH  18  19
ENDBRANCH  17  18
ENDBRANCH  16  17
ENDBRANCH  15  16
ENDBRANCH   8  15
TORSDOF 8
