REMARK  Name = ZINC02555760
REMARK                            x       y       z     vdW  Elec       q    Type
REMARK                         _______ _______ _______ _____ _____    ______ ____
ROOT
ATOM      1  C   LIG    1        4.913   0.177  -0.077  0.00  0.00    +0.233 C 
ATOM      2  O   LIG    1        4.807   1.386  -0.035  0.00  0.00    -0.283 OA
ENDROOT
BRANCH   1   3
ATOM      3  C   LIG    1        6.248  -0.443  -0.166  0.00  0.00    +0.026 A 
ATOM      4  C   LIG    1        6.371  -1.828  -0.314  0.00  0.00    +0.014 A 
ATOM      5  C   LIG    1        7.623  -2.400  -0.402  0.00  0.00    +0.033 A 
ATOM      6  C   LIG    1        8.756  -1.607  -0.333  0.00  0.00    +0.122 A 
ATOM      7  C   LIG    1        8.642  -0.236  -0.181  0.00  0.00    +0.033 A 
ATOM      8  C   LIG    1        7.398   0.351  -0.097  0.00  0.00    +0.014 A 
BRANCH   6   9
ATOM      9  N   LIG    1       10.096  -2.229  -0.423  0.00  0.00    +0.006 N 
ATOM     10  O   LIG    1       11.095  -1.535  -0.363  0.00  0.00    -0.130 OA
BRANCH   9  11
ATOM     11  O   LIG    1       10.200  -3.436  -0.556  0.00  0.00    -0.396 OA
ATOM     12  H   LIG    1        9.431  -3.970  -0.603  0.00  0.00    +0.329 HD
ENDBRANCH   9  11
ENDBRANCH   6   9
ENDBRANCH   1   3
BRANCH   1  13
ATOM     13  C   LIG    1        3.694  -0.680  -0.037  0.00  0.00    +0.233 C 
ATOM     14  O   LIG    1        3.296  -1.216  -1.051  0.00  0.00    -0.283 OA
BRANCH  13  18
ATOM     15  C   LIG    1        1.615  -1.248   3.619  0.00  0.00    +0.000 A 
ATOM     16  C   LIG    1        2.807  -0.543   3.607  0.00  0.00    +0.001 A 
ATOM     17  C   LIG    1        3.488  -0.355   2.423  0.00  0.00    +0.012 A 
ATOM     18  C   LIG    1        2.972  -0.878   1.233  0.00  0.00    +0.026 A 
ATOM     19  C   LIG    1        1.767  -1.589   1.254  0.00  0.00    +0.012 A 
ATOM     20  C   LIG    1        1.098  -1.769   2.445  0.00  0.00    +0.001 A 
ENDBRANCH  13  18
ENDBRANCH   1  13
TORSDOF 5
