REMARK  Name = ZINC03600392
REMARK                            x       y       z     vdW  Elec       q    Type
REMARK                         _______ _______ _______ _____ _____    ______ ____
ROOT
ATOM      1  C   LIG    1       -0.018   1.480   0.010  0.00  0.00    -0.018 A 
ATOM      2  C   LIG    1       -1.233   2.162   0.020  0.00  0.00    +0.010 A 
ATOM      3  C   LIG    1       -1.246   3.542   0.032  0.00  0.00    +0.027 A 
ATOM      4  C   LIG    1       -0.056   4.248   0.024  0.00  0.00    +0.089 A 
ATOM      5  C   LIG    1        1.153   3.575   0.010  0.00  0.00    +0.027 A 
ATOM      6  C   LIG    1        1.177   2.195   0.003  0.00  0.00    +0.010 A 
ENDROOT
BRANCH   1  10
ATOM      7  C   LIG    1        0.040  -2.772  -0.014  0.00  0.00    +0.000 A 
ATOM      8  C   LIG    1       -1.169  -2.100   0.002  0.00  0.00    +0.001 A 
ATOM      9  C   LIG    1       -1.194  -0.720   0.010  0.00  0.00    +0.008 A 
ATOM     10  C   LIG    1        0.002  -0.004   0.002  0.00  0.00    -0.018 A 
ATOM     11  C   LIG    1        1.217  -0.687  -0.019  0.00  0.00    +0.008 A 
ATOM     12  C   LIG    1        1.230  -2.067  -0.022  0.00  0.00    +0.001 A 
ENDBRANCH   1  10
BRANCH   4  13
ATOM     13  S   LIG    1       -0.080   6.010   0.034  0.00  0.00    +0.007 S 
ATOM     14  O   LIG    1        1.156   6.386   0.627  0.00  0.00    -0.169 OA
ATOM     15  O   LIG    1       -1.313   6.352   0.650  0.00  0.00    -0.169 OA
BRANCH  13  16
ATOM     16  C   LIG    1       -0.102   6.485  -1.717  0.00  0.00    +0.291 C 
BRANCH  16  17
ATOM     17  C   LIG    1       -0.124   7.987  -1.830  0.00  0.00    +0.326 C 
ATOM     18  O   LIG    1       -0.124   8.668  -0.831  0.00  0.00    -0.249 OA
BRANCH  17  19
ATOM     19  O   LIG    1       -0.143   8.569  -3.039  0.00  0.00    -0.479 OA
ATOM     20  H   LIG    1       -0.143   8.042  -3.813  0.00  0.00    +0.295 HD
ENDBRANCH  17  19
ENDBRANCH  16  17
ENDBRANCH  13  16
ENDBRANCH   4  13
TORSDOF 5
