REMARK  Name = ZINC02860380
REMARK                            x       y       z     vdW  Elec       q    Type
REMARK                         _______ _______ _______ _____ _____    ______ ____
ROOT
ATOM      1  N   LIG    1       -0.002  -0.499   1.382  0.00  0.00    -0.303 N 
ATOM      2  H   LIG    1        0.000   0.127   2.123  0.00  0.00    +0.149 HD
ATOM      3  C   LIG    1        0.025  -1.826   1.620  0.00  0.00    +0.300 C 
ATOM      4  O   LIG    1        0.023  -2.609   0.693  0.00  0.00    -0.265 OA
ENDROOT
BRANCH   3   5
ATOM      5  C   LIG    1        0.056  -2.331   3.025  0.00  0.00    +0.303 C 
ATOM      6  N   LIG    1        0.083  -3.658   3.264  0.00  0.00    -0.276 N 
ATOM      7  H   LIG    1        0.015  -4.284   2.526  0.00  0.00    +0.155 HD
ATOM      8  O   LIG    1        0.058  -1.548   3.952  0.00  0.00    -0.265 OA
BRANCH   6   9
ATOM      9  C   LIG    1        0.207  -4.130   4.573  0.00  0.00    +0.052 A 
ATOM     10  C   LIG    1       -0.384  -3.437   5.622  0.00  0.00    +0.025 A 
ATOM     11  C   LIG    1       -0.264  -3.910   6.914  0.00  0.00    +0.002 A 
ATOM     12  C   LIG    1        0.453  -5.065   7.167  0.00  0.00    +0.002 A 
ATOM     13  C   LIG    1        1.048  -5.755   6.126  0.00  0.00    +0.022 A 
ATOM     14  C   LIG    1        0.927  -5.291   4.830  0.00  0.00    +0.062 A 
ATOM     15 CL   LIG    1        1.675  -6.157   3.524  0.00  0.00    -0.082 Cl
ENDBRANCH   6   9
ENDBRANCH   3   5
BRANCH   1  16
ATOM     16  C   LIG    1       -0.033  -0.003   0.004  0.00  0.00    +0.140 C 
BRANCH  16  20
ATOM     17  C   LIG    1       -0.104   4.268   0.029  0.00  0.00    +0.000 A 
ATOM     18  C   LIG    1        1.104   3.597   0.005  0.00  0.00    +0.000 A 
ATOM     19  C   LIG    1        1.127   2.215  -0.003  0.00  0.00    +0.005 A 
ATOM     20  C   LIG    1       -0.058   1.503   0.013  0.00  0.00    -0.030 A 
ATOM     21  C   LIG    1       -1.266   2.174   0.031  0.00  0.00    +0.005 A 
ATOM     22  C   LIG    1       -1.290   3.556   0.044  0.00  0.00    +0.000 A 
ENDBRANCH  16  20
ENDBRANCH   1  16
TORSDOF 4
