REMARK  Name = ZINC02870217
REMARK                            x       y       z     vdW  Elec       q    Type
REMARK                         _______ _______ _______ _____ _____    ______ ____
ROOT
ATOM      1  N   LIG    1       -8.718   1.624   0.052  0.00  0.00    -0.343 N 
ATOM      2  H   LIG    1       -8.727   2.594   0.059  0.00  0.00    +0.146 HD
ENDROOT
BRANCH   1   6
ATOM      3  C   LIG    1      -12.299  -0.487   0.056  0.00  0.00    +0.059 A 
ATOM      4  C   LIG    1      -12.310   0.912   0.065  0.00  0.00    +0.017 A 
ATOM      5  C   LIG    1      -11.127   1.605   0.064  0.00  0.00    +0.024 A 
ATOM      6  C   LIG    1       -9.915   0.918   0.054  0.00  0.00    +0.027 A 
ATOM      7  C   LIG    1       -9.901  -0.474   0.040  0.00  0.00    +0.024 A 
ATOM      8  C   LIG    1      -11.081  -1.173   0.046  0.00  0.00    +0.017 A 
BRANCH   3   9
ATOM      9  C   LIG    1      -13.569  -1.235   0.057  0.00  0.00    +0.339 C 
ATOM     10  O   LIG    1      -14.626  -0.637   0.066  0.00  0.00    -0.245 OA
BRANCH   9  11
ATOM     11  O   LIG    1      -13.556  -2.583   0.049  0.00  0.00    -0.461 OA
BRANCH  11  12
ATOM     12  C   LIG    1      -14.844  -3.253   0.051  0.00  0.00    +0.232 C 
BRANCH  12  13
ATOM     13  C   LIG    1      -14.630  -4.768   0.040  0.00  0.00    +0.041 C 
BRANCH  13  15
ATOM     14  C   LIG    1      -15.773  -6.990   0.031  0.00  0.00    +0.004 C 
ATOM     15  C   LIG    1      -15.987  -5.475   0.042  0.00  0.00    -0.000 C 
ENDBRANCH  13  15
ENDBRANCH  12  13
ENDBRANCH  11  12
ENDBRANCH   9  11
ENDBRANCH   3   9
ENDBRANCH   1   6
BRANCH   1  16
ATOM     16  C   LIG    1       -7.443   0.903   0.042  0.00  0.00    +0.109 C 
BRANCH  16  17
ATOM     17  C   LIG    1       -6.289   1.908   0.043  0.00  0.00    +0.098 C 
BRANCH  17  18
ATOM     18  C   LIG    1       -4.977   1.166   0.032  0.00  0.00    +0.165 C 
ATOM     19  O   LIG    1       -4.966  -0.046   0.025  0.00  0.00    -0.292 OA
BRANCH  18  20
ATOM     20  C   LIG    1       -3.709   1.913   0.030  0.00  0.00    +0.020 A 
ATOM     21  C   LIG    1       -3.718   3.312   0.039  0.00  0.00    +0.011 A 
ATOM     22  C   LIG    1       -2.526   4.005   0.037  0.00  0.00    +0.003 A 
ATOM     23  C   LIG    1       -1.323   3.320   0.032  0.00  0.00    +0.032 A 
ATOM     24  C   LIG    1       -1.306   1.936   0.019  0.00  0.00    +0.122 A 
ATOM     25  C   LIG    1       -2.490   1.229   0.021  0.00  0.00    +0.044 A 
BRANCH  24  26
ATOM     26  N   LIG    1       -0.014   1.214   0.009  0.00  0.00    +0.006 N 
ATOM     27  O   LIG    1        0.002  -0.004   0.002  0.00  0.00    -0.130 OA
BRANCH  26  28
ATOM     28  O   LIG    1        1.032   1.837   0.002  0.00  0.00    -0.396 OA
ATOM     29  H   LIG    1        1.019   2.774   0.007  0.00  0.00    +0.329 HD
ENDBRANCH  26  28
ENDBRANCH  24  26
ENDBRANCH  18  20
ENDBRANCH  17  18
ENDBRANCH  16  17
ENDBRANCH   1  16
TORSDOF 12
