REMARK  Name = ZINC02867405
REMARK                            x       y       z     vdW  Elec       q    Type
REMARK                         _______ _______ _______ _____ _____    ______ ____
ROOT
ATOM      1  C   LIG    1       -1.433  -0.534   0.013  0.00  0.00    +0.145 C 
ATOM      2  C   LIG    1       -2.062  -0.167   1.344  0.00  0.00    +0.200 C 
ATOM      3  N   LIG    1       -3.149   0.559   1.327  0.00  0.00    -0.131 NA
ATOM      4  C   LIG    1       -3.717   0.984   0.194  0.00  0.00    +0.332 C 
ATOM      5  N   LIG    1       -3.254   0.724  -1.036  0.00  0.00    -0.237 N 
ATOM      6  H   LIG    1       -3.731   1.072  -1.806  0.00  0.00    +0.159 HD
ATOM      7  O   LIG    1       -4.727   1.655   0.285  0.00  0.00    -0.250 OA
ATOM      8  C   LIG    1       -2.138  -0.014  -1.227  0.00  0.00    +0.240 C 
ATOM      9  O   LIG    1       -1.718  -0.250  -2.339  0.00  0.00    -0.274 OA
ENDROOT
BRANCH   1  10
ATOM     10  C   LIG    1       -1.376  -2.037  -0.076  0.00  0.00    -0.024 A 
ATOM     11  C   LIG    1       -0.151  -2.677  -0.143  0.00  0.00    +0.006 A 
ATOM     12  C   LIG    1       -0.093  -4.053  -0.224  0.00  0.00    +0.009 A 
ATOM     13  C   LIG    1       -1.270  -4.799  -0.239  0.00  0.00    -0.018 A 
ATOM     14  C   LIG    1       -2.501  -4.149  -0.172  0.00  0.00    +0.009 A 
ATOM     15  C   LIG    1       -2.547  -2.772  -0.085  0.00  0.00    +0.006 A 
BRANCH  13  16
ATOM     16  C   LIG    1       -1.214  -6.279  -0.327  0.00  0.00    -0.018 A 
ATOM     17  C   LIG    1        0.017  -6.929  -0.389  0.00  0.00    +0.008 A 
ATOM     18  C   LIG    1        0.064  -8.306  -0.470  0.00  0.00    +0.001 A 
ATOM     19  C   LIG    1       -1.108  -9.040  -0.490  0.00  0.00    +0.000 A 
ATOM     20  C   LIG    1       -2.333  -8.400  -0.429  0.00  0.00    +0.001 A 
ATOM     21  C   LIG    1       -2.391  -7.024  -0.342  0.00  0.00    +0.008 A 
ENDBRANCH  13  16
ENDBRANCH   1  10
BRANCH   1  23
ATOM     22  C   LIG    1       -0.019   1.526   0.010  0.00  0.00    +0.006 C 
ATOM     23  C   LIG    1        0.002  -0.004   0.002  0.00  0.00    +0.027 C 
ENDBRANCH   1  23
BRANCH   2  24
ATOM     24  O   LIG    1       -1.518  -0.575   2.502  0.00  0.00    -0.496 OA
ATOM     25  H   LIG    1       -0.739  -1.095   2.496  0.00  0.00    +0.293 HD
ENDBRANCH   2  24
TORSDOF 4
