REMARK  Name = ZINC03582665
REMARK                            x       y       z     vdW  Elec       q    Type
REMARK                         _______ _______ _______ _____ _____    ______ ____
ROOT
ATOM      1  C   UNK A  0        1.633  -2.000  -0.025  0.00  0.00    +0.150 A 
ATOM      2  N   UNK A  1        0.679  -2.911  -0.026  0.00  0.00    -0.218 NA
ATOM      3  C   UNK A  1        0.964  -4.222  -0.037  0.00  0.00    +0.196 A 
ATOM      4  C   UNK A  1        2.288  -4.639  -0.047  0.00  0.00    +0.215 A 
ATOM      5  C   UNK A  1        3.313  -3.653  -0.045  0.00  0.00    +0.294 A 
ATOM      6  O   UNK A  1        4.487  -3.977  -0.053  0.00  0.00    -0.264 OA
ATOM      7  N   UNK A  1        2.958  -2.350  -0.040  0.00  0.00    -0.303 N 
ATOM      8  H   UNK A  1        3.641  -1.662  -0.042  0.00  0.00    +0.170 HD
ENDROOT
BRANCH   1  12
ATOM      9  C   UNK A  0       -0.017   1.378   0.010  0.00  0.00    +0.031 A 
ATOM     10  C   UNK A  0        1.157   2.051   0.002  0.00  0.00    +0.048 A 
ATOM     11  S   UNK A  0        2.329   0.848  -0.016  0.00  0.00    -0.092 S 
ATOM     12  C   UNK A  0        1.268  -0.585  -0.013  0.00  0.00    +0.075 A 
ATOM     13  C   UNK A  0        0.002  -0.004   0.002  0.00  0.00    +0.042 A 
BRANCH  13  14
ATOM     14  N   UNK A  0       -1.167  -0.765   0.009  0.00  0.00    -0.357 N 
ATOM     15  H   UNK A  0       -1.115  -1.734   0.004  0.00  0.00    +0.142 HD
ATOM     16  H   UNK A  0       -2.032  -0.326   0.020  0.00  0.00    +0.142 HD
ENDBRANCH  13  14
ENDBRANCH   1  12
BRANCH   3  17
ATOM     17  C   UNK A  1       -0.128  -5.219  -0.038  0.00  0.00    +0.359 C 
ATOM     18  O   UNK A  1        0.135  -6.413  -0.048  0.00  0.00    -0.243 OA
BRANCH  17  19
ATOM     19  O   UNK A  1       -1.293  -4.849  -0.029  0.00  0.00    -0.476 OA
ATOM     20  H   UNK A  1       -1.494  -3.934  -0.022  0.00  0.00    +0.295 HD
ENDBRANCH  17  19
ENDBRANCH   3  17
BRANCH   4  21
ATOM     21  O   UNK A  1        2.598  -5.960  -0.057  0.00  0.00    -0.501 OA
ATOM     22  H   UNK A  1        3.548  -6.141  -0.063  0.00  0.00    +0.292 HD
ENDBRANCH   4  21
TORSDOF 5
