REMARK  Name = ZINC02534402
REMARK                            x       y       z     vdW  Elec       q    Type
REMARK                         _______ _______ _______ _____ _____    ______ ____
ROOT
ATOM      1  C   LIG    1        6.156  -0.629  -0.433  0.00  0.00    +0.007 C 
ATOM      2  C   LIG    1        4.824   0.112  -0.564  0.00  0.00    -0.018 C 
ATOM      3  C   LIG    1        4.885   1.424   0.217  0.00  0.00    -0.064 C 
ATOM      4  N   LIG    1        5.107   1.198   1.654  0.00  0.00    +0.381 N 
ATOM      5  H   LIG    1        6.022   0.751   1.785  0.00  0.00    -0.086 HD
ATOM      6  H   LIG    1        5.096   2.103   2.140  0.00  0.00    -0.086 HD
ATOM      7  C   LIG    1        4.059   0.328   2.233  0.00  0.00    -0.081 C 
ATOM      8  C   LIG    1        4.035  -1.018   1.501  0.00  0.00    -0.008 C 
ATOM      9  C   LIG    1        3.641   2.249  -0.060  0.00  0.00    +0.020 C 
ATOM     10  C   LIG    1        2.388   1.416  -0.013  0.00  0.00    -0.045 A 
ATOM     11  C   LIG    1        1.169   2.085   0.002  0.00  0.00    +0.007 A 
ATOM     12  C   LIG    1       -0.017   1.383   0.010  0.00  0.00    +0.045 A 
ATOM     13  C   LIG    1        0.002  -0.004   0.002  0.00  0.00    +0.117 A 
ATOM     14  C   LIG    1        1.216  -0.671  -0.005  0.00  0.00    +0.049 A 
ATOM     15  C   LIG    1        2.406   0.040  -0.005  0.00  0.00    -0.035 A 
ATOM     16  C   LIG    1        3.697  -0.744   0.025  0.00  0.00    -0.007 C 
ATOM     17  C   LIG    1        3.550  -2.051  -0.757  0.00  0.00    +0.016 C 
ENDROOT
BRANCH  13  18
ATOM     18  O   LIG    1       -1.163  -0.704   0.002  0.00  0.00    -0.507 OA
ATOM     19  H   LIG    1       -1.503  -0.902  -0.881  0.00  0.00    +0.292 HD
ENDBRANCH  13  18
TORSDOF 1
