REMARK  Name = ZINC03122867
REMARK                            x       y       z     vdW  Elec       q    Type
REMARK                         _______ _______ _______ _____ _____    ______ ____
ROOT
ATOM      1  C   LIG    1        5.826   3.984   1.462  0.00  0.00    +0.121 A 
ATOM      2  C   LIG    1        5.253   5.161   1.001  0.00  0.00    +0.049 A 
ATOM      3  C   LIG    1        3.879   5.288   0.956  0.00  0.00    +0.052 A 
ATOM      4  C   LIG    1        3.071   4.240   1.371  0.00  0.00    +0.157 A 
ATOM      5  C   LIG    1        3.644   3.065   1.837  0.00  0.00    +0.052 A 
ATOM      6  C   LIG    1        5.019   2.936   1.877  0.00  0.00    +0.049 A 
ENDROOT
BRANCH   1   7
ATOM      7  O   LIG    1        7.179   3.859   1.505  0.00  0.00    -0.487 OA
BRANCH   7   8
ATOM      8  C   LIG    1        7.701   2.620   1.990  0.00  0.00    +0.264 C 
BRANCH   8  12
ATOM      9  C   LIG    1       11.970   2.745   1.922  0.00  0.00    +0.000 A 
ATOM     10  C   LIG    1       11.284   3.163   3.047  0.00  0.00    +0.000 A 
ATOM     11  C   LIG    1        9.902   3.123   3.069  0.00  0.00    +0.007 A 
ATOM     12  C   LIG    1        9.207   2.664   1.966  0.00  0.00    -0.010 A 
ATOM     13  C   LIG    1        9.893   2.241   0.843  0.00  0.00    +0.007 A 
ATOM     14  C   LIG    1       11.274   2.287   0.819  0.00  0.00    +0.000 A 
ENDBRANCH   8  12
ENDBRANCH   7   8
ENDBRANCH   1   7
BRANCH   4  15
ATOM     15  O   LIG    1        1.718   4.365   1.327  0.00  0.00    -0.343 OA
BRANCH  15  16
ATOM     16  S   LIG    1        1.097   3.914   0.013  0.00  0.00    +0.144 S 
ATOM     17  O   LIG    1       -0.270   4.301   0.055  0.00  0.00    -0.132 OA
ATOM     18  O   LIG    1        1.978   4.338  -1.019  0.00  0.00    -0.132 OA
BRANCH  16  19
ATOM     19  C   LIG    1        1.121   2.152   0.003  0.00  0.00    +0.178 C 
ATOM     20  C   LIG    1       -0.018   1.474   0.010  0.00  0.00    +0.030 C 
BRANCH  20  21
ATOM     21  C   LIG    1        0.002  -0.004   0.002  0.00  0.00    -0.024 A 
ATOM     22  C   LIG    1        1.218  -0.688  -0.019  0.00  0.00    +0.008 A 
ATOM     23  C   LIG    1        1.230  -2.068  -0.022  0.00  0.00    +0.001 A 
ATOM     24  C   LIG    1        0.040  -2.773  -0.014  0.00  0.00    +0.000 A 
ATOM     25  C   LIG    1       -1.169  -2.100   0.002  0.00  0.00    +0.001 A 
ATOM     26  C   LIG    1       -1.195  -0.721   0.010  0.00  0.00    +0.008 A 
ENDBRANCH  20  21
ENDBRANCH  16  19
ENDBRANCH  15  16
ENDBRANCH   4  15
TORSDOF 7
