REMARK  Name = ZINC03562014
REMARK                            x       y       z     vdW  Elec       q    Type
REMARK                         _______ _______ _______ _____ _____    ______ ____
ROOT
ATOM      1  N   LIG    1        0.051  -2.891   2.186  0.00  0.00    -0.261 N 
ATOM      2  H   LIG    1        0.051  -2.545   3.092  0.00  0.00    +0.157 HD
ATOM      3  C   LIG    1        0.068  -4.222   1.973  0.00  0.00    +0.250 C 
ATOM      4  O   LIG    1        0.069  -4.655   0.837  0.00  0.00    -0.270 OA
ENDROOT
BRANCH   1   9
ATOM      5  C   LIG    1       -0.018   1.503   0.010  0.00  0.00    +0.066 C 
ATOM      6  C   LIG    1        0.002  -0.004   0.002  0.00  0.00    +0.047 A 
ATOM      7  C   LIG    1        0.006  -0.706  -1.158  0.00  0.00    +0.071 A 
ATOM      8  S   LIG    1        0.032  -2.379  -0.535  0.00  0.00    -0.060 S 
ATOM      9  C   LIG    1        0.035  -2.015   1.108  0.00  0.00    +0.165 A 
ATOM     10  N   LIG    1        0.023  -0.700   1.124  0.00  0.00    -0.230 NA
ENDBRANCH   1   9
BRANCH   3  11
ATOM     11  C   LIG    1        0.086  -5.154   3.120  0.00  0.00    +0.041 A 
ATOM     12  C   LIG    1        0.079  -4.658   4.425  0.00  0.00    +0.013 A 
ATOM     13  C   LIG    1        0.096  -5.531   5.494  0.00  0.00    +0.004 A 
ATOM     14  C   LIG    1        0.119  -6.897   5.276  0.00  0.00    +0.045 A 
ATOM     15  C   LIG    1        0.126  -7.399   3.982  0.00  0.00    +0.121 A 
ATOM     16  C   LIG    1        0.103  -6.532   2.902  0.00  0.00    +0.058 A 
BRANCH  15  17
ATOM     17  O   LIG    1        0.149  -8.742   3.774  0.00  0.00    -0.495 OA
ATOM     18  C   LIG    1        0.166  -9.577   4.933  0.00  0.00    +0.277 C 
ENDBRANCH  15  17
ENDBRANCH   3  11
TORSDOF 3
