REMARK  Name = ZINC02384806
REMARK                            x       y       z     vdW  Elec       q    Type
REMARK                         _______ _______ _______ _____ _____    ______ ____
ROOT
ATOM      1  CA  PHE A  1       -3.011   4.124  -1.392  0.00  0.00    +0.166 C 
ENDROOT
BRANCH   1   4
ATOM      2  N   PHE A  1       -5.417   4.092  -0.818  0.00  0.00    -0.301 N 
ATOM      3  H   PHE A  1       -5.279   3.216  -0.424  0.00  0.00    +0.150 HD
ATOM      4  C   PHE A  1       -4.382   4.749  -1.378  0.00  0.00    +0.234 C 
ATOM      5  O   PHE A  1       -4.555   5.844  -1.870  0.00  0.00    -0.274 OA
BRANCH   2   7
ATOM      6  CB  PHE A  1       -7.462   4.397  -2.125  0.00  0.00    +0.040 C 
ATOM      7  CA  PHE A  1       -6.750   4.699  -0.805  0.00  0.00    +0.179 C 
BRANCH   7   8
ATOM      8  C   PHE A  1       -7.550   4.131   0.339  0.00  0.00    +0.325 C 
ATOM      9  O   PHE A  1       -7.057   3.303   1.068  0.00  0.00    -0.249 OA
BRANCH   8  10
ATOM     10  OXT PHE A  1       -8.810   4.544   0.548  0.00  0.00    -0.479 OA
ATOM     11  HXT PHE A  1       -9.192   5.186  -0.018  0.00  0.00    +0.295 HD
ENDBRANCH   8  10
ENDBRANCH   7   8
ENDBRANCH   2   7
ENDBRANCH   1   4
BRANCH   1  12
ATOM     12  N   PHE A  1       -2.068   5.031  -2.051  0.00  0.00    -0.269 N 
ATOM     13  H   PHE A  1       -2.245   5.984  -2.071  0.00  0.00    +0.153 HD
ATOM     14  C   UNK A  0       -0.955   4.540  -2.631  0.00  0.00    +0.401 C 
ATOM     15  O   UNK A  0       -0.733   3.345  -2.606  0.00  0.00    -0.226 OA
BRANCH  14  16
ATOM     16  O   UNK A  0       -0.088   5.373  -3.236  0.00  0.00    -0.446 OA
BRANCH  16  17
ATOM     17  C   UNK A  0        1.090   4.774  -3.839  0.00  0.00    +0.269 C 
BRANCH  17  18
ATOM     18  C   UNK A  0        1.937   5.852  -4.465  0.00  0.00    -0.010 A 
ATOM     19  C   UNK A  0        1.735   6.212  -5.785  0.00  0.00    +0.007 A 
ATOM     20  C   UNK A  0        2.509   7.204  -6.357  0.00  0.00    +0.000 A 
ATOM     21  C   UNK A  0        3.491   7.830  -5.613  0.00  0.00    +0.000 A 
ATOM     22  C   UNK A  0        3.697   7.466  -4.295  0.00  0.00    +0.000 A 
ATOM     23  C   UNK A  0        2.920   6.478  -3.721  0.00  0.00    +0.007 A 
ENDBRANCH  17  18
ENDBRANCH  16  17
ENDBRANCH  14  16
ENDBRANCH   1  12
BRANCH   1  24
ATOM     24  CB  PHE A  1       -2.553   3.869   0.045  0.00  0.00    +0.067 C 
BRANCH  24  25
ATOM     25  CG  PHE A  1       -1.238   3.133   0.030  0.00  0.00    -0.045 A 
ATOM     26  CD2 PHE A  1       -1.219   1.751   0.017  0.00  0.00    +0.004 A 
ATOM     27  CE2 PHE A  1       -0.013   1.076   0.008  0.00  0.00    +0.000 A 
ATOM     28  CZ  PHE A  1        1.175   1.783   0.000  0.00  0.00    +0.000 A 
ATOM     29  CE1 PHE A  1        1.156   3.165   0.008  0.00  0.00    +0.000 A 
ATOM     30  CD1 PHE A  1       -0.050   3.840   0.022  0.00  0.00    +0.004 A 
ENDBRANCH  24  25
ENDBRANCH   1  24
TORSDOF 10
