REMARK  Name = ZINC02868930
REMARK                            x       y       z     vdW  Elec       q    Type
REMARK                         _______ _______ _______ _____ _____    ______ ____
ROOT
ATOM      1  N   LIG    1        0.011  -0.010   0.002  0.00  0.00    +0.385 N 
ATOM      2  H   LIG    1        0.512  -0.344   0.834  0.00  0.00    -0.085 HD
ATOM      3  H   LIG    1        0.496  -0.335  -0.843  0.00  0.00    -0.085 HD
ENDROOT
BRANCH   1   4
ATOM      4  C   LIG    1       -1.362  -0.549   0.012  0.00  0.00    -0.028 C 
BRANCH   4  10
ATOM      5  C   LIG    1       -1.107  -2.368  -2.486  0.00  0.00    +0.148 C 
ATOM      6  N   LIG    1       -1.189  -2.844  -1.103  0.00  0.00    -0.355 N 
ATOM      7  C   LIG    1       -1.162  -4.149  -0.709  0.00  0.00    +0.085 A 
ATOM      8  C   LIG    1       -1.266  -4.186   0.635  0.00  0.00    +0.019 A 
ATOM      9  C   LIG    1       -1.355  -2.854   1.088  0.00  0.00    +0.021 A 
ATOM     10  C   LIG    1       -1.301  -2.055   0.003  0.00  0.00    +0.001 A 
ENDBRANCH   4  10
ENDBRANCH   1   4
BRANCH   1  11
ATOM     11  C   LIG    1       -0.018   1.465   0.010  0.00  0.00    -0.046 C 
BRANCH  11  12
ATOM     12  C   LIG    1        1.396   1.986  -0.001  0.00  0.00    -0.064 A 
ATOM     13  C   LIG    1        2.054   2.225   1.192  0.00  0.00    +0.002 A 
ATOM     14  C   LIG    1        3.353   2.698   1.182  0.00  0.00    +0.000 A 
ATOM     15  C   LIG    1        3.990   2.944  -0.020  0.00  0.00    +0.000 A 
ATOM     16  C   LIG    1        3.330   2.711  -1.212  0.00  0.00    +0.000 A 
ATOM     17  C   LIG    1        2.033   2.232  -1.203  0.00  0.00    +0.002 A 
ENDBRANCH  11  12
ENDBRANCH   1  11
TORSDOF 4
