REMARK  Name = ZINC03104594
REMARK                            x       y       z     vdW  Elec       q    Type
REMARK                         _______ _______ _______ _____ _____    ______ ____
ROOT
ATOM      1  C   LIG    1        8.010  -2.439  -0.086  0.00  0.00    +0.001 A 
ATOM      2  C   LIG    1        8.904  -1.386  -0.088  0.00  0.00    +0.001 A 
ATOM      3  C   LIG    1        8.445  -0.079  -0.078  0.00  0.00    +0.012 A 
ATOM      4  C   LIG    1        7.078   0.174  -0.064  0.00  0.00    +0.032 A 
ATOM      5  C   LIG    1        6.167  -0.896  -0.061  0.00  0.00    +0.014 A 
ATOM      6  C   LIG    1        4.787  -0.348  -0.046  0.00  0.00    +0.105 A 
ATOM      7  C   LIG    1        4.867   1.058  -0.039  0.00  0.00    +0.052 A 
ATOM      8  C   LIG    1        3.687   1.788  -0.024  0.00  0.00    +0.044 A 
ATOM      9  C   LIG    1        2.480   1.070  -0.016  0.00  0.00    +0.094 A 
ATOM     10  N   LIG    1        2.504  -0.256  -0.019  0.00  0.00    -0.149 NA
ATOM     11  N   LIG    1        3.596  -0.930  -0.038  0.00  0.00    -0.148 NA
ATOM     12  C   LIG    1        6.299   1.435  -0.050  0.00  0.00    +0.196 C 
ATOM     13  O   LIG    1        6.749   2.563  -0.049  0.00  0.00    -0.287 OA
ATOM     14  C   LIG    1        6.644  -2.200  -0.072  0.00  0.00    +0.011 A 
ENDROOT
BRANCH   9  15
ATOM     15  C   LIG    1        1.185   1.790   0.000  0.00  0.00    +0.005 A 
ATOM     16  C   LIG    1       -0.013   1.076   0.008  0.00  0.00    +0.013 A 
ATOM     17  C   LIG    1       -1.216   1.750   0.017  0.00  0.00    +0.042 A 
ATOM     18  C   LIG    1       -1.237   3.135   0.031  0.00  0.00    +0.158 A 
ATOM     19  F   LIG    1       -2.418   3.791   0.046  0.00  0.00    -0.202 F 
ATOM     20  C   LIG    1       -0.049   3.851   0.023  0.00  0.00    +0.159 A 
ATOM     21  F   LIG    1       -0.074   5.202   0.031  0.00  0.00    -0.202 F 
ATOM     22  C   LIG    1        1.161   3.184   0.008  0.00  0.00    +0.051 A 
ENDBRANCH   9  15
TORSDOF 1
