REMARK  Name = ZINC03616630
REMARK                            x       y       z     vdW  Elec       q    Type
REMARK                         _______ _______ _______ _____ _____    ______ ____
ROOT
ATOM      1  N   LIG    1        0.690  -0.478  -1.207  0.00  0.00    +0.383 N 
ATOM      2  H   LIG    1        1.637  -0.130  -1.212  0.00  0.00    -0.081 HD
ATOM      3  C   LIG    1       -0.016   0.017  -2.395  0.00  0.00    -0.078 C 
ATOM      4  C   LIG    1        0.741  -0.406  -3.655  0.00  0.00    -0.015 C 
ATOM      5  C   LIG    1        0.823  -1.934  -3.707  0.00  0.00    -0.010 C 
ATOM      6  C   LIG    1        1.494  -2.444  -2.428  0.00  0.00    -0.015 C 
ATOM      7  C   LIG    1        0.709  -1.946  -1.213  0.00  0.00    -0.078 C 
ENDROOT
BRANCH   1   9
ATOM      8  C   LIG    1       -0.019   1.526   0.010  0.00  0.00    -0.010 C 
ATOM      9  C   LIG    1        0.002  -0.004   0.002  0.00  0.00    -0.038 C 
BRANCH   9  10
ATOM     10  C   LIG    1        0.742  -0.511   1.242  0.00  0.00    +0.131 C 
BRANCH  10  11
ATOM     11  C   LIG    1       -0.030  -0.130   2.478  0.00  0.00    -0.020 A 
ATOM     12  C   LIG    1        0.065   1.155   2.982  0.00  0.00    +0.009 A 
ATOM     13  C   LIG    1       -0.641   1.507   4.116  0.00  0.00    +0.046 A 
ATOM     14  C   LIG    1       -1.446   0.571   4.749  0.00  0.00    +0.117 A 
ATOM     15  C   LIG    1       -1.540  -0.717   4.241  0.00  0.00    +0.046 A 
ATOM     16  C   LIG    1       -0.836  -1.062   3.104  0.00  0.00    +0.009 A 
BRANCH  14  17
ATOM     17  O   LIG    1       -2.142   0.914   5.865  0.00  0.00    -0.507 OA
ATOM     18  H   LIG    1       -3.026   1.262   5.686  0.00  0.00    +0.292 HD
ENDBRANCH  14  17
ENDBRANCH  10  11
BRANCH  10  19
ATOM     19  O   LIG    1        2.044   0.076   1.292  0.00  0.00    -0.389 OA
ATOM     20  H   LIG    1        2.038   1.042   1.339  0.00  0.00    +0.210 HD
ENDBRANCH  10  19
ENDBRANCH   9  10
ENDBRANCH   1   9
BRANCH   5  21
ATOM     21  C   LIG    1        1.647  -2.362  -4.923  0.00  0.00    +0.038 C 
BRANCH  21  22
ATOM     22  C   LIG    1        1.624  -3.864  -5.043  0.00  0.00    -0.047 A 
ATOM     23  C   LIG    1        2.588  -4.623  -4.405  0.00  0.00    +0.003 A 
ATOM     24  C   LIG    1        2.567  -6.001  -4.515  0.00  0.00    +0.000 A 
ATOM     25  C   LIG    1        1.582  -6.620  -5.261  0.00  0.00    +0.000 A 
ATOM     26  C   LIG    1        0.617  -5.861  -5.898  0.00  0.00    +0.000 A 
ATOM     27  C   LIG    1        0.636  -4.483  -5.785  0.00  0.00    +0.003 A 
ENDBRANCH  21  22
ENDBRANCH   5  21
TORSDOF 7
