REMARK  Name = ZINC03158095
REMARK                            x       y       z     vdW  Elec       q    Type
REMARK                         _______ _______ _______ _____ _____    ______ ____
ROOT
ATOM      1  C   LIG    1       -1.309   1.891  -0.240  0.00  0.00    +0.001 A 
ATOM      2  C   LIG    1       -0.114   1.183  -0.176  0.00  0.00    +0.001 A 
ATOM      3  C   LIG    1        1.086   1.833  -0.124  0.00  0.00    +0.009 A 
ATOM      4  C   LIG    1        1.137   3.228  -0.116  0.00  0.00    -0.007 A 
ATOM      5  C   LIG    1       -0.091   3.937  -0.025  0.00  0.00    -0.017 A 
ATOM      6  C   LIG    1       -0.080   5.315   0.266  0.00  0.00    +0.012 A 
ATOM      7  C   LIG    1        1.089   5.992   0.364  0.00  0.00    +0.047 A 
ATOM      8  C   LIG    1        2.316   5.368   0.124  0.00  0.00    +0.140 A 
ATOM      9  O   LIG    1        3.456   6.079   0.263  0.00  0.00    -0.422 OA
ATOM     10  C   LIG    1        4.653   5.517   0.035  0.00  0.00    +0.337 A 
ATOM     11  O   LIG    1        5.670   6.138   0.281  0.00  0.00    -0.245 OA
ATOM     12  C   LIG    1        4.735   4.215  -0.493  0.00  0.00    +0.096 A 
ATOM     13  C   LIG    1        3.591   3.501  -0.713  0.00  0.00    -0.019 A 
ATOM     14  C   LIG    1        2.370   4.004  -0.216  0.00  0.00    +0.029 A 
ATOM     15  C   LIG    1       -1.306   3.251  -0.175  0.00  0.00    +0.008 A 
ENDROOT
BRANCH  13  16
ATOM     16  C   LIG    1        3.700   2.228  -1.511  0.00  0.00    +0.156 C 
BRANCH  16  17
ATOM     17  C   LIG    1        3.196   2.468  -2.911  0.00  0.00    +0.309 C 
ATOM     18  O   LIG    1        2.791   3.561  -3.228  0.00  0.00    -0.251 OA
BRANCH  17  19
ATOM     19  O   LIG    1        3.198   1.467  -3.805  0.00  0.00    -0.480 OA
ATOM     20  H   LIG    1        3.512   0.619  -3.560  0.00  0.00    +0.295 HD
ENDBRANCH  17  19
ENDBRANCH  16  17
ENDBRANCH  13  16
TORSDOF 3
