REMARK  Name = ZINC02863466
REMARK                            x       y       z     vdW  Elec       q    Type
REMARK                         _______ _______ _______ _____ _____    ______ ____
ROOT
ATOM      1  C   LIG    1       -2.550  -0.538   0.128  0.00  0.00    +0.203 C 
ATOM      2  C   LIG    1       -3.150  -0.883   1.462  0.00  0.00    +0.041 C 
ATOM      3  C   LIG    1       -3.598   0.281   2.004  0.00  0.00    +0.027 C 
ATOM      4  N   LIG    1       -3.353   1.335   1.181  0.00  0.00    -0.242 N 
ATOM      5  C   LIG    1       -4.277   0.314   3.359  0.00  0.00    +0.058 C 
ATOM      6  C   LIG    1       -4.931  -1.051   3.598  0.00  0.00    -0.023 C 
ATOM      7  C   LIG    1       -6.037  -1.271   2.564  0.00  0.00    +0.011 C 
ATOM      8  C   LIG    1       -5.541  -1.082   5.001  0.00  0.00    +0.011 C 
ATOM      9  C   LIG    1       -3.892  -2.167   3.473  0.00  0.00    +0.086 C 
ATOM     10  C   LIG    1       -3.266  -2.130   2.096  0.00  0.00    +0.163 C 
ATOM     11  O   LIG    1       -2.876  -3.146   1.557  0.00  0.00    -0.292 OA
ATOM     12  C   LIG    1       -2.737   0.966   0.041  0.00  0.00    +0.248 C 
ATOM     13  O   LIG    1       -2.400   1.690  -0.871  0.00  0.00    -0.273 OA
ENDROOT
BRANCH   1  16
ATOM     14  C   LIG    1       -0.366   0.532   2.073  0.00  0.00    +0.065 C 
ATOM     15  C   LIG    1       -0.139  -0.432   0.937  0.00  0.00    +0.040 A 
ATOM     16  C   LIG    1       -1.086  -0.894   0.095  0.00  0.00    +0.067 A 
ATOM     17  C   LIG    1       -0.465  -1.772  -0.824  0.00  0.00    +0.277 A 
ATOM     18  N   LIG    1        0.848  -1.823  -0.517  0.00  0.00    -0.219 N 
ATOM     19  O   LIG    1       -1.016  -2.373  -1.728  0.00  0.00    -0.265 OA
ATOM     20  N   LIG    1        1.060  -0.980   0.582  0.00  0.00    -0.294 N 
ATOM     21  H   LIG    1        1.912  -0.817   1.017  0.00  0.00    +0.187 HD
BRANCH  18  22
ATOM     22  C   LIG    1        1.822  -2.576  -1.181  0.00  0.00    +0.067 A 
ATOM     23  C   LIG    1        1.470  -3.363  -2.269  0.00  0.00    +0.028 A 
ATOM     24  C   LIG    1        2.435  -4.105  -2.923  0.00  0.00    +0.002 A 
ATOM     25  C   LIG    1        3.749  -4.065  -2.494  0.00  0.00    +0.000 A 
ATOM     26  C   LIG    1        4.102  -3.282  -1.410  0.00  0.00    +0.002 A 
ATOM     27  C   LIG    1        3.143  -2.533  -0.756  0.00  0.00    +0.028 A 
ENDBRANCH  18  22
ENDBRANCH   1  16
BRANCH   4  28
ATOM     28  C   LIG    1       -3.704   2.657   1.484  0.00  0.00    +0.041 A 
ATOM     29  C   LIG    1       -3.075   3.321   2.529  0.00  0.00    +0.024 A 
ATOM     30  C   LIG    1       -3.422   4.625   2.825  0.00  0.00    +0.002 A 
ATOM     31  C   LIG    1       -4.394   5.269   2.082  0.00  0.00    +0.000 A 
ATOM     32  C   LIG    1       -5.022   4.610   1.041  0.00  0.00    +0.002 A 
ATOM     33  C   LIG    1       -4.676   3.308   0.737  0.00  0.00    +0.024 A 
ENDBRANCH   4  28
BRANCH   1  34
ATOM     34  C   LIG    1       -3.300  -1.242  -1.004  0.00  0.00    +0.412 C 
ATOM     35  F   LIG    1       -2.754  -0.859  -2.234  0.00  0.00    -0.169 F 
ATOM     36  F   LIG    1       -4.652  -0.883  -0.962  0.00  0.00    -0.169 F 
ATOM     37  F   LIG    1       -3.180  -2.628  -0.852  0.00  0.00    -0.169 F 
ENDBRANCH   1  34
TORSDOF 4
