REMARK  Name = ZINC03173766
REMARK                            x       y       z     vdW  Elec       q    Type
REMARK                         _______ _______ _______ _____ _____    ______ ____
ROOT
ATOM      1  C   LIG    1        3.711  -0.707  -0.038  0.00  0.00    +0.016 C 
ATOM      2  C   LIG    1        3.788  -1.588  -1.288  0.00  0.00    -0.011 C 
ATOM      3  C   LIG    1        5.090  -2.392  -1.259  0.00  0.00    -0.078 C 
ATOM      4  N   LIG    1        5.121  -3.238  -0.060  0.00  0.00    +0.383 N 
ATOM      5  H   LIG    1        4.309  -3.837  -0.051  0.00  0.00    -0.081 HD
ATOM      6  C   LIG    1        5.120  -2.397   1.143  0.00  0.00    -0.078 C 
ATOM      7  C   LIG    1        3.819  -1.593   1.207  0.00  0.00    -0.011 C 
ENDROOT
BRANCH   1  11
ATOM      8  C   LIG    1       -0.017   1.378   0.010  0.00  0.00    +0.000 A 
ATOM      9  C   LIG    1        1.171   2.086   0.002  0.00  0.00    +0.000 A 
ATOM     10  C   LIG    1        2.377   1.411  -0.013  0.00  0.00    +0.004 A 
ATOM     11  C   LIG    1        2.396   0.029  -0.020  0.00  0.00    -0.044 A 
ATOM     12  C   LIG    1        1.208  -0.679  -0.012  0.00  0.00    +0.004 A 
ATOM     13  C   LIG    1        0.002  -0.004   0.002  0.00  0.00    +0.000 A 
ENDBRANCH   1  11
BRANCH   4  14
ATOM     14  C   LIG    1        6.335  -4.064  -0.076  0.00  0.00    -0.040 C 
ATOM     15  C   LIG    1        6.369  -4.946   1.173  0.00  0.00    -0.013 C 
ATOM     16  C   LIG    1        7.634  -5.807   1.156  0.00  0.00    -0.001 C 
ATOM     17  C   LIG    1        7.632  -6.691  -0.092  0.00  0.00    +0.002 C 
ATOM     18  C   LIG    1        7.599  -5.809  -1.342  0.00  0.00    +0.030 C 
ATOM     19  C   LIG    1        6.334  -4.948  -1.325  0.00  0.00    +0.101 C 
BRANCH  19  20
ATOM     20  O   LIG    1        5.182  -5.794  -1.308  0.00  0.00    -0.393 OA
ATOM     21  H   LIG    1        5.116  -6.383  -2.072  0.00  0.00    +0.210 HD
ENDBRANCH  19  20
ENDBRANCH   4  14
TORSDOF 3
