REMARK  Name = ZINC03152345
REMARK                            x       y       z     vdW  Elec       q    Type
REMARK                         _______ _______ _______ _____ _____    ______ ____
ROOT
ATOM      1  C   LIG    1       -1.262  -0.762   0.010  0.00  0.00    +0.233 C 
ATOM      2  O   LIG    1       -1.546  -0.149  -0.999  0.00  0.00    -0.283 OA
ENDROOT
BRANCH   1   9
ATOM      3  C   LIG    1       -0.830  -0.747   2.463  0.00  0.00    +0.013 A 
ATOM      4  C   LIG    1       -0.630  -0.063   3.643  0.00  0.00    +0.018 A 
ATOM      5  C   LIG    1       -0.644   1.323   3.655  0.00  0.00    +0.048 A 
ATOM      6 BR   LIG    1       -0.368   2.252   5.279  0.00  0.00    -0.048 Br
ATOM      7  C   LIG    1       -0.859   2.031   2.484  0.00  0.00    +0.136 A 
ATOM      8  C   LIG    1       -1.060   1.361   1.297  0.00  0.00    +0.045 A 
ATOM      9  C   LIG    1       -1.048  -0.038   1.276  0.00  0.00    +0.028 A 
BRANCH   7  10
ATOM     10  N   LIG    1       -0.871   3.511   2.508  0.00  0.00    +0.007 N 
ATOM     11  O   LIG    1       -1.060   4.135   1.479  0.00  0.00    -0.130 OA
BRANCH  10  12
ATOM     12  O   LIG    1       -0.693   4.105   3.556  0.00  0.00    -0.396 OA
ATOM     13  H   LIG    1       -0.548   3.625   4.348  0.00  0.00    +0.329 HD
ENDBRANCH  10  12
ENDBRANCH   7  10
ENDBRANCH   1   9
BRANCH   1  14
ATOM     14  C   LIG    1       -1.130  -2.247  -0.031  0.00  0.00    +0.233 C 
ATOM     15  O   LIG    1       -0.030  -2.759  -0.011  0.00  0.00    -0.283 OA
BRANCH  14  16
ATOM     16  C   LIG    1       -2.335  -3.092  -0.097  0.00  0.00    +0.028 A 
ATOM     17  C   LIG    1       -3.600  -2.506  -0.221  0.00  0.00    +0.013 A 
ATOM     18  C   LIG    1       -4.722  -3.303  -0.288  0.00  0.00    +0.018 A 
ATOM     19  C   LIG    1       -4.601  -4.682  -0.220  0.00  0.00    +0.048 A 
ATOM     20 BR   LIG    1       -6.148  -5.766  -0.305  0.00  0.00    -0.048 Br
ATOM     21  C   LIG    1       -3.353  -5.269  -0.092  0.00  0.00    +0.136 A 
ATOM     22  C   LIG    1       -2.221  -4.485  -0.030  0.00  0.00    +0.045 A 
BRANCH  21  23
ATOM     23  N   LIG    1       -3.234  -6.743  -0.022  0.00  0.00    +0.007 N 
ATOM     24  O   LIG    1       -2.138  -7.261   0.091  0.00  0.00    -0.130 OA
BRANCH  23  25
ATOM     25  O   LIG    1       -4.233  -7.438  -0.076  0.00  0.00    -0.396 OA
ATOM     26  H   LIG    1       -5.077  -7.039  -0.163  0.00  0.00    +0.329 HD
ENDBRANCH  23  25
ENDBRANCH  21  23
ENDBRANCH  14  16
ENDBRANCH   1  14
TORSDOF 7
