REMARK  Name = ZINC02511851
REMARK                            x       y       z     vdW  Elec       q    Type
REMARK                         _______ _______ _______ _____ _____    ______ ____
ROOT
ATOM      1  C   LIG    1        0.054  -2.845   2.489  0.00  0.00    +0.033 C 
ATOM      2  C   LIG    1        1.239  -3.815   2.505  0.00  0.00    -0.066 C 
ATOM      3  N   LIG    1        1.503  -4.339   1.177  0.00  0.00    +0.379 N 
ATOM      4  H   LIG    1        1.569  -3.561   0.537  0.00  0.00    -0.082 HD
ATOM      5  C   LIG    1        2.804  -5.019   1.200  0.00  0.00    -0.096 C 
ATOM      6  C   LIG    1        0.513  -5.269   0.662  0.00  0.00    -0.074 C 
ATOM      7  C   LIG    1       -0.797  -4.548   0.329  0.00  0.00    +0.018 C 
ATOM      8  C   LIG    1       -1.627  -4.465   1.594  0.00  0.00    -0.023 A 
ATOM      9  C   LIG    1       -2.789  -5.209   1.704  0.00  0.00    +0.089 A 
ATOM     10 CL   LIG    1       -3.296  -6.234   0.398  0.00  0.00    -0.079 Cl
ATOM     11  C   LIG    1       -3.548  -5.127   2.865  0.00  0.00    +0.177 A 
ATOM     12  C   LIG    1       -3.135  -4.304   3.908  0.00  0.00    +0.160 A 
ATOM     13  C   LIG    1       -1.968  -3.564   3.786  0.00  0.00    +0.053 A 
ATOM     14  C   LIG    1       -1.222  -3.651   2.625  0.00  0.00    -0.034 A 
ENDROOT
BRANCH   1  20
ATOM     15  C   LIG    1       -2.493  -0.779  -1.292  0.00  0.00    +0.044 C 
ATOM     16  C   LIG    1       -1.181  -1.097  -0.622  0.00  0.00    -0.050 A 
ATOM     17  C   LIG    1        0.007  -0.690  -1.200  0.00  0.00    +0.003 A 
ATOM     18  C   LIG    1        1.210  -0.981  -0.585  0.00  0.00    +0.001 A 
ATOM     19  C   LIG    1        1.225  -1.678   0.609  0.00  0.00    +0.004 A 
ATOM     20  C   LIG    1        0.037  -2.084   1.188  0.00  0.00    -0.041 A 
ATOM     21  C   LIG    1       -1.166  -1.789   0.574  0.00  0.00    +0.007 A 
ENDBRANCH   1  20
BRANCH  11  22
ATOM     22  O   LIG    1       -4.692  -5.854   2.983  0.00  0.00    -0.502 OA
ATOM     23  H   LIG    1       -5.483  -5.395   2.671  0.00  0.00    +0.292 HD
ENDBRANCH  11  22
BRANCH  12  24
ATOM     24  O   LIG    1       -3.876  -4.224   5.046  0.00  0.00    -0.503 OA
ATOM     25  H   LIG    1       -4.550  -3.532   5.029  0.00  0.00    +0.292 HD
ENDBRANCH  12  24
TORSDOF 3
