REMARK  Name = ZINC02712270
REMARK                            x       y       z     vdW  Elec       q    Type
REMARK                         _______ _______ _______ _____ _____    ______ ____
ROOT
ATOM      1  C   LIG    1        7.685   7.424   0.632  0.00  0.00    +0.130 A 
ATOM      2  C   LIG    1        8.469   7.566  -0.498  0.00  0.00    +0.046 A 
ATOM      3  C   LIG    1        7.972   7.238  -1.751  0.00  0.00    +0.004 A 
ATOM      4  C   LIG    1        6.687   6.764  -1.898  0.00  0.00    +0.014 A 
ATOM      5  C   LIG    1        5.875   6.612  -0.775  0.00  0.00    +0.050 A 
ATOM      6  C   LIG    1        4.498   6.112  -0.874  0.00  0.00    +0.260 A 
ATOM      7  O   LIG    1        4.028   5.814  -1.956  0.00  0.00    -0.267 OA
ATOM      8  N   LIG    1        3.761   5.987   0.248  0.00  0.00    -0.306 N 
ATOM      9  C   LIG    1        4.249   6.315   1.481  0.00  0.00    +0.090 A 
ATOM     10  C   LIG    1        5.498   6.774   1.662  0.00  0.00    +0.030 A 
ATOM     11  C   LIG    1        6.376   6.945   0.504  0.00  0.00    +0.030 A 
ENDROOT
BRANCH   1  12
ATOM     12  O   LIG    1        8.180   7.748   1.855  0.00  0.00    -0.477 OA
BRANCH  12  13
ATOM     13  C   LIG    1        9.477   8.348   1.892  0.00  0.00    +0.278 C 
ATOM     14  C   LIG    1       10.545   7.252   1.883  0.00  0.00    +0.064 C 
BRANCH  13  15
ATOM     15  C   LIG    1        9.613   9.172   3.146  0.00  0.00    +0.348 C 
ATOM     16  O   LIG    1        8.730   9.168   3.971  0.00  0.00    -0.247 OA
BRANCH  15  17
ATOM     17  O   LIG    1       10.716   9.912   3.346  0.00  0.00    -0.462 OA
BRANCH  17  19
ATOM     18  C   LIG    1       12.098  11.453   4.627  0.00  0.00    +0.048 C 
ATOM     19  C   LIG    1       10.779  10.681   4.576  0.00  0.00    +0.229 C 
ENDBRANCH  17  19
ENDBRANCH  15  17
ENDBRANCH  13  15
ENDBRANCH  12  13
ENDBRANCH   1  12
BRANCH   8  20
ATOM     20  C   LIG    1        2.388   5.487   0.140  0.00  0.00    +0.220 C 
BRANCH  20  21
ATOM     21  C   LIG    1        2.389   3.986   0.264  0.00  0.00    +0.237 C 
ATOM     22  N   LIG    1        1.229   3.303   0.194  0.00  0.00    -0.284 N 
ATOM     23  H   LIG    1        0.403   3.770  -0.009  0.00  0.00    +0.155 HD
ATOM     24  O   LIG    1        3.434   3.391   0.427  0.00  0.00    -0.274 OA
BRANCH  22  25
ATOM     25  C   LIG    1        1.216   1.921   0.414  0.00  0.00    +0.033 A 
ATOM     26  C   LIG    1        2.104   1.353   1.318  0.00  0.00    +0.023 A 
ATOM     27  C   LIG    1        2.088  -0.012   1.534  0.00  0.00    +0.005 A 
ATOM     28  C   LIG    1        1.189  -0.811   0.852  0.00  0.00    -0.050 A 
ATOM     29  C   LIG    1        1.174  -2.299   1.090  0.00  0.00    +0.044 C 
ATOM     30  C   LIG    1        0.304  -0.247  -0.049  0.00  0.00    +0.005 A 
ATOM     31  C   LIG    1        0.315   1.116  -0.270  0.00  0.00    +0.023 A 
ENDBRANCH  22  25
ENDBRANCH  20  21
ENDBRANCH   8  20
TORSDOF 8
