REMARK  Name = ZINC03154141
REMARK                            x       y       z     vdW  Elec       q    Type
REMARK                         _______ _______ _______ _____ _____    ______ ____
ROOT
ATOM      1  C   LIG    1       -6.098   3.278  -0.067  0.00  0.00    +0.001 A 
ATOM      2  C   LIG    1       -6.011   1.896  -0.177  0.00  0.00    +0.002 A 
ATOM      3  C   LIG    1       -4.800   1.266  -0.183  0.00  0.00    +0.028 A 
ATOM      4  C   LIG    1       -3.624   2.016  -0.077  0.00  0.00    +0.077 A 
ATOM      5  C   LIG    1       -3.711   3.424   0.035  0.00  0.00    +0.045 A 
ATOM      6  C   LIG    1       -2.462   4.184   0.144  0.00  0.00    +0.169 A 
ATOM      7  N   LIG    1       -2.167   5.462   0.260  0.00  0.00    -0.194 NA
ATOM      8  C   LIG    1       -0.843   5.612   0.323  0.00  0.00    +0.233 A 
ATOM      9  N   LIG    1       -0.266   4.432   0.248  0.00  0.00    -0.127 NA
ATOM     10  N   LIG    1       -1.288   3.481   0.137  0.00  0.00    -0.192 N 
ATOM     11  C   LIG    1       -1.304   2.117   0.020  0.00  0.00    +0.165 A 
ATOM     12  N   LIG    1       -2.412   1.427  -0.079  0.00  0.00    -0.227 NA
ATOM     13  C   LIG    1       -4.959   4.045   0.039  0.00  0.00    +0.014 A 
ENDROOT
BRANCH  11  14
ATOM     14  C   LIG    1       -0.017   1.392   0.010  0.00  0.00    +0.033 A 
ATOM     15  C   LIG    1        1.020   1.816  -0.823  0.00  0.00    +0.013 A 
ATOM     16  C   LIG    1        2.222   1.139  -0.823  0.00  0.00    +0.001 A 
ATOM     17  C   LIG    1        2.401   0.041  -0.001  0.00  0.00    +0.001 A 
ATOM     18  C   LIG    1        1.379  -0.386   0.828  0.00  0.00    +0.016 A 
ATOM     19  C   LIG    1        0.170   0.283   0.838  0.00  0.00    +0.029 A 
ATOM     20 BR   LIG    1       -1.227  -0.302   1.970  0.00  0.00    -0.050 Br
ENDBRANCH  11  14
BRANCH   8  21
ATOM     21  N   LIG    1       -0.175   6.829   0.448  0.00  0.00    -0.326 N 
ATOM     22  H   LIG    1        0.794   6.848   0.486  0.00  0.00    +0.145 HD
ATOM     23  H   LIG    1       -0.679   7.656   0.497  0.00  0.00    +0.145 HD
ENDBRANCH   8  21
TORSDOF 2
