REMARK  Name = ZINC02506518
REMARK                            x       y       z     vdW  Elec       q    Type
REMARK                         _______ _______ _______ _____ _____    ______ ____
ROOT
ATOM      1  C   LIG    1        3.443  -2.917   2.947  0.00  0.00    +0.260 C 
ENDROOT
BRANCH   1   2
ATOM      2  O   LIG    1        3.151  -1.831   2.065  0.00  0.00    -0.489 OA
BRANCH   2   8
ATOM      3  C   LIG    1        3.937  -0.359   0.356  0.00  0.00    +0.024 A 
ATOM      4  C   LIG    1        4.971   0.063  -0.477  0.00  0.00    +0.012 A 
ATOM      5  C   LIG    1        6.198  -0.568  -0.426  0.00  0.00    +0.001 A 
ATOM      6  C   LIG    1        6.405  -1.618   0.451  0.00  0.00    +0.004 A 
ATOM      7  C   LIG    1        5.386  -2.044   1.282  0.00  0.00    +0.046 A 
ATOM      8  C   LIG    1        4.152  -1.416   1.245  0.00  0.00    +0.128 A 
BRANCH   3  12
ATOM      9  C   LIG    1        0.153   1.573   0.206  0.00  0.00    +0.000 A 
ATOM     10  C   LIG    1        1.307   2.327   0.321  0.00  0.00    +0.001 A 
ATOM     11  C   LIG    1        2.538   1.705   0.370  0.00  0.00    +0.008 A 
ATOM     12  C   LIG    1        2.617   0.315   0.304  0.00  0.00    -0.014 A 
ATOM     13  C   LIG    1        1.451  -0.439   0.189  0.00  0.00    +0.008 A 
ATOM     14  C   LIG    1        0.225   0.193   0.140  0.00  0.00    +0.001 A 
ENDBRANCH   3  12
ENDBRANCH   2   8
ENDBRANCH   1   2
BRANCH   1  15
ATOM     15  C   LIG    1        2.205  -3.240   3.785  0.00  0.00    +0.163 C 
BRANCH  15  16
ATOM     16  O   LIG    1        1.904  -2.132   4.636  0.00  0.00    -0.388 OA
ATOM     17  H   LIG    1        2.614  -1.905   5.252  0.00  0.00    +0.210 HD
ENDBRANCH  15  16
BRANCH  15  18
ATOM     18  C   LIG    1        2.477  -4.480   4.639  0.00  0.00    +0.158 C 
BRANCH  18  19
ATOM     19  C   LIG    1        1.219  -4.870   5.372  0.00  0.00    +0.241 C 
ATOM     20  N   LIG    1        1.031  -4.476   6.589  0.00  0.00    -0.292 N 
ATOM     21  H   LIG    1        1.657  -3.860   7.002  0.00  0.00    +0.301 HD
ATOM     22  H   LIG    1        0.263  -4.794   7.089  0.00  0.00    +0.301 HD
BRANCH  19  23
ATOM     23  N   LIG    1        0.275  -5.644   4.749  0.00  0.00    -0.228 N 
ATOM     24  C   LIG    1       -1.012  -5.923   5.400  0.00  0.00    +0.225 C 
ATOM     25  C   LIG    1       -2.143  -5.530   4.445  0.00  0.00    +0.044 C 
ATOM     26  C   LIG    1       -1.947  -6.246   3.106  0.00  0.00    +0.007 C 
ATOM     27  C   LIG    1       -0.618  -5.813   2.484  0.00  0.00    +0.044 C 
ATOM     28  C   LIG    1        0.529  -6.205   3.415  0.00  0.00    +0.225 C 
ENDBRANCH  19  23
ENDBRANCH  18  19
ENDBRANCH  15  18
ENDBRANCH   1  15
TORSDOF 8
