REMARK  Name = ZINC03614841
REMARK                            x       y       z     vdW  Elec       q    Type
REMARK                         _______ _______ _______ _____ _____    ______ ____
ROOT
ATOM      1  C   LIG    1        5.497  -0.972  -3.885  0.00  0.00    +0.001 A 
ATOM      2  C   LIG    1        4.282  -1.618  -3.741  0.00  0.00    +0.001 A 
ATOM      3  C   LIG    1        3.617  -1.591  -2.527  0.00  0.00    +0.011 A 
ATOM      4  C   LIG    1        4.168  -0.920  -1.457  0.00  0.00    +0.045 A 
ATOM      5  C   LIG    1        5.390  -0.267  -1.593  0.00  0.00    +0.071 A 
ATOM      6  C   LIG    1        5.744   0.368  -0.293  0.00  0.00    +0.276 C 
ATOM      7  N   LIG    1        6.718   1.091   0.202  0.00  0.00    -0.271 N 
ATOM      8  H   LIG    1        7.550   1.392  -0.319  0.00  0.00    +0.304 HD
ATOM      9  C   LIG    1        6.447   1.407   1.612  0.00  0.00    +0.277 C 
ATOM     10  C   LIG    1        5.094   0.730   1.901  0.00  0.00    +0.274 C 
ATOM     11  N   LIG    1        4.750   0.104   0.614  0.00  0.00    -0.183 N 
ATOM     12  C   LIG    1        3.712  -0.706  -0.037  0.00  0.00    +0.256 C 
ATOM     13  C   LIG    1        6.056  -0.297  -2.819  0.00  0.00    +0.016 A 
ENDROOT
BRANCH  12  14
ATOM     14  C   LIG    1        2.397   0.029  -0.021  0.00  0.00    +0.032 A 
ATOM     15  C   LIG    1        2.378   1.412  -0.013  0.00  0.00    +0.012 A 
ATOM     16  C   LIG    1        1.172   2.087   0.002  0.00  0.00    +0.022 A 
ATOM     17  C   LIG    1       -0.017   1.380   0.010  0.00  0.00    +0.059 A 
ATOM     18 CL   LIG    1       -1.532   2.228   0.021  0.00  0.00    -0.082 Cl
ATOM     19  C   LIG    1        0.002  -0.004   0.002  0.00  0.00    +0.060 A 
ATOM     20 CL   LIG    1       -1.489  -0.893   0.012  0.00  0.00    -0.082 Cl
ATOM     21  C   LIG    1        1.210  -0.679  -0.013  0.00  0.00    +0.032 A 
ENDBRANCH  12  14
BRANCH  12  22
ATOM     22  O   LIG    1        3.579  -1.963   0.630  0.00  0.00    -0.346 OA
ATOM     23  H   LIG    1        2.916  -2.548   0.238  0.00  0.00    +0.215 HD
ENDBRANCH  12  22
TORSDOF 2
