REMARK  Name = ZINC03268279
REMARK                            x       y       z     vdW  Elec       q    Type
REMARK                         _______ _______ _______ _____ _____    ______ ____
ROOT
ATOM      1  C   LIG    1        2.394   0.022  -0.029  0.00  0.00    +0.001 A 
ATOM      2  C   LIG    1        1.203  -0.682  -0.017  0.00  0.00    +0.004 A 
ATOM      3  C   LIG    1        0.002  -0.004   0.002  0.00  0.00    +0.046 A 
ATOM      4  C   LIG    1       -0.017   1.387   0.010  0.00  0.00    +0.126 A 
ATOM      5  C   LIG    1        1.177   2.090   0.002  0.00  0.00    +0.027 A 
ATOM      6  C   LIG    1        1.193   3.592   0.023  0.00  0.00    +0.144 C 
ATOM      7  C   LIG    1        2.263   4.120  -0.905  0.00  0.00    +0.249 C 
ATOM      8  N   LIG    1        3.114   4.811  -0.118  0.00  0.00    -0.238 N 
ATOM      9  H   LIG    1        3.906   5.267  -0.441  0.00  0.00    +0.159 HD
ATOM     10  C   LIG    1        2.729   4.787   1.164  0.00  0.00    +0.307 C 
ATOM     11  O   LIG    1        3.335   5.338   2.062  0.00  0.00    -0.252 OA
ATOM     12  O   LIG    1        2.340   3.958  -2.104  0.00  0.00    -0.273 OA
ATOM     13  C   LIG    1       -0.171   4.154  -0.365  0.00  0.00    +0.081 C 
ATOM     14  C   LIG    1       -1.249   3.392   0.420  0.00  0.00    +0.232 C 
ATOM     15  N   LIG    1        1.595   4.085   1.347  0.00  0.00    -0.281 N 
ATOM     16  H   LIG    1        1.134   3.934   2.187  0.00  0.00    +0.152 HD
ATOM     17  O   LIG    1       -1.217   2.022   0.018  0.00  0.00    -0.492 OA
ATOM     18  C   LIG    1        2.379   1.403  -0.020  0.00  0.00    +0.010 A 
ENDROOT
TORSDOF 0
