REMARK  Name = ZINC03336595
REMARK                            x       y       z     vdW  Elec       q    Type
REMARK                         _______ _______ _______ _____ _____    ______ ____
ROOT
ATOM      1  C   LIG    1       -2.306  -0.006   0.024  0.00  0.00    +0.162 A 
ATOM      2  N   LIG    1       -1.163  -0.665   0.009  0.00  0.00    -0.227 NA
ATOM      3  C   LIG    1        0.002  -0.004   0.002  0.00  0.00    +0.077 A 
ATOM      4  C   LIG    1        1.234  -0.673  -0.013  0.00  0.00    +0.028 A 
ATOM      5  C   LIG    1        2.391   0.047  -0.019  0.00  0.00    +0.002 A 
ATOM      6  C   LIG    1        2.370   1.439  -0.012  0.00  0.00    +0.001 A 
ATOM      7  C   LIG    1        1.189   2.122   0.002  0.00  0.00    +0.013 A 
ATOM      8  C   LIG    1       -0.017   1.413   0.010  0.00  0.00    +0.040 A 
ATOM      9  C   LIG    1       -1.274   2.068   0.031  0.00  0.00    +0.131 A 
ATOM     10  N   LIG    1       -2.370   1.324   0.032  0.00  0.00    -0.212 NA
ENDROOT
BRANCH   1  14
ATOM     11  C   LIG    1       -5.936  -2.219   0.047  0.00  0.00    +0.000 A 
ATOM     12  C   LIG    1       -4.723  -2.885   0.032  0.00  0.00    +0.001 A 
ATOM     13  C   LIG    1       -3.542  -2.171   0.024  0.00  0.00    +0.011 A 
ATOM     14  C   LIG    1       -3.572  -0.778   0.032  0.00  0.00    +0.019 A 
ATOM     15  C   LIG    1       -4.797  -0.113   0.053  0.00  0.00    +0.011 A 
ATOM     16  C   LIG    1       -5.972  -0.836   0.054  0.00  0.00    +0.001 A 
ENDBRANCH   1  14
BRANCH   9  17
ATOM     17  N   LIG    1       -1.353   3.444   0.040  0.00  0.00    -0.324 N 
ATOM     18  H   LIG    1       -0.543   3.977   0.031  0.00  0.00    +0.148 HD
BRANCH  17  19
ATOM     19  C   LIG    1       -2.662   4.102   0.062  0.00  0.00    +0.138 C 
BRANCH  19  20
ATOM     20  C   LIG    1       -2.473   5.597   0.067  0.00  0.00    -0.029 A 
ATOM     21  C   LIG    1       -2.403   6.289  -1.128  0.00  0.00    +0.005 A 
ATOM     22  C   LIG    1       -2.230   7.661  -1.124  0.00  0.00    +0.002 A 
ATOM     23  C   LIG    1       -2.126   8.341   0.075  0.00  0.00    +0.020 A 
ATOM     24  C   LIG    1       -2.196   7.649   1.271  0.00  0.00    +0.041 A 
ATOM     25 CL   LIG    1       -2.066   8.503   2.777  0.00  0.00    -0.084 Cl
ATOM     26  C   LIG    1       -2.374   6.277   1.266  0.00  0.00    +0.025 A 
ENDBRANCH  19  20
ENDBRANCH  17  19
ENDBRANCH   9  17
TORSDOF 4
