REMARK  Name = ZINC02528524
REMARK                            x       y       z     vdW  Elec       q    Type
REMARK                         _______ _______ _______ _____ _____    ______ ____
ROOT
ATOM      1  C   LIG    1       -0.016   1.297   0.009  0.00  0.00    +0.197 A 
ATOM      2  N   LIG    1        1.256   1.782  -0.000  0.00  0.00    -0.343 N 
ATOM      3  C   LIG    1        2.109   0.696  -0.014  0.00  0.00    +0.082 A 
ATOM      4  C   LIG    1        1.287  -0.443  -0.013  0.00  0.00    +0.105 A 
ATOM      5  C   LIG    1        1.871  -1.714  -0.025  0.00  0.00    +0.060 A 
ATOM      6 BR   LIG    1        0.780  -3.259  -0.022  0.00  0.00    -0.047 Br
ATOM      7  C   LIG    1        3.243  -1.837  -0.039  0.00  0.00    +0.049 A 
ATOM      8 BR   LIG    1        4.031  -3.555  -0.056  0.00  0.00    -0.048 Br
ATOM      9  C   LIG    1        4.051  -0.707  -0.040  0.00  0.00    +0.049 A 
ATOM     10 BR   LIG    1        5.933  -0.899  -0.058  0.00  0.00    -0.048 Br
ATOM     11  C   LIG    1        3.491   0.554  -0.028  0.00  0.00    +0.058 A 
ATOM     12 BR   LIG    1        4.601   2.085  -0.030  0.00  0.00    -0.047 Br
ATOM     13  H   LIG    1        1.514   2.716   0.003  0.00  0.00    +0.167 HD
ATOM     14  N   LIG    1        0.002  -0.004   0.002  0.00  0.00    -0.235 NA
ENDROOT
TORSDOF 0
