REMARK  Name = ZINC03262621
REMARK                            x       y       z     vdW  Elec       q    Type
REMARK                         _______ _______ _______ _____ _____    ______ ____
ROOT
ATOM      1  C   LIG    1       -9.659  -3.163   0.496  0.00  0.00    +0.001 A 
ATOM      2  C   LIG    1      -10.311  -2.186   1.230  0.00  0.00    +0.002 A 
ATOM      3  C   LIG    1       -9.634  -1.064   1.664  0.00  0.00    +0.024 A 
ATOM      4  C   LIG    1       -8.285  -0.904   1.367  0.00  0.00    +0.042 A 
ATOM      5  C   LIG    1       -7.630  -1.895   0.624  0.00  0.00    +0.008 A 
ATOM      6  C   LIG    1       -6.227  -1.444   0.475  0.00  0.00    +0.046 C 
ATOM      7  C   LIG    1       -6.162  -0.157   1.185  0.00  0.00    +0.249 C 
ATOM      8  O   LIG    1       -5.174   0.546   1.304  0.00  0.00    -0.270 OA
ATOM      9  C   LIG    1       -5.213  -2.087  -0.175  0.00  0.00    +0.021 C 
ATOM     10  N   LIG    1       -7.384   0.108   1.676  0.00  0.00    -0.281 N 
ATOM     11  H   LIG    1       -7.608   0.903   2.185  0.00  0.00    +0.155 HD
ATOM     12  C   LIG    1       -8.320  -3.022   0.192  0.00  0.00    +0.010 A 
ENDROOT
BRANCH   9  13
ATOM     13  C   LIG    1       -3.925  -1.416  -0.369  0.00  0.00    -0.024 A 
ATOM     14  C   LIG    1       -2.729  -2.136  -0.235  0.00  0.00    +0.010 A 
ATOM     15  C   LIG    1       -1.532  -1.505  -0.417  0.00  0.00    +0.024 A 
ATOM     16  C   LIG    1       -1.497  -0.149  -0.734  0.00  0.00    +0.030 A 
ATOM     17  C   LIG    1       -2.682   0.572  -0.863  0.00  0.00    +0.024 A 
ATOM     18  C   LIG    1       -3.885  -0.051  -0.689  0.00  0.00    +0.010 A 
BRANCH  16  19
ATOM     19  N   LIG    1       -0.275   0.488  -0.917  0.00  0.00    -0.326 N 
ATOM     20  C   LIG    1       -0.466   1.909  -1.243  0.00  0.00    +0.133 C 
ATOM     21  C   LIG    1        0.899   2.557  -1.494  0.00  0.00    +0.178 C 
ATOM     22  O   LIG    1        1.728   2.372  -0.343  0.00  0.00    -0.377 OA
ATOM     23  C   LIG    1        1.935   1.000   0.003  0.00  0.00    +0.178 C 
ATOM     24  C   LIG    1        0.581   0.337   0.269  0.00  0.00    +0.133 C 
ENDBRANCH  16  19
ENDBRANCH   9  13
TORSDOF 2
