REMARK  Name = ZINC02565858
REMARK                            x       y       z     vdW  Elec       q    Type
REMARK                         _______ _______ _______ _____ _____    ______ ____
ROOT
ATOM      1  C   LIG    1       -0.016   1.357   0.009  0.00  0.00    +0.001 A 
ATOM      2  C   LIG    1        1.170   2.090   0.002  0.00  0.00    +0.002 A 
ATOM      3  C   LIG    1        2.379   1.468  -0.013  0.00  0.00    +0.028 A 
ATOM      4  C   LIG    1        2.441   0.061  -0.021  0.00  0.00    +0.072 A 
ATOM      5  C   LIG    1        1.232  -0.682  -0.013  0.00  0.00    +0.000 A 
ATOM      6  C   LIG    1        1.291  -2.088  -0.021  0.00  0.00    +0.012 A 
ATOM      7  C   LIG    1        2.520  -2.683  -0.036  0.00  0.00    +0.036 A 
ATOM      8  C   LIG    1        3.678  -1.891  -0.043  0.00  0.00    +0.150 A 
ATOM      9  N   LIG    1        3.613  -0.574  -0.035  0.00  0.00    -0.239 NA
ATOM     10  C   LIG    1        0.002  -0.004   0.002  0.00  0.00    +0.010 A 
ENDROOT
BRANCH   8  11
ATOM     11  C   LIG    1        5.006  -2.551  -0.059  0.00  0.00    +0.289 C 
ATOM     12  N   LIG    1        5.150  -3.864  -0.072  0.00  0.00    -0.270 N 
ATOM     13  H   LIG    1        4.425  -4.508  -0.073  0.00  0.00    +0.304 HD
ATOM     14  C   LIG    1        6.583  -4.196  -0.086  0.00  0.00    +0.277 C 
ATOM     15  C   LIG    1        7.269  -2.814  -0.078  0.00  0.00    +0.268 C 
ATOM     16  N   LIG    1        6.139  -1.872  -0.066  0.00  0.00    -0.232 N 
ATOM     17  H   LIG    1        6.214  -0.905  -0.062  0.00  0.00    +0.291 HD
ENDBRANCH   8  11
TORSDOF 1
