REMARK  Name = ZINC03150673
REMARK                            x       y       z     vdW  Elec       q    Type
REMARK                         _______ _______ _______ _____ _____    ______ ____
ROOT
ATOM      1  C   LIG    1        0.707  -0.490  -1.238  0.00  0.00    -0.047 A 
ATOM      2  C   LIG    1       -0.009  -0.719  -2.398  0.00  0.00    +0.005 A 
ATOM      3  C   LIG    1        0.632  -1.163  -3.536  0.00  0.00    +0.024 A 
ATOM      4  C   LIG    1        2.006  -1.384  -3.526  0.00  0.00    +0.040 A 
ATOM      5  C   LIG    1        2.719  -1.151  -2.351  0.00  0.00    +0.018 A 
ATOM      6  C   LIG    1        4.141  -1.483  -2.675  0.00  0.00    +0.203 C 
ATOM      7  N   LIG    1        5.077  -0.399  -2.382  0.00  0.00    -0.239 N 
ATOM      8  H   LIG    1        5.017   0.472  -2.805  0.00  0.00    +0.170 HD
ATOM      9  N   LIG    1        6.056  -0.712  -1.456  0.00  0.00    -0.178 NA
ATOM     10  C   LIG    1        6.144  -1.878  -0.883  0.00  0.00    +0.124 C 
ATOM     11  C   LIG    1        4.146  -1.908  -4.111  0.00  0.00    +0.257 C 
ATOM     12  O   LIG    1        5.108  -2.257  -4.762  0.00  0.00    -0.272 OA
ATOM     13  S   LIG    1        4.785  -2.804  -1.585  0.00  0.00    -0.063 S 
ATOM     14  N   LIG    1        2.868  -1.823  -4.535  0.00  0.00    -0.282 N 
ATOM     15  H   LIG    1        2.580  -2.043  -5.435  0.00  0.00    +0.155 HD
ATOM     16  C   LIG    1        2.074  -0.703  -1.220  0.00  0.00    +0.012 A 
ENDROOT
BRANCH  10  17
ATOM     17  C   LIG    1        7.137  -2.331   0.115  0.00  0.00    +0.008 A 
ATOM     18  C   LIG    1        7.081  -3.631   0.619  0.00  0.00    +0.010 A 
ATOM     19  C   LIG    1        8.010  -4.047   1.550  0.00  0.00    +0.001 A 
ATOM     20  C   LIG    1        8.996  -3.179   1.983  0.00  0.00    +0.000 A 
ATOM     21  C   LIG    1        9.058  -1.888   1.487  0.00  0.00    +0.001 A 
ATOM     22  C   LIG    1        8.138  -1.461   0.552  0.00  0.00    +0.010 A 
ENDBRANCH  10  17
BRANCH   1  24
ATOM     23  C   LIG    1       -0.019   1.526   0.010  0.00  0.00    +0.009 C 
ATOM     24  C   LIG    1        0.002  -0.004   0.002  0.00  0.00    +0.032 C 
ENDBRANCH   1  24
TORSDOF 2
