REMARK  Name = ZINC02924604
REMARK                            x       y       z     vdW  Elec       q    Type
REMARK                         _______ _______ _______ _____ _____    ______ ____
ROOT
ATOM      1  C   LIG    1        6.833   4.428  -4.836  0.00  0.00    +0.001 A 
ATOM      2  C   LIG    1        7.466   4.727  -3.633  0.00  0.00    +0.001 A 
ATOM      3  C   LIG    1        6.803   4.620  -2.447  0.00  0.00    +0.012 A 
ATOM      4  C   LIG    1        5.462   4.205  -2.436  0.00  0.00    +0.025 A 
ATOM      5  C   LIG    1        4.817   3.901  -3.659  0.00  0.00    -0.014 A 
ATOM      6  C   LIG    1        3.470   3.482  -3.658  0.00  0.00    +0.009 A 
ATOM      7  C   LIG    1        2.790   3.368  -2.493  0.00  0.00    +0.012 A 
ATOM      8  C   LIG    1        3.414   3.660  -1.263  0.00  0.00    +0.022 A 
ATOM      9  C   LIG    1        2.674   3.541  -0.004  0.00  0.00    -0.019 A 
ATOM     10  C   LIG    1        3.321   3.839   1.153  0.00  0.00    +0.096 A 
ATOM     11  C   LIG    1        4.668   4.254   1.113  0.00  0.00    +0.338 A 
ATOM     12  O   LIG    1        5.240   4.519   2.156  0.00  0.00    -0.245 OA
ATOM     13  O   LIG    1        5.333   4.365  -0.046  0.00  0.00    -0.422 OA
ATOM     14  C   LIG    1        4.746   4.084  -1.226  0.00  0.00    +0.147 A 
ATOM     15  C   LIG    1        5.533   4.022  -4.861  0.00  0.00    +0.008 A 
ENDROOT
BRANCH   9  16
ATOM     16  C   LIG    1        1.235   3.094   0.007  0.00  0.00    +0.156 C 
BRANCH  16  17
ATOM     17  C   LIG    1        1.177   1.588  -0.001  0.00  0.00    +0.309 C 
ATOM     18  O   LIG    1        2.199   0.944  -0.014  0.00  0.00    -0.251 OA
BRANCH  17  19
ATOM     19  O   LIG    1       -0.011   0.963   0.007  0.00  0.00    -0.480 OA
ATOM     20  H   LIG    1       -0.804   1.462   0.018  0.00  0.00    +0.295 HD
ENDBRANCH  17  19
ENDBRANCH  16  17
ENDBRANCH   9  16
TORSDOF 3
