REMARK  Name = ZINC03067703
REMARK                            x       y       z     vdW  Elec       q    Type
REMARK                         _______ _______ _______ _____ _____    ______ ____
ROOT
ATOM      1  C   LIG    1       -0.976   5.949  -4.072  0.00  0.00    +0.166 C 
ENDROOT
BRANCH   1   3
ATOM      2  C   LIG    1        0.034   6.051  -6.287  0.00  0.00    +0.401 C 
ATOM      3  N   LIG    1       -1.031   5.742  -5.521  0.00  0.00    -0.269 N 
ATOM      4  H   LIG    1       -1.834   5.381  -5.929  0.00  0.00    +0.153 HD
ATOM      5  O   LIG    1        1.040   6.503  -5.775  0.00  0.00    -0.226 OA
BRANCH   2   6
ATOM      6  O   LIG    1       -0.017   5.861  -7.619  0.00  0.00    -0.445 OA
BRANCH   6   8
ATOM      7  C   LIG    1        2.357   5.388  -7.892  0.00  0.00    +0.055 C 
ATOM      8  C   LIG    1        1.167   6.216  -8.381  0.00  0.00    +0.107 C 
ATOM      9  C   LIG    1        1.468   7.704  -8.190  0.00  0.00    +0.055 C 
ATOM     10  C   LIG    1        0.923   5.932  -9.864  0.00  0.00    +0.055 C 
ENDBRANCH   6   8
ENDBRANCH   2   6
ENDBRANCH   1   3
BRANCH   1  11
ATOM     11  C   LIG    1       -1.946   5.017  -3.393  0.00  0.00    +0.234 C 
ATOM     12  N   LIG    1       -2.068   5.031  -2.051  0.00  0.00    -0.302 N 
ATOM     13  H   LIG    1       -1.531   5.641  -1.522  0.00  0.00    +0.150 HD
ATOM     14  O   LIG    1       -2.618   4.254  -4.055  0.00  0.00    -0.274 OA
BRANCH  12  15
ATOM     15  C   LIG    1       -3.011   4.124  -1.392  0.00  0.00    +0.163 C 
BRANCH  15  16
ATOM     16  C   LIG    1       -4.382   4.749  -1.378  0.00  0.00    +0.231 C 
ATOM     17  N   LIG    1       -5.417   4.092  -0.818  0.00  0.00    -0.328 N 
ATOM     18  H   LIG    1       -6.300   4.494  -0.809  0.00  0.00    +0.145 HD
ATOM     19  H   LIG    1       -5.279   3.216  -0.424  0.00  0.00    +0.145 HD
ATOM     20  O   LIG    1       -4.555   5.844  -1.870  0.00  0.00    -0.274 OA
ENDBRANCH  15  16
BRANCH  15  21
ATOM     21  C   LIG    1       -2.553   3.869   0.045  0.00  0.00    +0.067 C 
BRANCH  21  22
ATOM     22  C   LIG    1       -1.238   3.133   0.030  0.00  0.00    -0.045 A 
ATOM     23  C   LIG    1       -1.219   1.751   0.017  0.00  0.00    +0.004 A 
ATOM     24  C   LIG    1       -0.013   1.076   0.008  0.00  0.00    +0.000 A 
ATOM     25  C   LIG    1        1.175   1.783   0.000  0.00  0.00    +0.000 A 
ATOM     26  C   LIG    1        1.156   3.165   0.008  0.00  0.00    +0.000 A 
ATOM     27  C   LIG    1       -0.050   3.840   0.022  0.00  0.00    +0.004 A 
ENDBRANCH  21  22
ENDBRANCH  15  21
ENDBRANCH  12  15
ENDBRANCH   1  11
BRANCH   1  28
ATOM     28  C   LIG    1       -1.350   7.397  -3.749  0.00  0.00    +0.067 C 
BRANCH  28  29
ATOM     29  C   LIG    1       -0.311   8.325  -4.324  0.00  0.00    -0.045 A 
ATOM     30  C   LIG    1        0.786   8.689  -3.567  0.00  0.00    +0.004 A 
ATOM     31  C   LIG    1        1.742   9.536  -4.096  0.00  0.00    +0.000 A 
ATOM     32  C   LIG    1        1.595  10.027  -5.380  0.00  0.00    +0.000 A 
ATOM     33  C   LIG    1        0.496   9.667  -6.136  0.00  0.00    +0.000 A 
ATOM     34  C   LIG    1       -0.458   8.816  -5.608  0.00  0.00    +0.004 A 
ENDBRANCH  28  29
ENDBRANCH   1  28
TORSDOF 10
