REMARK  Name = ZINC03532816
REMARK                            x       y       z     vdW  Elec       q    Type
REMARK                         _______ _______ _______ _____ _____    ______ ____
ROOT
ATOM      1  C   LIG    1        5.955  -1.626   3.026  0.00  0.00    +0.165 C 
ATOM      2  C   LIG    1        4.684  -2.203   3.657  0.00  0.00    +0.030 C 
ATOM      3  C   LIG    1        5.027  -2.816   5.016  0.00  0.00    +0.003 C 
ATOM      4  C   LIG    1        6.031  -3.956   4.825  0.00  0.00    +0.017 C 
ATOM      5  C   LIG    1        7.318  -3.399   4.207  0.00  0.00    +0.110 C 
ATOM      6  N   LIG    1        6.979  -2.679   2.972  0.00  0.00    -0.165 NA
ENDROOT
BRANCH   1   9
ATOM      7  N   LIG    1        5.992   0.108   1.263  0.00  0.00    -0.310 N 
ATOM      8  H   LIG    1        6.430   0.698   1.896  0.00  0.00    +0.149 HD
ATOM      9  C   LIG    1        5.653  -1.143   1.631  0.00  0.00    +0.232 C 
ATOM     10  O   LIG    1        5.104  -1.881   0.840  0.00  0.00    -0.274 OA
BRANCH   7  11
ATOM     11  C   LIG    1        5.697   0.578  -0.093  0.00  0.00    +0.139 C 
BRANCH  11  15
ATOM     12  C   LIG    1        7.046   4.607  -0.532  0.00  0.00    +0.000 A 
ATOM     13  C   LIG    1        7.896   3.558  -0.829  0.00  0.00    +0.000 A 
ATOM     14  C   LIG    1        7.459   2.254  -0.687  0.00  0.00    +0.005 A 
ATOM     15  C   LIG    1        6.173   1.999  -0.247  0.00  0.00    -0.030 A 
ATOM     16  C   LIG    1        5.324   3.049   0.051  0.00  0.00    +0.005 A 
ATOM     17  C   LIG    1        5.761   4.353  -0.093  0.00  0.00    +0.000 A 
ENDBRANCH  11  15
ENDBRANCH   7  11
ENDBRANCH   1   9
BRANCH   6  18
ATOM     18  S   LIG    1        7.734  -3.049   1.545  0.00  0.00    +0.062 S 
ATOM     19  O   LIG    1        9.056  -3.448   1.877  0.00  0.00    -0.153 OA
ATOM     20  O   LIG    1        7.463  -1.977   0.652  0.00  0.00    -0.153 OA
BRANCH  18  21
ATOM     21  C   LIG    1        6.929  -4.470   0.884  0.00  0.00    +0.106 A 
ATOM     22  C   LIG    1        7.377  -5.735   1.218  0.00  0.00    +0.028 A 
ATOM     23  C   LIG    1        6.746  -6.851   0.699  0.00  0.00    +0.002 A 
ATOM     24  C   LIG    1        5.667  -6.701  -0.153  0.00  0.00    +0.000 A 
ATOM     25  C   LIG    1        5.220  -5.436  -0.486  0.00  0.00    +0.002 A 
ATOM     26  C   LIG    1        5.848  -4.321   0.036  0.00  0.00    +0.028 A 
ENDBRANCH  18  21
ENDBRANCH   6  18
TORSDOF 5
