REMARK  Name = ZINC03630922
REMARK                            x       y       z     vdW  Elec       q    Type
REMARK                         _______ _______ _______ _____ _____    ______ ____
ROOT
ATOM      1  C   LIG    1        3.738   2.693  -0.012  0.00  0.00    -0.006 A 
ATOM      2  C   LIG    1        3.119   2.396   1.188  0.00  0.00    +0.011 A 
ATOM      3  C   LIG    1        1.862   1.822   1.196  0.00  0.00    +0.046 A 
ATOM      4  C   LIG    1        1.223   1.532  -0.001  0.00  0.00    +0.120 A 
ATOM      5  C   LIG    1        1.841   1.830  -1.206  0.00  0.00    +0.091 A 
ATOM      6  C   LIG    1        3.100   2.411  -1.212  0.00  0.00    +0.123 A 
ENDROOT
BRANCH   4   7
ATOM      7  O   LIG    1       -0.011   0.963   0.007  0.00  0.00    -0.507 OA
ATOM      8  H   LIG    1        0.002  -0.004   0.002  0.00  0.00    +0.292 HD
ENDBRANCH   4   7
BRANCH   6   9
ATOM      9  O   LIG    1        3.709   2.703  -2.391  0.00  0.00    -0.506 OA
ATOM     10  H   LIG    1        3.515   3.589  -2.724  0.00  0.00    +0.292 HD
ENDBRANCH   6   9
BRANCH   1  11
ATOM     11  C   LIG    1        5.106   3.325  -0.017  0.00  0.00    +0.039 C 
BRANCH  11  12
ATOM     12  C   LIG    1        4.966   4.844  -0.132  0.00  0.00    +0.004 C 
BRANCH  12  14
ATOM     13  C   LIG    1        6.215   7.005  -0.252  0.00  0.00    +0.004 C 
ATOM     14  C   LIG    1        6.355   5.485  -0.138  0.00  0.00    -0.003 C 
ENDBRANCH  12  14
ENDBRANCH  11  12
ENDBRANCH   1  11
TORSDOF 5
