REMARK  Name = ZINC03120110
REMARK                            x       y       z     vdW  Elec       q    Type
REMARK                         _______ _______ _______ _____ _____    ______ ____
ROOT
ATOM      1  C   LIG    1        2.403  -2.718   3.977  0.00  0.00    +0.060 A 
ATOM      2  C   LIG    1        3.100  -2.641   5.174  0.00  0.00    +0.021 A 
ATOM      3  C   LIG    1        3.459  -3.845   5.734  0.00  0.00    +0.037 A 
ATOM      4  C   LIG    1        3.119  -4.994   5.101  0.00  0.00    +0.143 A 
ATOM      5  S   LIG    1        2.296  -4.480   3.729  0.00  0.00    -0.065 S 
ENDROOT
BRANCH   1   8
ATOM      6  C   LIG    1        0.877  -0.427   1.472  0.00  0.00    +0.157 A 
ATOM      7  C   LIG    1        1.184  -1.782   1.942  0.00  0.00    +0.132 A 
ATOM      8  C   LIG    1        1.885  -1.635   3.139  0.00  0.00    +0.192 A 
ATOM      9  O   LIG    1        2.000  -0.318   3.383  0.00  0.00    -0.352 OA
ATOM     10  N   LIG    1        1.378   0.410   2.344  0.00  0.00    -0.070 NA
BRANCH   6  12
ATOM     11  C   LIG    1       -0.022   1.810   0.012  0.00  0.00    +0.091 C 
ATOM     12  S   LIG    1        0.002  -0.004   0.002  0.00  0.00    -0.105 S 
ENDBRANCH   6  12
BRANCH   7  13
ATOM     13  C   LIG    1        0.833  -3.013   1.300  0.00  0.00    +0.106 C 
ATOM     14  N   LIG    1        0.554  -3.989   0.791  0.00  0.00    -0.191 NA
ENDBRANCH   7  13
ENDBRANCH   1   8
BRANCH   4  15
ATOM     15  S   LIG    1        3.456  -6.648   5.604  0.00  0.00    +0.065 S 
ATOM     16  O   LIG    1        4.591  -6.589   6.457  0.00  0.00    -0.153 OA
ATOM     17  O   LIG    1        3.429  -7.444   4.427  0.00  0.00    -0.153 OA
BRANCH  15  18
ATOM     18  N   LIG    1        2.184  -7.144   6.541  0.00  0.00    -0.185 NA
ATOM     19  H   LIG    1        2.323  -7.344   7.480  0.00  0.00    +0.148 HD
BRANCH  18  20
ATOM     20  C   LIG    1        0.850  -7.280   5.952  0.00  0.00    +0.141 C 
BRANCH  20  21
ATOM     21  C   LIG    1       -0.030  -8.078   6.880  0.00  0.00    -0.032 A 
ATOM     22  C   LIG    1       -0.086  -9.454   6.767  0.00  0.00    +0.005 A 
ATOM     23  C   LIG    1       -0.893 -10.186   7.618  0.00  0.00    +0.000 A 
ATOM     24  C   LIG    1       -1.643  -9.541   8.583  0.00  0.00    +0.000 A 
ATOM     25  C   LIG    1       -1.587  -8.164   8.697  0.00  0.00    +0.000 A 
ATOM     26  C   LIG    1       -0.776  -7.433   7.849  0.00  0.00    +0.005 A 
ENDBRANCH  20  21
ENDBRANCH  18  20
ENDBRANCH  15  18
ENDBRANCH   4  15
TORSDOF 7
