REMARK  Name = ZINC02783292
REMARK                            x       y       z     vdW  Elec       q    Type
REMARK                         _______ _______ _______ _____ _____    ______ ____
ROOT
ATOM      1  N   LIG    1       -1.080   2.047   0.017  0.00  0.00    -0.219 N 
ATOM      2  C   LIG    1       -0.915   3.359   0.036  0.00  0.00    +0.261 C 
ATOM      3  C   LIG    1        0.420   3.866   0.025  0.00  0.00    +0.083 C 
ATOM      4  S   LIG    1        1.362   2.347  -0.004  0.00  0.00    -0.026 S 
ATOM      5  C   LIG    1        0.858   5.159   0.035  0.00  0.00    +0.066 C 
ATOM      6  O   LIG    1       -1.872   4.112   0.055  0.00  0.00    -0.269 OA
ATOM      7  C   LIG    1       -0.018   1.212   0.000  0.00  0.00    +0.286 C 
ATOM      8  O   LIG    1       -0.005  -0.004  -0.014  0.00  0.00    -0.262 OA
ENDROOT
BRANCH   5   9
ATOM      9  C   LIG    1        2.242   5.436   0.021  0.00  0.00    +0.130 A 
ATOM     10  C   LIG    1        2.820   6.693   0.023  0.00  0.00    +0.050 A 
ATOM     11  C   LIG    1        4.203   6.500   0.010  0.00  0.00    +0.050 A 
ATOM     12  C   LIG    1        4.422   5.151  -0.009  0.00  0.00    +0.136 A 
ATOM     13  O   LIG    1        3.233   4.520  -0.002  0.00  0.00    -0.455 OA
BRANCH  12  14
ATOM     14  C   LIG    1        5.743   4.494  -0.032  0.00  0.00    +0.021 A 
ATOM     15  C   LIG    1        6.704   4.889  -0.963  0.00  0.00    +0.026 A 
ATOM     16  C   LIG    1        7.949   4.264  -0.978  0.00  0.00    +0.060 A 
ATOM     17  C   LIG    1        8.227   3.247  -0.060  0.00  0.00    +0.015 A 
ATOM     18  C   LIG    1        7.272   2.861   0.859  0.00  0.00    +0.005 A 
ATOM     19  C   LIG    1        6.038   3.479   0.883  0.00  0.00    -0.040 A 
ATOM     20  C   LIG    1        5.004   3.055   1.894  0.00  0.00    +0.044 C 
BRANCH  16  21
ATOM     21  C   LIG    1        8.973   4.676  -1.960  0.00  0.00    +0.337 C 
ATOM     22  O   LIG    1        8.729   5.560  -2.757  0.00  0.00    -0.245 OA
BRANCH  21  23
ATOM     23  O   LIG    1       10.176   4.070  -1.973  0.00  0.00    -0.477 OA
ATOM     24  H   LIG    1       10.364   3.388  -1.359  0.00  0.00    +0.295 HD
ENDBRANCH  21  23
ENDBRANCH  16  21
ENDBRANCH  12  14
ENDBRANCH   5   9
BRANCH   1  25
ATOM     25  C   LIG    1       -2.436   1.491   0.019  0.00  0.00    +0.213 C 
BRANCH  25  28
ATOM     26  N   LIG    1       -4.115   0.778   1.689  0.00  0.00    -0.284 N 
ATOM     27  H   LIG    1       -4.811   0.587   0.859  0.00  0.00    +0.155 HD
ATOM     28  C   LIG    1       -2.891   1.284   1.441  0.00  0.00    +0.235 C 
ATOM     29  O   LIG    1       -2.156   1.573   2.361  0.00  0.00    -0.274 OA
BRANCH  26  34
ATOM     30  C   LIG    1       -5.683  -0.369   7.020  0.00  0.00    +0.044 C 
ATOM     31  C   LIG    1       -5.266  -0.064   5.604  0.00  0.00    -0.050 A 
ATOM     32  C   LIG    1       -4.455   1.024   5.342  0.00  0.00    +0.005 A 
ATOM     33  C   LIG    1       -4.071   1.306   4.046  0.00  0.00    +0.023 A 
ATOM     34  C   LIG    1       -4.502   0.495   3.004  0.00  0.00    +0.033 A 
ATOM     35  C   LIG    1       -5.322  -0.594   3.269  0.00  0.00    +0.023 A 
ATOM     36  C   LIG    1       -5.697  -0.873   4.569  0.00  0.00    +0.005 A 
ENDBRANCH  26  34
ENDBRANCH  25  28
ENDBRANCH   1  25
TORSDOF 7
