REMARK  Name = ZINC02577648
REMARK                            x       y       z     vdW  Elec       q    Type
REMARK                         _______ _______ _______ _____ _____    ______ ____
ROOT
ATOM      1  C   LIG    1       -6.127   0.888   0.036  0.00  0.00    +0.042 A 
ATOM      2  C   LIG    1       -7.099  -0.061   0.036  0.00  0.00    +0.059 A 
ATOM      3  C   LIG    1       -6.798  -1.417   0.028  0.00  0.00    +0.046 A 
ATOM      4  C   LIG    1       -5.476  -1.818   0.019  0.00  0.00    +0.138 A 
ATOM      5  C   LIG    1       -4.482  -0.868   0.019  0.00  0.00    +0.071 A 
ATOM      6  S   LIG    1       -2.706  -0.900   0.011  0.00  0.00    -0.059 S 
ATOM      7  C   LIG    1       -2.454   0.870   0.018  0.00  0.00    +0.180 A 
ATOM      8  N   LIG    1       -3.687   1.327   0.032  0.00  0.00    -0.173 N 
ATOM      9  C   LIG    1       -4.757   0.523   0.028  0.00  0.00    +0.098 A 
ENDROOT
BRANCH   7  10
ATOM     10  C   LIG    1       -1.187   1.624   0.017  0.00  0.00    +0.268 C 
ATOM     11  N   LIG    1       -0.011   0.966   0.007  0.00  0.00    -0.324 N 
ATOM     12  H   LIG    1        0.822   1.462   0.002  0.00  0.00    +0.145 HD
ATOM     13  H   LIG    1        0.002  -0.004   0.002  0.00  0.00    +0.145 HD
ATOM     14  O   LIG    1       -1.204   2.840   0.023  0.00  0.00    -0.268 OA
ENDBRANCH   7  10
BRANCH   2  15
ATOM     15  C   LIG    1       -8.543   0.370   0.045  0.00  0.00    +0.418 C 
ATOM     16  F   LIG    1       -8.661   1.594   0.711  0.00  0.00    -0.166 F 
ATOM     17  F   LIG    1       -9.313  -0.595   0.704  0.00  0.00    -0.166 F 
ATOM     18  F   LIG    1       -8.996   0.509  -1.271  0.00  0.00    -0.166 F 
ENDBRANCH   2  15
BRANCH   4  19
ATOM     19  N   LIG    1       -5.133  -3.258   0.010  0.00  0.00    +0.007 N 
ATOM     20  O   LIG    1       -6.017  -4.095   0.010  0.00  0.00    -0.130 OA
BRANCH  19  21
ATOM     21  O   LIG    1       -3.965  -3.606   0.003  0.00  0.00    -0.396 OA
ATOM     22  H   LIG    1       -3.285  -2.962   0.003  0.00  0.00    +0.329 HD
ENDBRANCH  19  21
ENDBRANCH   4  19
BRANCH   8  23
ATOM     23  O   LIG    1       -3.891   2.728   0.048  0.00  0.00    -0.425 OA
ATOM     24  H   LIG    1       -4.761   3.074   0.058  0.00  0.00    +0.326 HD
ENDBRANCH   8  23
TORSDOF 5
