REMARK  Name = ZINC03331412
REMARK                            x       y       z     vdW  Elec       q    Type
REMARK                         _______ _______ _______ _____ _____    ______ ____
ROOT
ATOM      1  N   LIG    1        6.191   0.149  -3.828  0.00  0.00    -0.084 NA
ATOM      2  C   LIG    1        6.878  -0.117  -4.900  0.00  0.00    +0.118 C 
ATOM      3  C   LIG    1        6.403  -0.865  -6.089  0.00  0.00    +0.012 A 
ATOM      4  C   LIG    1        5.184  -1.461  -6.395  0.00  0.00    +0.011 A 
ATOM      5  C   LIG    1        5.017  -2.106  -7.605  0.00  0.00    +0.001 A 
ATOM      6  C   LIG    1        6.058  -2.164  -8.515  0.00  0.00    +0.001 A 
ATOM      7  C   LIG    1        7.274  -1.577  -8.226  0.00  0.00    +0.009 A 
ATOM      8  C   LIG    1        7.460  -0.922  -7.011  0.00  0.00    -0.008 A 
ATOM      9  C   LIG    1        8.630  -0.216  -6.438  0.00  0.00    -0.008 A 
ATOM     10  C   LIG    1        9.910   0.014  -6.934  0.00  0.00    +0.009 A 
ATOM     11  C   LIG    1       10.823   0.729  -6.183  0.00  0.00    +0.001 A 
ATOM     12  C   LIG    1       10.480   1.209  -4.931  0.00  0.00    +0.001 A 
ATOM     13  C   LIG    1        9.215   0.986  -4.422  0.00  0.00    +0.011 A 
ATOM     14  C   LIG    1        8.282   0.275  -5.169  0.00  0.00    +0.012 A 
ENDROOT
BRANCH   1  15
ATOM     15  O   LIG    1        4.852  -0.296  -3.716  0.00  0.00    -0.391 OA
BRANCH  15  16
ATOM     16  C   LIG    1        4.219   0.067  -2.487  0.00  0.00    +0.292 C 
BRANCH  16  17
ATOM     17  C   LIG    1        2.784  -0.463  -2.476  0.00  0.00    +0.138 C 
BRANCH  17  18
ATOM     18  O   LIG    1        2.803  -1.892  -2.484  0.00  0.00    -0.390 OA
ATOM     19  H   LIG    1        3.258  -2.283  -1.725  0.00  0.00    +0.210 HD
ENDBRANCH  17  18
BRANCH  17  20
ATOM     20  C   LIG    1        2.068   0.031  -1.217  0.00  0.00    -0.047 C 
BRANCH  20  21
ATOM     21  N   LIG    1        0.690  -0.478  -1.207  0.00  0.00    +0.384 N 
ATOM     22  H   LIG    1        0.202  -0.144  -2.024  0.00  0.00    -0.085 HD
ATOM     23  H   LIG    1        0.703  -1.487  -1.212  0.00  0.00    -0.085 HD
BRANCH  21  25
ATOM     24  C   LIG    1       -0.019   1.526   0.010  0.00  0.00    -0.011 C 
ATOM     25  C   LIG    1        0.002  -0.004   0.002  0.00  0.00    -0.077 C 
ATOM     26  C   LIG    1       -1.433  -0.534   0.013  0.00  0.00    -0.011 C 
ATOM     27  C   LIG    1        0.742  -0.511   1.242  0.00  0.00    -0.011 C 
ENDBRANCH  21  25
ENDBRANCH  20  21
ENDBRANCH  17  20
ENDBRANCH  16  17
ENDBRANCH  15  16
ENDBRANCH   1  15
TORSDOF 7
