REMARK  Name = ZINC02559937
REMARK                            x       y       z     vdW  Elec       q    Type
REMARK                         _______ _______ _______ _____ _____    ______ ____
ROOT
ATOM      1  C   LIG    1        0.710  -2.008  -1.215  0.00  0.00    +0.038 C 
ENDROOT
BRANCH   1   2
ATOM      2  C   LIG    1        1.416  -2.494  -2.455  0.00  0.00    +0.057 A 
ATOM      3  C   LIG    1        2.466  -3.337  -2.489  0.00  0.00    +0.107 A 
ATOM      4  N   LIG    1        2.790  -3.512  -3.807  0.00  0.00    -0.351 N 
ATOM      5  C   LIG    1        1.927  -2.769  -4.533  0.00  0.00    +0.196 A 
ATOM      6  H   LIG    1        3.506  -4.066  -4.155  0.00  0.00    +0.166 HD
ATOM      7  N   LIG    1        1.104  -2.167  -3.718  0.00  0.00    -0.241 NA
ENDBRANCH   1   2
BRANCH   1   8
ATOM      8  C   LIG    1        0.690  -0.478  -1.207  0.00  0.00    -0.077 C 
BRANCH   8  10
ATOM      9  C   LIG    1       -0.018   1.465   0.010  0.00  0.00    -0.100 C 
ATOM     10  N   LIG    1        0.002  -0.004   0.002  0.00  0.00    +0.377 N 
ATOM     11  H   LIG    1       -0.945  -0.353   0.009  0.00  0.00    -0.086 HD
ATOM     12  H   LIG    1        0.490  -0.338   0.820  0.00  0.00    -0.086 HD
ENDBRANCH   8  10
ENDBRANCH   1   8
TORSDOF 3
