REMARK  Name = ZINC03104100
REMARK                            x       y       z     vdW  Elec       q    Type
REMARK                         _______ _______ _______ _____ _____    ______ ____
ROOT
ATOM      1  C   LIG    1        0.057   1.345   0.665  0.00  0.00    +0.002 A 
ATOM      2  C   LIG    1        1.216   2.081   0.434  0.00  0.00    +0.002 A 
ATOM      3  C   LIG    1        2.395   1.459   0.153  0.00  0.00    +0.030 A 
ATOM      4  C   LIG    1        2.448   0.057   0.097  0.00  0.00    +0.091 A 
ATOM      5  C   LIG    1        1.269  -0.691   0.332  0.00  0.00    +0.091 A 
ATOM      6  N   LIG    1        1.308  -2.030   0.280  0.00  0.00    -0.227 NA
ATOM      7  C   LIG    1        2.443  -2.642   0.009  0.00  0.00    +0.165 A 
ATOM      8  C   LIG    1        3.622  -1.894  -0.226  0.00  0.00    +0.179 A 
ATOM      9  N   LIG    1        3.597  -0.578  -0.177  0.00  0.00    -0.226 NA
ATOM     10  C   LIG    1        0.071  -0.016   0.618  0.00  0.00    +0.030 A 
ENDROOT
BRANCH   7  11
ATOM     11  N   LIG    1        2.484  -4.028  -0.045  0.00  0.00    -0.297 N 
ATOM     12  H   LIG    1        3.332  -4.484  -0.161  0.00  0.00    +0.154 HD
BRANCH  11  13
ATOM     13  C   LIG    1        1.303  -4.766   0.069  0.00  0.00    +0.034 A 
ATOM     14  C   LIG    1        0.131  -4.298  -0.514  0.00  0.00    +0.023 A 
ATOM     15  C   LIG    1       -1.037  -5.028  -0.402  0.00  0.00    +0.004 A 
ATOM     16  C   LIG    1       -1.044  -6.224   0.289  0.00  0.00    +0.023 A 
ATOM     17  C   LIG    1        0.124  -6.698   0.873  0.00  0.00    +0.026 A 
ATOM     18  C   LIG    1        1.300  -5.971   0.758  0.00  0.00    +0.046 A 
BRANCH  17  19
ATOM     19  N   LIG    1        0.116  -7.908   1.571  0.00  0.00    -0.358 N 
ATOM     20  H   LIG    1        0.931  -8.238   1.979  0.00  0.00    +0.142 HD
ATOM     21  H   LIG    1       -0.706  -8.418   1.648  0.00  0.00    +0.142 HD
ENDBRANCH  17  19
ENDBRANCH  11  13
ENDBRANCH   7  11
BRANCH   8  22
ATOM     22  N   LIG    1        4.809  -2.551  -0.509  0.00  0.00    -0.197 N 
ATOM     23  H   LIG    1        4.832  -3.534  -0.546  0.00  0.00    +0.175 HD
BRANCH  22  24
ATOM     24  S   LIG    1        6.191  -1.681  -0.785  0.00  0.00    +0.074 S 
ATOM     25  O   LIG    1        6.518  -1.039   0.440  0.00  0.00    -0.150 OA
ATOM     26  O   LIG    1        5.983  -0.959  -1.991  0.00  0.00    -0.150 OA
BRANCH  24  27
ATOM     27  C   LIG    1        7.480  -2.838  -1.107  0.00  0.00    +0.109 A 
ATOM     28  C   LIG    1        8.239  -3.334  -0.064  0.00  0.00    +0.030 A 
ATOM     29  C   LIG    1        9.251  -4.242  -0.316  0.00  0.00    +0.022 A 
ATOM     30  C   LIG    1        9.503  -4.654  -1.612  0.00  0.00    +0.041 A 
ATOM     31 CL   LIG    1       10.773  -5.794  -1.929  0.00  0.00    -0.084 Cl
ATOM     32  C   LIG    1        8.743  -4.157  -2.655  0.00  0.00    +0.022 A 
ATOM     33  C   LIG    1        7.728  -3.254  -2.402  0.00  0.00    +0.030 A 
ENDBRANCH  24  27
ENDBRANCH  22  24
ENDBRANCH   8  22
TORSDOF 6
