REMARK  Name = ZINC02872521
REMARK                            x       y       z     vdW  Elec       q    Type
REMARK                         _______ _______ _______ _____ _____    ______ ____
ROOT
ATOM      1  C   LIG    1        2.211   2.519   3.516  0.00  0.00    +0.249 C 
ATOM      2  N   LIG    1        1.465   2.080   2.482  0.00  0.00    -0.275 N 
ATOM      3  H   LIG    1        0.645   1.590   2.650  0.00  0.00    +0.156 HD
ATOM      4  O   LIG    1        3.239   3.133   3.306  0.00  0.00    -0.270 OA
ENDROOT
BRANCH   2   5
ATOM      5  C   LIG    1        1.870   2.329   1.181  0.00  0.00    +0.085 A 
ATOM      6  C   LIG    1        1.245   1.963   0.001  0.00  0.00    +0.068 A 
ATOM      7  C   LIG    1        1.884   2.358  -1.254  0.00  0.00    -0.023 A 
ATOM      8  C   LIG    1        3.034   3.043  -1.119  0.00  0.00    -0.004 A 
ATOM      9  C   LIG    1        3.628   3.417  -2.450  0.00  0.00    +0.043 C 
ATOM     10  C   LIG    1        2.469   3.243  -3.456  0.00  0.00    +0.010 C 
ATOM     11  C   LIG    1        1.591   2.193  -2.746  0.00  0.00    +0.037 C 
ATOM     12  S   LIG    1        3.281   3.170   0.635  0.00  0.00    -0.077 S 
BRANCH   6  13
ATOM     13  C   LIG    1       -0.014   1.213   0.009  0.00  0.00    +0.244 C 
ATOM     14  N   LIG    1       -1.191   1.871   0.018  0.00  0.00    -0.325 N 
ATOM     15  H   LIG    1       -1.204   2.841   0.023  0.00  0.00    +0.145 HD
ATOM     16  H   LIG    1       -2.024   1.375   0.019  0.00  0.00    +0.145 HD
ATOM     17  O   LIG    1        0.002  -0.004   0.002  0.00  0.00    -0.270 OA
ENDBRANCH   6  13
ENDBRANCH   2   5
BRANCH   1  21
ATOM     18  C   LIG    1        0.965   1.754   7.505  0.00  0.00    +0.162 A 
ATOM     19  C   LIG    1        0.197   1.303   6.440  0.00  0.00    +0.050 A 
ATOM     20  C   LIG    1        0.596   1.554   5.145  0.00  0.00    +0.017 A 
ATOM     21  C   LIG    1        1.780   2.254   4.902  0.00  0.00    +0.041 A 
ATOM     22  C   LIG    1        2.552   2.709   5.974  0.00  0.00    +0.062 A 
ATOM     23  C   LIG    1        2.144   2.458   7.270  0.00  0.00    +0.162 A 
BRANCH  18  25
ATOM     24  C   LIG    1       -0.653   0.781   8.949  0.00  0.00    +0.277 C 
ATOM     25  O   LIG    1        0.565   1.508   8.780  0.00  0.00    -0.491 OA
ENDBRANCH  18  25
BRANCH  23  26
ATOM     26  O   LIG    1        2.894   2.898   8.316  0.00  0.00    -0.491 OA
ATOM     27  C   LIG    1        4.090   3.613   8.001  0.00  0.00    +0.277 C 
ENDBRANCH  23  26
ENDBRANCH   1  21
TORSDOF 5
