REMARK  Name = ZINC02888883
REMARK                            x       y       z     vdW  Elec       q    Type
REMARK                         _______ _______ _______ _____ _____    ______ ____
ROOT
ATOM      1  C   LIG    1       -0.017   1.387   0.010  0.00  0.00    +0.002 C 
ATOM      2  C   LIG    1        1.141   2.104   0.003  0.00  0.00    +0.005 C 
ATOM      3  C   LIG    1        2.377   1.438  -0.013  0.00  0.00    +0.008 C 
ATOM      4  C   LIG    1        3.592   2.150  -0.020  0.00  0.00    +0.006 C 
ATOM      5  C   LIG    1        4.757   1.437  -0.035  0.00  0.00    +0.015 C 
ATOM      6  C   LIG    1        4.719   0.044  -0.042  0.00  0.00    +0.081 C 
ATOM      7  N   LIG    1        3.586  -0.615  -0.035  0.00  0.00    -0.311 NA
ATOM      8  H   LIG    1        3.600  -1.585  -0.041  0.00  0.00    +0.122 HD
ATOM      9  C   LIG    1        2.412   0.022  -0.021  0.00  0.00    +0.075 C 
ATOM     10  C   LIG    1        1.195  -0.694  -0.013  0.00  0.00    +0.094 C 
ATOM     11  C   LIG    1        0.002  -0.004   0.002  0.00  0.00    +0.022 C 
ENDROOT
BRANCH  10  12
ATOM     12  N   LIG    1        1.200  -2.088  -0.022  0.00  0.00    -0.185 NA
ATOM     13  H   LIG    1        1.719  -2.386   0.804  0.00  0.00    +0.148 HD
BRANCH  12  14
ATOM     14  S   LIG    1       -0.231  -2.921  -0.013  0.00  0.00    +0.065 S 
ATOM     15  O   LIG    1       -0.871  -2.642  -1.251  0.00  0.00    -0.153 OA
ATOM     16  O   LIG    1       -0.848  -2.657   1.240  0.00  0.00    -0.153 OA
BRANCH  14  17
ATOM     17  C   LIG    1        0.165  -4.638  -0.027  0.00  0.00    +0.143 A 
ATOM     18  C   LIG    1        0.362  -5.477   1.019  0.00  0.00    +0.037 A 
ATOM     19  C   LIG    1        0.667  -6.802   0.768  0.00  0.00    +0.025 A 
ATOM     20  C   LIG    1        0.761  -7.222  -0.518  0.00  0.00    +0.057 A 
ATOM     21 BR   LIG    1        1.158  -8.948  -1.181  0.00  0.00    -0.043 Br
ATOM     22  S   LIG    1        0.404  -5.725  -1.423  0.00  0.00    -0.062 S 
ENDBRANCH  14  17
ENDBRANCH  12  14
ENDBRANCH  10  12
TORSDOF 3
