REMARK  Name = ZINC02813807
REMARK                            x       y       z     vdW  Elec       q    Type
REMARK                         _______ _______ _______ _____ _____    ______ ____
ROOT
ATOM      1  N   LIG    1        1.059   2.018   0.003  0.00  0.00    -0.260 N 
ATOM      2  C   LIG    1        0.684   3.361   0.013  0.00  0.00    +0.048 A 
ATOM      3  C   LIG    1        1.442   4.525   0.011  0.00  0.00    +0.025 A 
ATOM      4  C   LIG    1        0.820   5.759   0.023  0.00  0.00    +0.022 A 
ATOM      5  C   LIG    1       -0.562   5.854   0.036  0.00  0.00    +0.042 A 
ATOM      6 CL   LIG    1       -1.324   7.414   0.051  0.00  0.00    -0.084 Cl
ATOM      7  C   LIG    1       -1.335   4.709   0.038  0.00  0.00    +0.033 A 
ATOM      8  C   LIG    1       -0.716   3.459   0.026  0.00  0.00    +0.050 A 
ATOM      9  C   LIG    1       -1.236   2.079   0.018  0.00  0.00    +0.250 C 
ATOM     10  O   LIG    1       -2.397   1.725   0.021  0.00  0.00    -0.282 OA
ATOM     11  C   LIG    1       -0.014   1.209   0.009  0.00  0.00    +0.292 C 
ATOM     12  O   LIG    1        0.002  -0.004   0.002  0.00  0.00    -0.266 OA
ENDROOT
BRANCH   1  13
ATOM     13  C   LIG    1        2.446   1.549  -0.012  0.00  0.00    +0.149 C 
BRANCH  13  20
ATOM     14  C   LIG    1        2.743   0.189  -2.092  0.00  0.00    +0.006 A 
ATOM     15  C   LIG    1        3.162   0.049  -3.402  0.00  0.00    +0.020 A 
ATOM     16  C   LIG    1        3.759   1.113  -4.054  0.00  0.00    +0.041 A 
ATOM     17 CL   LIG    1        4.292   0.937  -5.697  0.00  0.00    -0.084 Cl
ATOM     18  C   LIG    1        3.930   2.319  -3.397  0.00  0.00    +0.020 A 
ATOM     19  C   LIG    1        3.506   2.459  -2.089  0.00  0.00    +0.006 A 
ATOM     20  C   LIG    1        2.909   1.395  -1.438  0.00  0.00    -0.030 A 
ENDBRANCH  13  20
ENDBRANCH   1  13
TORSDOF 2
