REMARK  Name = ZINC03201907
REMARK                            x       y       z     vdW  Elec       q    Type
REMARK                         _______ _______ _______ _____ _____    ______ ____
ROOT
ATOM      1  C   LIG    1       -0.018   1.465   0.010  0.00  0.00    -0.096 C 
ATOM      2  N   LIG    1        0.002  -0.004   0.002  0.00  0.00    +0.380 N 
ATOM      3  H   LIG    1        0.421  -0.321  -0.860  0.00  0.00    -0.082 HD
ATOM      4  C   LIG    1       -1.375  -0.499   0.070  0.00  0.00    -0.078 C 
ATOM      5  C   LIG    1       -1.374  -2.033   0.072  0.00  0.00    -0.007 C 
ATOM      6  C   LIG    1       -0.600  -2.492   1.316  0.00  0.00    -0.004 C 
ATOM      7  C   LIG    1       -0.632  -4.011   1.428  0.00  0.00    +0.012 C 
ATOM      8  C   LIG    1        0.173  -4.452   2.654  0.00  0.00    +0.001 C 
ATOM      9  C   LIG    1        1.618  -3.969   2.514  0.00  0.00    +0.000 C 
ATOM     10  C   LIG    1        1.641  -2.442   2.416  0.00  0.00    +0.003 C 
ATOM     11  C   LIG    1       -1.246  -1.861   2.523  0.00  0.00    -0.034 A 
ATOM     12  C   LIG    1       -2.308  -2.522   3.119  0.00  0.00    +0.050 A 
ATOM     13  C   LIG    1       -2.946  -1.974   4.220  0.00  0.00    +0.120 A 
ATOM     14  C   LIG    1       -2.514  -0.756   4.724  0.00  0.00    +0.046 A 
ATOM     15  C   LIG    1       -1.452  -0.106   4.133  0.00  0.00    +0.007 A 
ATOM     16  C   LIG    1       -0.807  -0.658   3.033  0.00  0.00    -0.045 A 
ATOM     17  C   LIG    1        0.356   0.099   2.451  0.00  0.00    +0.020 C 
ATOM     18  C   LIG    1        0.843  -1.999   1.188  0.00  0.00    -0.014 C 
ATOM     19  C   LIG    1        0.809  -0.472   1.120  0.00  0.00    -0.061 C 
ENDROOT
BRANCH  13  20
ATOM     20  O   LIG    1       -3.987  -2.626   4.802  0.00  0.00    -0.495 OA
ATOM     21  C   LIG    1       -4.593  -1.998   5.933  0.00  0.00    +0.277 C 
ENDBRANCH  13  20
TORSDOF 1
