REMARK  Name = ZINC02562379
REMARK                            x       y       z     vdW  Elec       q    Type
REMARK                         _______ _______ _______ _____ _____    ______ ____
ROOT
ATOM      1  C   LIG    1        2.949   3.192   3.683  0.00  0.00    +0.046 A 
ATOM      2  C   LIG    1        1.899   2.864   2.873  0.00  0.00    +0.014 A 
ATOM      3  C   LIG    1        1.158   1.708   3.129  0.00  0.00    +0.003 A 
ATOM      4  C   LIG    1        1.486   0.891   4.226  0.00  0.00    +0.050 A 
ATOM      5  N   LIG    1        0.593  -0.157   4.234  0.00  0.00    -0.360 N 
ATOM      6  C   LIG    1       -0.285  -0.027   3.190  0.00  0.00    +0.087 A 
ATOM      7  H   LIG    1        0.587  -0.879   4.881  0.00  0.00    +0.165 HD
ATOM      8  C   LIG    1        2.558   1.239   5.041  0.00  0.00    +0.071 A 
ATOM      9  C   LIG    1        0.000   1.080   2.488  0.00  0.00    -0.024 A 
ATOM     10  C   LIG    1        3.283   2.384   4.768  0.00  0.00    +0.119 A 
ENDROOT
BRANCH  10  11
ATOM     11  O   LIG    1        4.331   2.725   5.564  0.00  0.00    -0.507 OA
ATOM     12  H   LIG    1        5.178   2.356   5.279  0.00  0.00    +0.292 HD
ENDBRANCH  10  11
BRANCH   9  13
ATOM     13  C   LIG    1       -0.729   1.579   1.267  0.00  0.00    +0.018 C 
BRANCH  13  14
ATOM     14  C   LIG    1       -0.013   1.086   0.008  0.00  0.00    -0.082 C 
BRANCH  14  15
ATOM     15  N   LIG    1       -0.721   1.597  -1.179  0.00  0.00    +0.378 N 
ATOM     16  H   LIG    1       -0.694   2.624  -1.171  0.00  0.00    -0.090 HD
ATOM     17  H   LIG    1       -1.692   1.290  -1.166  0.00  0.00    -0.090 HD
ATOM     18  H   LIG    1       -0.269   1.260  -2.027  0.00  0.00    -0.090 HD
ENDBRANCH  14  15
ENDBRANCH  13  14
ENDBRANCH   9  13
TORSDOF 4
