REMARK  Name = ZINC02884084
REMARK                            x       y       z     vdW  Elec       q    Type
REMARK                         _______ _______ _______ _____ _____    ______ ____
ROOT
ATOM      1  C   LIG    1        1.154   3.170   0.013  0.00  0.00    +0.034 A 
ATOM      2  C   LIG    1        1.170   1.790   0.190  0.00  0.00    +0.024 A 
ATOM      3  C   LIG    1       -0.012   1.083   0.204  0.00  0.00    +0.013 A 
ATOM      4  C   LIG    1       -1.226   1.751   0.034  0.00  0.00    +0.017 A 
ATOM      5  C   LIG    1       -1.239   3.137  -0.139  0.00  0.00    +0.013 A 
ATOM      6  C   LIG    1       -0.054   3.839  -0.151  0.00  0.00    +0.024 A 
ENDROOT
BRANCH   4   7
ATOM      7  C   LIG    1       -2.495   0.994   0.042  0.00  0.00    +0.139 A 
ATOM      8  N   LIG    1       -3.741   1.542  -0.110  0.00  0.00    -0.338 N 
ATOM      9  C   LIG    1       -4.654   0.507  -0.047  0.00  0.00    +0.066 A 
ATOM     10  C   LIG    1       -6.037   0.436  -0.135  0.00  0.00    +0.028 A 
ATOM     11  C   LIG    1       -6.667  -0.786  -0.023  0.00  0.00    +0.002 A 
ATOM     12  C   LIG    1       -5.928  -1.943   0.177  0.00  0.00    +0.002 A 
ATOM     13  C   LIG    1       -4.565  -1.893   0.266  0.00  0.00    +0.030 A 
ATOM     14  C   LIG    1       -3.904  -0.665   0.155  0.00  0.00    +0.089 A 
ATOM     15  H   LIG    1       -3.950   2.511  -0.240  0.00  0.00    +0.167 HD
ATOM     16  N   LIG    1       -2.599  -0.304   0.200  0.00  0.00    -0.228 NA
ENDBRANCH   4   7
BRANCH   1  18
ATOM     17  C   LIG    1        3.467   3.321  -0.507  0.00  0.00    +0.248 C 
ATOM     18  N   LIG    1        2.353   3.884   0.000  0.00  0.00    -0.282 N 
ATOM     19  H   LIG    1        2.384   4.786   0.355  0.00  0.00    +0.155 HD
ATOM     20  O   LIG    1        3.409   2.229  -1.039  0.00  0.00    -0.270 OA
BRANCH  17  24
ATOM     21  C   LIG    1        7.184   5.359  -0.243  0.00  0.00    +0.134 A 
ATOM     22  C   LIG    1        6.035   5.941   0.279  0.00  0.00    +0.047 A 
ATOM     23  C   LIG    1        4.828   5.286   0.191  0.00  0.00    +0.017 A 
ATOM     24  C   LIG    1        4.759   4.029  -0.415  0.00  0.00    +0.038 A 
ATOM     25  C   LIG    1        5.916   3.446  -0.940  0.00  0.00    +0.032 A 
ATOM     26  C   LIG    1        7.120   4.111  -0.853  0.00  0.00    +0.060 A 
ATOM     27 BR   LIG    1        8.686   3.324  -1.562  0.00  0.00    -0.046 Br
BRANCH  21  29
ATOM     28  C   LIG    1        8.366   7.289   0.479  0.00  0.00    +0.277 C 
ATOM     29  O   LIG    1        8.372   6.011  -0.159  0.00  0.00    -0.494 OA
ENDBRANCH  21  29
ENDBRANCH  17  24
ENDBRANCH   1  18
TORSDOF 4
