REMARK  Name = ZINC02384868
REMARK                            x       y       z     vdW  Elec       q    Type
REMARK                         _______ _______ _______ _____ _____    ______ ____
ROOT
ATOM      1  C   LIG    1        3.687   2.598  -0.051  0.00  0.00    +0.233 C 
ATOM      2  O   LIG    1        3.578   3.807  -0.009  0.00  0.00    -0.283 OA
ENDROOT
BRANCH   1   6
ATOM      3  C   LIG    1        7.532   0.815  -0.306  0.00  0.00    +0.162 A 
ATOM      4  C   LIG    1        6.393   0.022  -0.375  0.00  0.00    +0.050 A 
ATOM      5  C   LIG    1        5.145   0.594  -0.286  0.00  0.00    +0.015 A 
ATOM      6  C   LIG    1        5.020   1.982  -0.139  0.00  0.00    +0.029 A 
ATOM      7  C   LIG    1        6.169   2.781  -0.070  0.00  0.00    +0.061 A 
ATOM      8  C   LIG    1        7.417   2.198  -0.153  0.00  0.00    +0.162 A 
BRANCH   3  10
ATOM      9  C   LIG    1        8.807  -1.176  -0.544  0.00  0.00    +0.277 C 
ATOM     10  O   LIG    1        8.761   0.244  -0.388  0.00  0.00    -0.491 OA
ENDBRANCH   3  10
BRANCH   8  11
ATOM     11  O   LIG    1        8.534   2.970  -0.086  0.00  0.00    -0.491 OA
ATOM     12  C   LIG    1        8.341   4.378   0.070  0.00  0.00    +0.277 C 
ENDBRANCH   8  11
ENDBRANCH   1   6
BRANCH   1  13
ATOM     13  C   LIG    1        2.470   1.738  -0.012  0.00  0.00    +0.234 C 
ATOM     14  O   LIG    1        2.073   1.201  -1.026  0.00  0.00    -0.283 OA
BRANCH  13  15
ATOM     15  C   LIG    1        1.748   1.539   1.257  0.00  0.00    +0.044 A 
ATOM     16  C   LIG    1        2.264   2.061   2.449  0.00  0.00    +0.013 A 
ATOM     17  C   LIG    1        1.583   1.871   3.632  0.00  0.00    +0.001 A 
ATOM     18  C   LIG    1        0.391   1.166   3.644  0.00  0.00    +0.001 A 
ATOM     19  C   LIG    1       -0.130   0.650   2.471  0.00  0.00    +0.021 A 
ATOM     20  C   LIG    1        0.542   0.827   1.278  0.00  0.00    +0.052 A 
ATOM     21 CL   LIG    1       -0.108   0.174  -0.194  0.00  0.00    -0.083 Cl
ENDBRANCH  13  15
ENDBRANCH   1  13
TORSDOF 5
