REMARK  Name = ZINC03185216
REMARK                            x       y       z     vdW  Elec       q    Type
REMARK                         _______ _______ _______ _____ _____    ______ ____
ROOT
ATOM      1  C   LIG    1        4.209   2.424   1.776  0.00  0.00    +0.094 A 
ATOM      2  C   LIG    1        3.824   3.594   2.404  0.00  0.00    +0.028 A 
ATOM      3  C   LIG    1        4.180   3.824   3.718  0.00  0.00    +0.017 A 
ATOM      4  C   LIG    1        4.926   2.877   4.410  0.00  0.00    +0.013 A 
ATOM      5  C   LIG    1        5.311   1.702   3.775  0.00  0.00    +0.017 A 
ATOM      6  C   LIG    1        4.947   1.477   2.463  0.00  0.00    +0.028 A 
ENDROOT
BRANCH   1   7
ATOM      7  S   LIG    1        3.752   2.135   0.099  0.00  0.00    +0.025 S 
ATOM      8  O   LIG    1        3.531   3.410  -0.487  0.00  0.00    -0.164 OA
ATOM      9  O   LIG    1        4.694   1.208  -0.425  0.00  0.00    -0.164 OA
BRANCH   7  12
ATOM     10  C   LIG    1       -0.199   1.416   0.109  0.00  0.00    +0.017 A 
ATOM     11  C   LIG    1        1.024   2.052   0.095  0.00  0.00    +0.028 A 
ATOM     12  C   LIG    1        2.194   1.312   0.118  0.00  0.00    +0.094 A 
ATOM     13  C   LIG    1        2.145  -0.070   0.155  0.00  0.00    +0.028 A 
ATOM     14  C   LIG    1        0.929  -0.720   0.170  0.00  0.00    +0.017 A 
ATOM     15  C   LIG    1       -0.256   0.020   0.146  0.00  0.00    +0.059 A 
BRANCH  15  16
ATOM     16  C   LIG    1       -1.561  -0.668   0.162  0.00  0.00    +0.337 C 
ATOM     17  O   LIG    1       -2.596  -0.017   0.142  0.00  0.00    -0.245 OA
BRANCH  16  18
ATOM     18  O   LIG    1       -1.607  -1.890   0.195  0.00  0.00    -0.477 OA
ATOM     19  H   LIG    1       -0.814  -2.389   0.210  0.00  0.00    +0.295 HD
ENDBRANCH  16  18
ENDBRANCH  15  16
ENDBRANCH   7  12
ENDBRANCH   1   7
BRANCH   4  20
ATOM     20  S   LIG    1        5.383   3.166   6.087  0.00  0.00    -0.089 S 
BRANCH  20  21
ATOM     21  C   LIG    1        4.826   4.808   6.404  0.00  0.00    +0.014 A 
ATOM     22  C   LIG    1        3.582   5.016   6.994  0.00  0.00    +0.016 A 
ATOM     23  C   LIG    1        3.136   6.296   7.246  0.00  0.00    +0.017 A 
ATOM     24  C   LIG    1        3.931   7.392   6.910  0.00  0.00    +0.073 A 
ATOM     25  C   LIG    1        5.192   7.186   6.312  0.00  0.00    +0.074 A 
ATOM     26  C   LIG    1        5.633   5.892   6.067  0.00  0.00    +0.030 A 
BRANCH  24  27
ATOM     27  C   LIG    1        3.455   8.760   7.179  0.00  0.00    +0.338 C 
ATOM     28  O   LIG    1        2.411   8.935   7.791  0.00  0.00    -0.245 OA
BRANCH  27  29
ATOM     29  O   LIG    1        4.105   9.721   6.790  0.00  0.00    -0.477 OA
ATOM     30  H   LIG    1        4.905   9.587   6.321  0.00  0.00    +0.295 HD
ENDBRANCH  27  29
ENDBRANCH  24  27
BRANCH  25  31
ATOM     31  C   LIG    1        6.042   8.340   5.952  0.00  0.00    +0.338 C 
ATOM     32  O   LIG    1        6.010   8.793   4.817  0.00  0.00    -0.245 OA
BRANCH  31  33
ATOM     33  O   LIG    1        6.777   8.843   6.790  0.00  0.00    -0.477 OA
ATOM     34  H   LIG    1        6.801   8.496   7.660  0.00  0.00    +0.295 HD
ENDBRANCH  31  33
ENDBRANCH  25  31
ENDBRANCH  20  21
ENDBRANCH   4  20
TORSDOF 10
