REMARK  Name = ZINC02386971
REMARK                            x       y       z     vdW  Elec       q    Type
REMARK                         _______ _______ _______ _____ _____    ______ ____
ROOT
ATOM      1  C   LIG    1        1.228  -0.681  -0.013  0.00  0.00    +0.011 A 
ATOM      2  C   LIG    1        2.395   0.027  -0.021  0.00  0.00    +0.021 A 
ATOM      3  C   LIG    1        2.379   1.417  -0.013  0.00  0.00    +0.043 A 
ATOM      4 CL   LIG    1        3.877   2.294  -0.022  0.00  0.00    -0.083 Cl
ATOM      5  C   LIG    1        1.185   2.106   0.002  0.00  0.00    +0.046 A 
ATOM      6  C   LIG    1       -0.017   1.405   0.010  0.00  0.00    +0.048 A 
ATOM      7  N   LIG    1       -1.334   1.798   0.030  0.00  0.00    -0.349 N 
ATOM      8  H   LIG    1       -1.650   2.715   0.040  0.00  0.00    +0.166 HD
ATOM      9  CA  LIG    1       -2.135   0.671   0.027  0.00  0.00    +0.125 A 
ATOM     10  C   LIG    1       -1.346  -0.436   0.013  0.00  0.00    +0.042 A 
ATOM     11  C   LIG    1        0.002  -0.004   0.002  0.00  0.00    +0.001 A 
ENDROOT
BRANCH   9  12
ATOM     12  C   LIG    1       -3.603   0.670   0.041  0.00  0.00    +0.353 C 
ATOM     13  O   LIG    1       -4.211  -0.383   0.042  0.00  0.00    -0.243 OA
BRANCH  12  14
ATOM     14  OXT LIG    1       -4.279   1.837   0.054  0.00  0.00    -0.476 OA
ATOM     15  HXT LIG    1       -3.811   2.649   0.054  0.00  0.00    +0.295 HD
ENDBRANCH  12  14
ENDBRANCH   9  12
TORSDOF 2
