REMARK  Name = ZINC02509756
REMARK                            x       y       z     vdW  Elec       q    Type
REMARK                         _______ _______ _______ _____ _____    ______ ____
ROOT
ATOM      1  C   LIG    1       -2.078  -0.110  -1.286  0.00  0.00    +0.009 C 
ATOM      2  C   LIG    1       -1.399  -0.804  -2.469  0.00  0.00    +0.005 C 
ATOM      3  C   LIG    1       -2.101  -0.402  -3.767  0.00  0.00    +0.000 C 
ATOM      4  C   LIG    1       -3.571  -0.822  -3.704  0.00  0.00    +0.003 C 
ATOM      5  C   LIG    1       -4.250  -0.128  -2.521  0.00  0.00    +0.040 C 
ATOM      6  C   LIG    1       -3.548  -0.531  -1.223  0.00  0.00    +0.092 C 
ENDROOT
BRANCH   6   7
ATOM      7  C   LIG    1       -4.216   0.153  -0.058  0.00  0.00    -0.012 A 
ATOM      8  C   LIG    1       -3.779   1.398   0.356  0.00  0.00    +0.007 A 
ATOM      9  C   LIG    1       -4.390   2.027   1.425  0.00  0.00    +0.004 A 
ATOM     10  C   LIG    1       -5.439   1.414   2.082  0.00  0.00    +0.045 A 
ATOM     11  C   LIG    1       -5.880   0.166   1.668  0.00  0.00    +0.117 A 
ATOM     12  C   LIG    1       -5.269  -0.462   0.592  0.00  0.00    +0.051 A 
BRANCH  11  13
ATOM     13  O   LIG    1       -6.912  -0.440   2.312  0.00  0.00    -0.507 OA
ATOM     14  H   LIG    1       -7.782  -0.230   1.946  0.00  0.00    +0.292 HD
ENDBRANCH  11  13
ENDBRANCH   6   7
BRANCH   6  15
ATOM     15  O   LIG    1       -3.631  -1.947  -1.056  0.00  0.00    -0.384 OA
ATOM     16  H   LIG    1       -4.536  -2.285  -1.007  0.00  0.00    +0.211 HD
ENDBRANCH   6  15
BRANCH   1  17
ATOM     17  C   LIG    1       -1.376  -0.512   0.012  0.00  0.00    -0.073 C 
BRANCH  17  19
ATOM     18  C   LIG    1       -0.018   1.465   0.010  0.00  0.00    -0.097 C 
ATOM     19  N   LIG    1        0.002  -0.004   0.002  0.00  0.00    +0.376 N 
ATOM     20  H   LIG    1        0.474  -0.330  -0.828  0.00  0.00    -0.083 HD
ATOM     21  C   LIG    1        0.713  -0.491   1.192  0.00  0.00    -0.097 C 
ENDBRANCH  17  19
ENDBRANCH   1  17
TORSDOF 5
