REMARK  Name = ZINC02567159
REMARK                            x       y       z     vdW  Elec       q    Type
REMARK                         _______ _______ _______ _____ _____    ______ ____
ROOT
ATOM      1  CA  LIG    1       -0.018   1.503   0.010  0.00  0.00    +0.066 C 
ENDROOT
BRANCH   1   6
ATOM      2  C   LIG    1        0.060  -4.275  -0.021  0.00  0.00    +0.044 C 
ATOM      3  C   LIG    1        0.040  -2.768  -0.013  0.00  0.00    -0.050 A 
ATOM      4  C   LIG    1        1.151  -2.060  -0.429  0.00  0.00    +0.003 A 
ATOM      5  C   LIG    1        1.132  -0.678  -0.422  0.00  0.00    +0.003 A 
ATOM      6  C   LIG    1        0.002  -0.004   0.002  0.00  0.00    -0.051 A 
ATOM      7  C   LIG    1       -1.107  -0.713   0.424  0.00  0.00    +0.003 A 
ATOM      8  C   LIG    1       -1.090  -2.095   0.411  0.00  0.00    +0.003 A 
ENDBRANCH   1   6
BRANCH   1   9
ATOM      9  N   LIG    1       -0.705   2.002   1.215  0.00  0.00    +0.390 N 
ATOM     10  H1  LIG    1       -0.737   3.027   1.185  0.00  0.00    -0.088 HD
ATOM     11  H2  LIG    1       -0.201   1.709   2.050  0.00  0.00    -0.088 HD
ATOM     12  H3  LIG    1       -1.657   1.640   1.250  0.00  0.00    -0.088 HD
ENDBRANCH   1   9
BRANCH   1  13
ATOM     13  C   LIG    1       -0.747   2.002  -1.211  0.00  0.00    +0.294 C 
ATOM     14  O   LIG    1       -1.898   2.359  -1.123  0.00  0.00    -0.253 OA
BRANCH  13  15
ATOM     15  OXT LIG    1       -0.118   2.050  -2.395  0.00  0.00    -0.482 OA
ATOM     16  HXT LIG    1        0.775   1.774  -2.463  0.00  0.00    +0.295 HD
ENDBRANCH  13  15
ENDBRANCH   1  13
TORSDOF 4
