REMARK  Name = ZINC02719606
REMARK                            x       y       z     vdW  Elec       q    Type
REMARK                         _______ _______ _______ _____ _____    ______ ____
ROOT
ATOM      1  N   LIG    1        6.075   0.589   2.771  0.00  0.00    -0.327 N 
ATOM      2  H   LIG    1        5.452   0.594   3.514  0.00  0.00    +0.148 HD
ENDROOT
BRANCH   1   3
ATOM      3  C   LIG    1        7.438   0.569   3.011  0.00  0.00    +0.150 A 
ATOM      4  C   LIG    1        7.937   0.549   4.325  0.00  0.00    +0.147 A 
ATOM      5  C   LIG    1        9.330   0.529   4.505  0.00  0.00    +0.163 A 
ATOM      6  N   LIG    1       10.120   0.529   3.436  0.00  0.00    -0.216 NA
ATOM      7  C   LIG    1        9.608   0.547   2.224  0.00  0.00    +0.225 A 
ATOM      8  N   LIG    1        9.536   0.513   5.861  0.00  0.00    -0.329 N 
ATOM      9  C   LIG    1        8.312   0.524   6.460  0.00  0.00    +0.198 A 
ATOM     10  H   LIG    1       10.395   0.498   6.312  0.00  0.00    +0.168 HD
ATOM     11  N   LIG    1        7.375   0.545   5.557  0.00  0.00    -0.231 NA
ATOM     12  N   LIG    1        8.306   0.562   2.004  0.00  0.00    -0.219 NA
ENDBRANCH   1   3
BRANCH   1  13
ATOM     13  C   LIG    1        5.574   0.603   1.395  0.00  0.00    +0.105 C 
BRANCH  13  14
ATOM     14  C   LIG    1        4.044   0.624   1.409  0.00  0.00    +0.040 C 
BRANCH  14  15
ATOM     15  C   LIG    1        3.521   0.638  -0.028  0.00  0.00    +0.124 C 
BRANCH  15  18
ATOM     16  C   LIG    1       -0.016   1.337   0.009  0.00  0.00    +0.101 A 
ATOM     17  C   LIG    1        1.259   1.771  -0.000  0.00  0.00    +0.104 A 
ATOM     18  N   LIG    1        2.056   0.658  -0.014  0.00  0.00    -0.338 N 
ATOM     19  C   LIG    1        1.240  -0.418  -0.012  0.00  0.00    +0.173 A 
ATOM     20  N   LIG    1        0.002  -0.004   0.002  0.00  0.00    -0.352 N 
ATOM     21  H   LIG    1       -0.781  -0.576   0.007  0.00  0.00    +0.166 HD
ENDBRANCH  15  18
ENDBRANCH  14  15
ENDBRANCH  13  14
ENDBRANCH   1  13
TORSDOF 5
