REMARK  Name = ZINC02569589
REMARK                            x       y       z     vdW  Elec       q    Type
REMARK                         _______ _______ _______ _____ _____    ______ ____
ROOT
ATOM      1  C   LIG    1       -0.729   1.579   1.267  0.00  0.00    +0.044 C 
ENDROOT
BRANCH   1   2
ATOM      2  N   LIG    1        0.068   1.206   2.449  0.00  0.00    +0.388 N 
ATOM      3  H   LIG    1        1.008   1.610   2.363  0.00  0.00    -0.089 HD
ATOM      4  H   LIG    1        0.147   0.192   2.511  0.00  0.00    -0.089 HD
ATOM      5  H   LIG    1       -0.372   1.564   3.294  0.00  0.00    -0.089 HD
ENDBRANCH   1   2
BRANCH   1   7
ATOM      6  C   LIG    1        1.423   1.615  -0.003  0.00  0.00    +0.006 C 
ATOM      7  C   LIG    1       -0.013   1.086   0.008  0.00  0.00    -0.020 C 
ATOM      8  C   LIG    1       -0.753   1.593  -1.232  0.00  0.00    +0.006 C 
ENDBRANCH   1   7
BRANCH   1   9
ATOM      9  P   LIG    1       -2.388   0.829   1.355  0.00  0.00    +0.314 P 
ATOM     10  O   LIG    1       -2.268  -0.644   1.284  0.00  0.00    -0.261 OA
BRANCH   9  11
ATOM     11  O   LIG    1       -3.281   1.355   0.123  0.00  0.00    -0.325 OA
ATOM     12  H   LIG    1       -2.858   1.105  -0.713  0.00  0.00    +0.220 HD
ENDBRANCH   9  11
BRANCH   9  13
ATOM     13  O   LIG    1       -3.091   1.244   2.743  0.00  0.00    -0.325 OA
ATOM     14  H   LIG    1       -2.553   0.927   3.486  0.00  0.00    +0.220 HD
ENDBRANCH   9  13
ENDBRANCH   1   9
TORSDOF 5
