REMARK  Name = ZINC02712287
REMARK                            x       y       z     vdW  Elec       q    Type
REMARK                         _______ _______ _______ _____ _____    ______ ____
ROOT
ATOM      1  N   LIG    1       -1.013   3.479   0.612  0.00  0.00    -0.306 N 
ATOM      2  C   LIG    1       -0.865   2.149   0.339  0.00  0.00    +0.090 A 
ATOM      3  C   LIG    1        0.319   1.611   0.002  0.00  0.00    +0.030 A 
ATOM      4  C   LIG    1        1.500   2.471  -0.090  0.00  0.00    +0.030 A 
ATOM      5  C   LIG    1        1.351   3.849   0.187  0.00  0.00    +0.050 A 
ATOM      6  C   LIG    1        2.457   4.695   0.108  0.00  0.00    +0.014 A 
ATOM      7  C   LIG    1        3.686   4.179  -0.240  0.00  0.00    +0.004 A 
ATOM      8  C   LIG    1        3.838   2.826  -0.512  0.00  0.00    +0.046 A 
ATOM      9  C   LIG    1        2.757   1.967  -0.441  0.00  0.00    +0.130 A 
ATOM     10  C   LIG    1        0.019   4.345   0.552  0.00  0.00    +0.260 A 
ATOM     11  O   LIG    1       -0.152   5.525   0.799  0.00  0.00    -0.267 OA
ENDROOT
BRANCH   1  12
ATOM     12  C   LIG    1       -2.339   3.983   0.978  0.00  0.00    +0.220 C 
BRANCH  12  15
ATOM     13  N   LIG    1       -4.327   4.899  -0.174  0.00  0.00    -0.284 N 
ATOM     14  H   LIG    1       -4.721   5.060   0.697  0.00  0.00    +0.155 HD
ATOM     15  C   LIG    1       -3.078   4.401  -0.268  0.00  0.00    +0.237 C 
ATOM     16  O   LIG    1       -2.549   4.288  -1.353  0.00  0.00    -0.274 OA
BRANCH  13  20
ATOM     17  C   LIG    1       -6.494   5.748  -3.630  0.00  0.00    -0.047 A 
ATOM     18  C   LIG    1       -5.605   4.689  -3.616  0.00  0.00    +0.005 A 
ATOM     19  C   LIG    1       -4.885   4.405  -2.472  0.00  0.00    +0.023 A 
ATOM     20  C   LIG    1       -5.054   5.184  -1.335  0.00  0.00    +0.033 A 
ATOM     21  C   LIG    1       -5.952   6.244  -1.351  0.00  0.00    +0.023 A 
ATOM     22  C   LIG    1       -6.665   6.526  -2.500  0.00  0.00    +0.005 A 
BRANCH  17  23
ATOM     23  C   LIG    1       -7.277   6.056  -4.880  0.00  0.00    +0.035 C 
BRANCH  23  24
ATOM     24  C   LIG    1       -8.596   5.281  -4.859  0.00  0.00    +0.004 C 
BRANCH  24  26
ATOM     25  C   LIG    1      -10.711   4.819  -6.106  0.00  0.00    +0.004 C 
ATOM     26  C   LIG    1       -9.392   5.593  -6.128  0.00  0.00    -0.003 C 
ENDBRANCH  24  26
ENDBRANCH  23  24
ENDBRANCH  17  23
ENDBRANCH  13  20
ENDBRANCH  12  15
ENDBRANCH   1  12
BRANCH   9  27
ATOM     27  O   LIG    1        2.915   0.644  -0.710  0.00  0.00    -0.477 OA
BRANCH  27  28
ATOM     28  C   LIG    1        4.248   0.183  -0.940  0.00  0.00    +0.278 C 
ATOM     29  C   LIG    1        4.620   0.411  -2.407  0.00  0.00    +0.064 C 
BRANCH  28  30
ATOM     30  C   LIG    1        4.333  -1.288  -0.623  0.00  0.00    +0.348 C 
ATOM     31  O   LIG    1        3.334  -1.900  -0.327  0.00  0.00    -0.247 OA
BRANCH  30  32
ATOM     32  O   LIG    1        5.517  -1.917  -0.670  0.00  0.00    -0.462 OA
BRANCH  32  33
ATOM     33  C   LIG    1        5.524  -3.334  -0.353  0.00  0.00    +0.229 C 
ATOM     34  C   LIG    1        6.951  -3.874  -0.459  0.00  0.00    +0.048 C 
ENDBRANCH  32  33
ENDBRANCH  30  32
ENDBRANCH  28  30
ENDBRANCH  27  28
ENDBRANCH   9  27
TORSDOF 11
