REMARK  Name = ZINC02391117
REMARK                            x       y       z     vdW  Elec       q    Type
REMARK                         _______ _______ _______ _____ _____    ______ ____
ROOT
ATOM      1  C   LIG    1        1.394  -3.999  -2.389  0.00  0.00    +0.148 A 
ATOM      2  C   LIG    1        2.020  -4.608  -3.473  0.00  0.00    +0.045 A 
ATOM      3  C   LIG    1        2.062  -5.998  -3.524  0.00  0.00    +0.011 A 
ATOM      4  C   LIG    1        2.614  -6.981  -4.470  0.00  0.00    +0.008 A 
ATOM      5  C   LIG    1        3.302  -6.873  -5.677  0.00  0.00    +0.010 A 
ATOM      6  C   LIG    1        3.696  -8.011  -6.345  0.00  0.00    +0.001 A 
ATOM      7  C   LIG    1        3.410  -9.263  -5.821  0.00  0.00    +0.002 A 
ATOM      8  C   LIG    1        2.730  -9.385  -4.629  0.00  0.00    +0.026 A 
ATOM      9  C   LIG    1        2.323  -8.247  -3.939  0.00  0.00    +0.048 A 
ATOM     10  N   LIG    1        1.641  -8.075  -2.748  0.00  0.00    -0.353 N 
ATOM     11  H   LIG    1        1.326  -8.797  -2.182  0.00  0.00    +0.166 HD
ATOM     12  C   LIG    1        1.474  -6.735  -2.479  0.00  0.00    +0.066 A 
ATOM     13  C   LIG    1        0.868  -6.041  -1.431  0.00  0.00    +0.137 A 
ATOM     14  N   LIG    1        0.853  -4.729  -1.416  0.00  0.00    -0.246 NA
ENDROOT
BRANCH   1  15
ATOM     15  C   LIG    1        1.336  -2.524  -2.313  0.00  0.00    +0.358 C 
ATOM     16  O   LIG    1        1.828  -1.851  -3.197  0.00  0.00    -0.243 OA
BRANCH  15  17
ATOM     17  O   LIG    1        0.738  -1.926  -1.265  0.00  0.00    -0.460 OA
BRANCH  17  18
ATOM     18  C   LIG    1        0.718  -0.497  -1.257  0.00  0.00    +0.232 C 
BRANCH  18  20
ATOM     19  C   LIG    1       -0.019   1.526   0.010  0.00  0.00    +0.007 C 
ATOM     20  C   LIG    1        0.002  -0.004   0.002  0.00  0.00    +0.038 C 
ENDBRANCH  18  20
ENDBRANCH  17  18
ENDBRANCH  15  17
ENDBRANCH   1  15
TORSDOF 4
