REMARK  Name = ZINC02895827
REMARK                            x       y       z     vdW  Elec       q    Type
REMARK                         _______ _______ _______ _____ _____    ______ ____
ROOT
ATOM      1  C   LIG    1        0.954  -2.557   6.970  0.00  0.00    +0.133 C 
ENDROOT
BRANCH   1   3
ATOM      2  C   LIG    1        0.630  -1.612   4.793  0.00  0.00    +0.088 C 
ATOM      3  N   LIG    1        1.452  -2.112   5.667  0.00  0.00    -0.388 N 
ATOM      4  H   LIG    1        2.396  -2.192   5.455  0.00  0.00    +0.159 HD
BRANCH   2   8
ATOM      5  C   LIG    1        0.709  -0.529   1.208  0.00  0.00    -0.009 A 
ATOM      6  S   LIG    1        2.454  -0.832   1.407  0.00  0.00    -0.087 S 
ATOM      7  C   LIG    1        2.457  -1.353   3.112  0.00  0.00    +0.051 A 
ATOM      8  C   LIG    1        1.107  -1.269   3.451  0.00  0.00    +0.011 A 
ATOM      9  C   LIG    1        0.204  -0.822   2.419  0.00  0.00    +0.021 A 
BRANCH   5  11
ATOM     10  C   LIG    1       -0.074   1.477  -0.022  0.00  0.00    +0.009 C 
ATOM     11  C   LIG    1       -0.024  -0.052  -0.020  0.00  0.00    +0.039 C 
ENDBRANCH   5  11
BRANCH   7  12
ATOM     12  S   LIG    1        3.819  -1.849   4.114  0.00  0.00    -0.135 S 
ATOM     13  H   LIG    1        4.880  -1.746   3.294  0.00  0.00    +0.108 HD
ENDBRANCH   7  12
ENDBRANCH   2   8
ENDBRANCH   1   3
BRANCH   1  14
ATOM     14  C   LIG    1        1.136  -4.071   7.097  0.00  0.00    +0.133 C 
BRANCH  14  15
ATOM     15  N   LIG    1        0.637  -4.515   8.401  0.00  0.00    -0.388 N 
ATOM     16  H   LIG    1        1.076  -4.220   9.214  0.00  0.00    +0.159 HD
ATOM     17  C   LIG    1       -0.392  -5.305   8.468  0.00  0.00    +0.088 C 
BRANCH  17  18
ATOM     18  C   LIG    1       -0.958  -5.662   9.771  0.00  0.00    +0.011 A 
ATOM     19  C   LIG    1       -0.358  -5.259  10.963  0.00  0.00    +0.051 A 
ATOM     20  S   LIG    1       -1.446  -5.956  12.191  0.00  0.00    -0.087 S 
ATOM     21  C   LIG    1       -2.628  -6.737  11.110  0.00  0.00    -0.009 A 
ATOM     22  C   LIG    1       -2.167  -6.441   9.882  0.00  0.00    +0.021 A 
BRANCH  19  23
ATOM     23  S   LIG    1        1.105  -4.305  11.196  0.00  0.00    -0.135 S 
ATOM     24  H   LIG    1        0.663  -3.035  11.229  0.00  0.00    +0.108 HD
ENDBRANCH  19  23
BRANCH  21  25
ATOM     25  C   LIG    1       -3.854  -7.531  11.482  0.00  0.00    +0.039 C 
ATOM     26  C   LIG    1       -3.481  -9.009  11.620  0.00  0.00    +0.009 C 
ENDBRANCH  21  25
ENDBRANCH  17  18
ENDBRANCH  14  15
ENDBRANCH   1  14
TORSDOF 9
