REMARK  Name = ZINC03599025
REMARK                            x       y       z     vdW  Elec       q    Type
REMARK                         _______ _______ _______ _____ _____    ______ ____
ROOT
ATOM      1  C   LIG    1        0.609   3.563  -1.299  0.00  0.00    -0.004 A 
ATOM      2  C   LIG    1        1.412   3.866  -0.215  0.00  0.00    +0.056 A 
ATOM      3  C   LIG    1        2.703   4.326  -0.415  0.00  0.00    +0.159 A 
ATOM      4  C   LIG    1        3.188   4.494  -1.709  0.00  0.00    +0.162 A 
ATOM      5  C   LIG    1        2.380   4.196  -2.794  0.00  0.00    +0.094 A 
ATOM      6  C   LIG    1        1.090   3.730  -2.588  0.00  0.00    +0.124 A 
ENDROOT
BRANCH   3   7
ATOM      7  O   LIG    1        3.495   4.618   0.652  0.00  0.00    -0.503 OA
ATOM      8  H   LIG    1        3.424   5.534   0.956  0.00  0.00    +0.292 HD
ENDBRANCH   3   7
BRANCH   4   9
ATOM      9  O   LIG    1        4.453   4.951  -1.908  0.00  0.00    -0.503 OA
ATOM     10  H   LIG    1        4.519   5.913  -1.970  0.00  0.00    +0.292 HD
ENDBRANCH   4   9
BRANCH   6  11
ATOM     11  O   LIG    1        0.296   3.436  -3.653  0.00  0.00    -0.506 OA
ATOM     12  H   LIG    1       -0.235   4.181  -3.965  0.00  0.00    +0.292 HD
ENDBRANCH   6  11
BRANCH   1  13
ATOM     13  C   LIG    1       -0.793   3.056  -1.078  0.00  0.00    +0.022 C 
BRANCH  13  15
ATOM     14  C   LIG    1       -2.234   1.016  -1.020  0.00  0.00    -0.014 C 
ATOM     15  C   LIG    1       -0.795   1.527  -1.120  0.00  0.00    -0.074 C 
BRANCH  15  16
ATOM     16  N   LIG    1       -0.025   1.014   0.027  0.00  0.00    +0.380 N 
ATOM     17  H   LIG    1       -0.476   1.316   0.899  0.00  0.00    -0.090 HD
ATOM     18  H   LIG    1        0.925   1.379   0.001  0.00  0.00    -0.090 HD
ATOM     19  H   LIG    1        0.002  -0.004   0.002  0.00  0.00    -0.090 HD
ENDBRANCH  15  16
ENDBRANCH  13  15
ENDBRANCH   1  13
TORSDOF 6
