REMARK  Name = ZINC02992723
REMARK                            x       y       z     vdW  Elec       q    Type
REMARK                         _______ _______ _______ _____ _____    ______ ____
ROOT
ATOM      1  C   LIG    1       -0.057   1.330   0.636  0.00  0.00    +0.011 A 
ATOM      2  C   LIG    1        1.094   2.060   0.721  0.00  0.00    +0.046 A 
ATOM      3  C   LIG    1        2.299   1.519   0.281  0.00  0.00    +0.121 A 
ATOM      4  C   LIG    1        2.338   0.232  -0.247  0.00  0.00    +0.046 A 
ATOM      5  C   LIG    1        1.195  -0.508  -0.337  0.00  0.00    +0.011 A 
ATOM      6  C   LIG    1       -0.024   0.032   0.104  0.00  0.00    -0.024 A 
ENDROOT
BRANCH   6   7
ATOM      7  C   LIG    1       -1.252  -0.755   0.010  0.00  0.00    +0.026 C 
ATOM      8  C   LIG    1       -2.408  -0.177  -0.482  0.00  0.00    +0.101 C 
ATOM      9  C   LIG    1       -2.393   1.149  -1.127  0.00  0.00    +0.256 C 
ATOM     10  N   LIG    1       -3.565   1.642  -1.580  0.00  0.00    -0.238 N 
ATOM     11  H   LIG    1       -3.582   2.513  -2.008  0.00  0.00    +0.159 HD
ATOM     12  C   LIG    1       -4.721   0.942  -1.448  0.00  0.00    +0.278 C 
ATOM     13  N   LIG    1       -4.797  -0.238  -0.886  0.00  0.00    -0.127 NA
ATOM     14  O   LIG    1       -1.358   1.778  -1.247  0.00  0.00    -0.270 OA
ATOM     15  C   LIG    1       -3.715  -0.862  -0.391  0.00  0.00    +0.276 C 
ATOM     16  O   LIG    1       -3.810  -1.964   0.123  0.00  0.00    -0.268 OA
BRANCH  12  17
ATOM     17  O   LIG    1       -5.855   1.493  -1.922  0.00  0.00    -0.483 OA
ATOM     18  H   LIG    1       -5.831   2.337  -2.330  0.00  0.00    +0.295 HD
ENDBRANCH  12  17
ENDBRANCH   6   7
BRANCH   3  19
ATOM     19  O   LIG    1        3.438   2.249   0.367  0.00  0.00    -0.489 OA
BRANCH  19  20
ATOM     20  C   LIG    1        4.640   1.634  -0.102  0.00  0.00    +0.270 C 
BRANCH  20  21
ATOM     21  C   LIG    1        5.811   2.602   0.075  0.00  0.00    +0.270 C 
BRANCH  21  22
ATOM     22  O   LIG    1        6.027   2.840   1.468  0.00  0.00    -0.489 OA
BRANCH  22  23
ATOM     23  C   LIG    1        7.038   3.684   1.800  0.00  0.00    +0.121 A 
ATOM     24  C   LIG    1        7.804   4.277   0.806  0.00  0.00    +0.048 A 
ATOM     25  C   LIG    1        8.831   5.135   1.147  0.00  0.00    +0.036 A 
ATOM     26  C   LIG    1        9.097   5.404   2.477  0.00  0.00    +0.122 A 
ATOM     27  C   LIG    1        8.335   4.815   3.469  0.00  0.00    +0.036 A 
ATOM     28  C   LIG    1        7.303   3.960   3.134  0.00  0.00    +0.048 A 
BRANCH  26  29
ATOM     29  N   LIG    1       10.198   6.324   2.839  0.00  0.00    +0.006 N 
ATOM     30  O   LIG    1       10.865   6.839   1.972  0.00  0.00    -0.130 OA
BRANCH  29  31
ATOM     31  O   LIG    1       10.431   6.560   4.002  0.00  0.00    -0.396 OA
ATOM     32  H   LIG    1        9.914   6.160   4.673  0.00  0.00    +0.329 HD
ENDBRANCH  29  31
ENDBRANCH  26  29
ENDBRANCH  22  23
ENDBRANCH  21  22
ENDBRANCH  20  21
ENDBRANCH  19  20
ENDBRANCH   3  19
TORSDOF 9
