REMARK  Name = ZINC03626312
REMARK                            x       y       z     vdW  Elec       q    Type
REMARK                         _______ _______ _______ _____ _____    ______ ____
ROOT
ATOM      1  C   LIG    1       -1.747   5.347  -2.472  0.00  0.00    +0.008 C 
ATOM      2  C   LIG    1       -1.590   3.861  -2.275  0.00  0.00    -0.007 C 
ATOM      3  C   LIG    1       -0.862   3.367  -1.234  0.00  0.00    +0.038 C 
ATOM      4  C   LIG    1       -0.726   1.981  -1.073  0.00  0.00    +0.125 C 
ATOM      5  N   LIG    1       -1.288   1.056  -1.890  0.00  0.00    -0.298 NA
ATOM      6  H   LIG    1       -1.169   0.048  -1.737  0.00  0.00    +0.124 HD
ATOM      7  C   LIG    1       -2.029   1.557  -2.938  0.00  0.00    +0.059 C 
ATOM      8  C   LIG    1       -2.635   0.642  -3.816  0.00  0.00    +0.021 C 
ATOM      9  C   LIG    1       -3.377   1.093  -4.862  0.00  0.00    +0.024 C 
ATOM     10  C   LIG    1       -3.549   2.463  -5.085  0.00  0.00    +0.073 C 
ATOM     11  C   LIG    1       -2.969   3.388  -4.245  0.00  0.00    +0.027 C 
ATOM     12  C   LIG    1       -2.200   2.946  -3.158  0.00  0.00    +0.011 C 
ENDROOT
BRANCH   4  13
ATOM     13  N   LIG    1        0.024   1.493  -0.013  0.00  0.00    -0.287 NA
ATOM     14  C   LIG    1        1.387   2.040  -0.036  0.00  0.00    +0.086 C 
ATOM     15  C   LIG    1        2.137   1.598   1.223  0.00  0.00    +0.015 C 
ATOM     16  C   LIG    1        2.182   0.068   1.273  0.00  0.00    +0.002 C 
ATOM     17  C   LIG    1        0.751  -0.478   1.247  0.00  0.00    +0.015 C 
ATOM     18  C   LIG    1        0.041   0.025  -0.012  0.00  0.00    +0.086 C 
ENDBRANCH   4  13
BRANCH  10  19
ATOM     19  N   LIG    1       -4.317   2.898  -6.171  0.00  0.00    -0.310 N 
ATOM     20  H   LIG    1       -4.306   2.401  -7.004  0.00  0.00    +0.149 HD
ATOM     21  C   LIG    1       -5.074   4.009  -6.060  0.00  0.00    +0.251 C 
ATOM     22  O   LIG    1       -5.025   4.676  -5.049  0.00  0.00    -0.272 OA
BRANCH  21  23
ATOM     23  C   LIG    1       -5.979   4.420  -7.192  0.00  0.00    +0.324 C 
BRANCH  23  24
ATOM     24  O   LIG    1       -6.671   5.619  -6.837  0.00  0.00    -0.481 OA
BRANCH  24  25
ATOM     25  C   LIG    1       -7.535   6.128  -7.755  0.00  0.00    +0.140 A 
ATOM     26  C   LIG    1       -7.712   5.487  -8.972  0.00  0.00    +0.048 A 
ATOM     27  C   LIG    1       -8.590   6.006  -9.904  0.00  0.00    +0.023 A 
ATOM     28  C   LIG    1       -9.292   7.165  -9.625  0.00  0.00    +0.043 A 
ATOM     29 CL   LIG    1      -10.395   7.815 -10.798  0.00  0.00    -0.083 Cl
ATOM     30  C   LIG    1       -9.117   7.807  -8.412  0.00  0.00    +0.043 A 
ATOM     31  C   LIG    1       -8.244   7.288  -7.474  0.00  0.00    +0.084 A 
ATOM     32 CL   LIG    1       -8.030   8.088  -5.949  0.00  0.00    -0.080 Cl
ENDBRANCH  24  25
ENDBRANCH  23  24
ENDBRANCH  21  23
ENDBRANCH  10  19
TORSDOF 5
