REMARK  Name = ZINC02397904
REMARK                            x       y       z     vdW  Elec       q    Type
REMARK                         _______ _______ _______ _____ _____    ______ ____
ROOT
ATOM      1  C   LIG    1       -1.470   1.725   0.189  0.00  0.00    +0.203 C 
ATOM      2  C   LIG    1       -0.834   3.061   0.450  0.00  0.00    +0.040 C 
ATOM      3  C   LIG    1        0.506   2.845   0.550  0.00  0.00    +0.022 C 
ATOM      4  N   LIG    1        0.806   1.530   0.396  0.00  0.00    -0.269 N 
ATOM      5  C   LIG    1        1.475   3.983   0.797  0.00  0.00    +0.058 C 
ATOM      6  C   LIG    1        0.851   5.270   0.245  0.00  0.00    -0.023 C 
ATOM      7  C   LIG    1        1.764   6.453   0.571  0.00  0.00    +0.011 C 
ATOM      8  C   LIG    1        0.702   5.149  -1.273  0.00  0.00    +0.011 C 
ATOM      9  C   LIG    1       -0.524   5.504   0.872  0.00  0.00    +0.086 C 
ATOM     10  C   LIG    1       -1.427   4.326   0.576  0.00  0.00    +0.163 C 
ATOM     11  O   LIG    1       -2.627   4.471   0.453  0.00  0.00    -0.292 OA
ATOM     12  C   LIG    1       -0.288   0.772   0.178  0.00  0.00    +0.244 C 
ATOM     13  O   LIG    1       -0.320  -0.427   0.004  0.00  0.00    -0.274 OA
ENDROOT
BRANCH   1  16
ATOM     14  C   LIG    1       -0.486   0.269  -2.382  0.00  0.00    +0.065 C 
ATOM     15  C   LIG    1       -1.745   1.088  -2.260  0.00  0.00    +0.040 A 
ATOM     16  C   LIG    1       -2.170   1.718  -1.146  0.00  0.00    +0.067 A 
ATOM     17  C   LIG    1       -3.391   2.366  -1.447  0.00  0.00    +0.277 A 
ATOM     18  N   LIG    1       -3.674   2.122  -2.743  0.00  0.00    -0.219 N 
ATOM     19  O   LIG    1       -4.063   3.028  -0.676  0.00  0.00    -0.265 OA
ATOM     20  N   LIG    1       -2.648   1.318  -3.258  0.00  0.00    -0.294 N 
ATOM     21  H   LIG    1       -2.590   0.983  -4.167  0.00  0.00    +0.187 HD
BRANCH  18  22
ATOM     22  C   LIG    1       -4.793   2.583  -3.444  0.00  0.00    +0.067 A 
ATOM     23  C   LIG    1       -5.739   3.372  -2.803  0.00  0.00    +0.028 A 
ATOM     24  C   LIG    1       -6.840   3.830  -3.500  0.00  0.00    +0.002 A 
ATOM     25  C   LIG    1       -7.006   3.495  -4.832  0.00  0.00    +0.000 A 
ATOM     26  C   LIG    1       -6.068   2.705  -5.471  0.00  0.00    +0.002 A 
ATOM     27  C   LIG    1       -4.962   2.248  -4.781  0.00  0.00    +0.028 A 
ENDBRANCH  18  22
ENDBRANCH   1  16
BRANCH   1  28
ATOM     28  C   LIG    1       -2.444   1.364   1.312  0.00  0.00    +0.412 C 
ATOM     29  F   LIG    1       -2.940   0.073   1.103  0.00  0.00    -0.169 F 
ATOM     30  F   LIG    1       -3.506   2.275   1.320  0.00  0.00    -0.169 F 
ATOM     31  F   LIG    1       -1.778   1.415   2.541  0.00  0.00    -0.169 F 
ENDBRANCH   1  28
BRANCH   4  32
ATOM     32  C   LIG    1        2.168   0.993   0.460  0.00  0.00    +0.148 C 
BRANCH  32  33
ATOM     33  C   LIG    1        2.777   1.005  -0.918  0.00  0.00    -0.030 A 
ATOM     34  C   LIG    1        2.637  -0.093  -1.746  0.00  0.00    +0.005 A 
ATOM     35  C   LIG    1        3.193  -0.080  -3.012  0.00  0.00    +0.000 A 
ATOM     36  C   LIG    1        3.897   1.028  -3.446  0.00  0.00    +0.000 A 
ATOM     37  C   LIG    1        4.041   2.124  -2.617  0.00  0.00    +0.000 A 
ATOM     38  C   LIG    1        3.482   2.113  -1.353  0.00  0.00    +0.005 A 
ENDBRANCH  32  33
ENDBRANCH   4  32
TORSDOF 5
