REMARK  Name = ZINC02581459
REMARK                            x       y       z     vdW  Elec       q    Type
REMARK                         _______ _______ _______ _____ _____    ______ ____
ROOT
ATOM      1  C   LIG    1        2.067  -0.266  -1.565  0.00  0.00    +0.092 A 
ATOM      2  C   LIG    1        2.794   0.183  -0.467  0.00  0.00    +0.139 A 
ATOM      3  C   LIG    1        4.156   0.398  -0.590  0.00  0.00    +0.047 A 
ATOM      4  C   LIG    1        4.782   0.162  -1.798  0.00  0.00    +0.008 A 
ATOM      5  C   LIG    1        4.059  -0.287  -2.896  0.00  0.00    -0.028 A 
ATOM      6  C   LIG    1        4.812  -0.528  -4.178  0.00  0.00    +0.130 C 
ATOM      7  C   LIG    1        3.854  -0.600  -5.360  0.00  0.00    +0.020 C 
ATOM      8  C   LIG    1        2.734  -1.592  -5.025  0.00  0.00    +0.006 C 
ATOM      9  C   LIG    1        1.859  -0.980  -3.933  0.00  0.00    +0.037 C 
ATOM     10  C   LIG    1        2.704  -0.503  -2.781  0.00  0.00    -0.017 A 
ENDROOT
BRANCH   6  11
ATOM     11  C   LIG    1        5.801   0.589  -4.391  0.00  0.00    +0.246 C 
ATOM     12  N   LIG    1        5.495   1.686  -5.044  0.00  0.00    -0.275 N 
ATOM     13  H   LIG    1        4.632   1.880  -5.441  0.00  0.00    +0.304 HD
ATOM     14  C   LIG    1        6.668   2.574  -5.079  0.00  0.00    +0.276 C 
ATOM     15  C   LIG    1        7.739   1.774  -4.308  0.00  0.00    +0.268 C 
ATOM     16  N   LIG    1        7.030   0.539  -3.933  0.00  0.00    -0.236 N 
ATOM     17  H   LIG    1        7.412  -0.196  -3.428  0.00  0.00    +0.291 HD
ENDBRANCH   6  11
BRANCH   1  18
ATOM     18  N   LIG    1        0.690  -0.486  -1.445  0.00  0.00    -0.217 N 
ATOM     19  H   LIG    1        0.328  -1.375  -1.581  0.00  0.00    +0.173 HD
BRANCH  18  21
ATOM     20  C   LIG    1       -0.134   1.942  -2.446  0.00  0.00    +0.218 C 
ATOM     21  S   LIG    1       -0.320   0.772  -1.072  0.00  0.00    +0.040 S 
ATOM     22  O   LIG    1       -1.623   0.207  -1.084  0.00  0.00    -0.155 OA
ATOM     23  O   LIG    1        0.218   1.328   0.120  0.00  0.00    -0.155 OA
ENDBRANCH  18  21
ENDBRANCH   1  18
BRANCH   2  24
ATOM     24  O   LIG    1        2.170   0.410   0.720  0.00  0.00    -0.505 OA
ATOM     25  H   LIG    1        2.077  -0.378   1.273  0.00  0.00    +0.292 HD
ENDBRANCH   2  24
TORSDOF 4
