REMARK  Name = ZINC02567727
REMARK                            x       y       z     vdW  Elec       q    Type
REMARK                         _______ _______ _______ _____ _____    ______ ____
ROOT
ATOM      1  C   LIG    1       -0.017   1.362   0.009  0.00  0.00    +0.001 A 
ATOM      2  C   LIG    1        1.171   2.082   0.002  0.00  0.00    +0.004 A 
ATOM      3  C   LIG    1        2.387   1.434  -0.013  0.00  0.00    +0.047 A 
ATOM      4  C   LIG    1        2.431   0.044  -0.021  0.00  0.00    +0.136 A 
ATOM      5  C   LIG    1        1.224  -0.680  -0.013  0.00  0.00    +0.021 A 
ATOM      6  C   LIG    1        1.609  -2.091  -0.025  0.00  0.00    +0.066 A 
ATOM      7  C   LIG    1        2.966  -2.110  -0.039  0.00  0.00    +0.215 A 
ATOM      8  O   LIG    1        3.441  -0.847  -0.037  0.00  0.00    -0.447 OA
ATOM      9  C   LIG    1        0.002  -0.004   0.002  0.00  0.00    +0.011 A 
ENDROOT
BRANCH   7  10
ATOM     10  C   LIG    1        3.796  -3.326  -0.054  0.00  0.00    +0.306 C 
ATOM     11  N   LIG    1        3.405  -4.468   0.496  0.00  0.00    -0.269 N 
ATOM     12  H   LIG    1        2.561  -4.612   0.950  0.00  0.00    +0.304 HD
ATOM     13  C   LIG    1        4.456  -5.480   0.308  0.00  0.00    +0.277 C 
ATOM     14  C   LIG    1        5.554  -4.721  -0.463  0.00  0.00    +0.268 C 
ATOM     15  N   LIG    1        4.992  -3.371  -0.624  0.00  0.00    -0.230 N 
ATOM     16  H   LIG    1        5.428  -2.631  -1.074  0.00  0.00    +0.291 HD
ENDBRANCH   7  10
TORSDOF 1
