REMARK  Name = ZINC02795867
REMARK                            x       y       z     vdW  Elec       q    Type
REMARK                         _______ _______ _______ _____ _____    ______ ____
ROOT
ATOM      1  C   LIG    1        1.973  10.759  -3.683  0.00  0.00    +0.044 C 
ATOM      2  C   LIG    1        1.705   9.362  -3.184  0.00  0.00    -0.050 A 
ATOM      3  C   LIG    1        2.133   8.275  -3.922  0.00  0.00    +0.004 A 
ATOM      4  C   LIG    1        1.894   6.985  -3.477  0.00  0.00    +0.014 A 
ATOM      5  C   LIG    1        1.221   6.784  -2.282  0.00  0.00    +0.050 A 
ATOM      6  C   LIG    1        0.785   7.893  -1.529  0.00  0.00    +0.050 A 
ATOM      7  C   LIG    1        0.117   7.332  -0.335  0.00  0.00    +0.258 C 
ATOM      8  N   LIG    1        0.170   5.990  -0.405  0.00  0.00    -0.202 N 
ATOM      9  O   LIG    1       -0.394   7.976   0.559  0.00  0.00    -0.269 OA
ATOM     10  C   LIG    1        0.809   5.588  -1.518  0.00  0.00    +0.258 C 
ATOM     11  O   LIG    1        1.011   4.435  -1.842  0.00  0.00    -0.269 OA
ATOM     12  C   LIG    1        1.031   9.177  -1.987  0.00  0.00    +0.017 A 
ENDROOT
BRANCH   8  13
ATOM     13  C   LIG    1       -0.366   5.123   0.560  0.00  0.00    +0.052 A 
ATOM     14  C   LIG    1       -1.004   5.641   1.679  0.00  0.00    +0.073 A 
ATOM     15  C   LIG    1       -1.534   4.785   2.632  0.00  0.00    +0.167 A 
ATOM     16  C   LIG    1       -1.431   3.409   2.465  0.00  0.00    +0.204 A 
ATOM     17  C   LIG    1       -0.787   2.893   1.346  0.00  0.00    +0.167 A 
ATOM     18  C   LIG    1       -0.259   3.750   0.394  0.00  0.00    +0.073 A 
BRANCH  15  19
ATOM     19  O   LIG    1       -2.159   5.292   3.728  0.00  0.00    -0.491 OA
ATOM     20  C   LIG    1       -2.233   6.715   3.833  0.00  0.00    +0.277 C 
ENDBRANCH  15  19
BRANCH  16  21
ATOM     21  O   LIG    1       -1.956   2.568   3.397  0.00  0.00    -0.488 OA
ATOM     22  C   LIG    1       -1.101   2.178   4.474  0.00  0.00    +0.277 C 
ENDBRANCH  16  21
BRANCH  17  23
ATOM     23  O   LIG    1       -0.682   1.547   1.184  0.00  0.00    -0.491 OA
ATOM     24  C   LIG    1       -0.013   1.086   0.008  0.00  0.00    +0.277 C 
ENDBRANCH  17  23
ENDBRANCH   8  13
TORSDOF 4
