REMARK  Name = ZINC02576349
REMARK                            x       y       z     vdW  Elec       q    Type
REMARK                         _______ _______ _______ _____ _____    ______ ____
ROOT
ATOM      1  N   LIG    1        0.103   1.455  -0.570  0.00  0.00    -0.240 N 
ATOM      2  C   LIG    1        1.331   1.905  -0.183  0.00  0.00    +0.164 A 
ATOM      3  C   LIG    1        2.189   0.790  -0.166  0.00  0.00    +0.086 A 
ATOM      4  C   LIG    1        3.530   0.980   0.203  0.00  0.00    +0.131 A 
ATOM      5  N   LIG    1        3.929   2.208   0.521  0.00  0.00    -0.220 NA
ATOM      6  C   LIG    1        3.089   3.227   0.491  0.00  0.00    +0.225 A 
ATOM      7  C   LIG    1        1.381  -0.361  -0.572  0.00  0.00    +0.106 A 
ATOM      8  N   LIG    1        1.825   3.096   0.152  0.00  0.00    -0.216 NA
ATOM      9  N   LIG    1        0.164   0.076  -0.799  0.00  0.00    -0.168 NA
ENDROOT
BRANCH   7  10
ATOM     10  C   LIG    1        1.849  -1.758  -0.703  0.00  0.00    +0.011 A 
ATOM     11  C   LIG    1        2.932  -2.061  -1.510  0.00  0.00    +0.011 A 
ATOM     12  C   LIG    1        3.381  -3.371  -1.632  0.00  0.00    +0.001 A 
ATOM     13  C   LIG    1        2.764  -4.392  -0.974  0.00  0.00    +0.008 A 
ATOM     14  C   LIG    1        1.657  -4.131  -0.149  0.00  0.00    -0.017 A 
ATOM     15  C   LIG    1        1.004  -5.166   0.542  0.00  0.00    +0.008 A 
ATOM     16  C   LIG    1       -0.065  -4.878   1.333  0.00  0.00    +0.001 A 
ATOM     17  C   LIG    1       -0.523  -3.570   1.471  0.00  0.00    +0.001 A 
ATOM     18  C   LIG    1        0.086  -2.542   0.817  0.00  0.00    +0.009 A 
ATOM     19  C   LIG    1        1.190  -2.801  -0.007  0.00  0.00    -0.009 A 
ENDBRANCH   7  10
BRANCH   1  21
ATOM     20  C   LIG    1       -2.265   1.416  -1.180  0.00  0.00    +0.036 C 
ATOM     21  C   LIG    1       -1.092   2.288  -0.727  0.00  0.00    +0.058 C 
ATOM     22  C   LIG    1       -0.826   3.369  -1.775  0.00  0.00    +0.036 C 
ATOM     23  C   LIG    1       -1.434   2.947   0.611  0.00  0.00    +0.036 C 
ENDBRANCH   1  21
BRANCH   4  24
ATOM     24  N   LIG    1        4.413  -0.082   0.236  0.00  0.00    -0.342 N 
ATOM     25  H   LIG    1        5.359   0.078   0.381  0.00  0.00    +0.144 HD
ATOM     26  H   LIG    1        4.088  -0.987   0.114  0.00  0.00    +0.144 HD
ENDBRANCH   4  24
TORSDOF 3
