REMARK  Name = ZINC02566600
REMARK                            x       y       z     vdW  Elec       q    Type
REMARK                         _______ _______ _______ _____ _____    ______ ____
ROOT
ATOM      1  C   LIG    1       -0.705   1.938   1.219  0.00  0.00    -0.076 C 
ENDROOT
BRANCH   1   3
ATOM      2  C   LIG    1        0.002  -0.004   0.002  0.00  0.00    -0.093 C 
ATOM      3  N   LIG    1       -0.018   1.465   0.010  0.00  0.00    +0.374 N 
ATOM      4  C   LIG    1       -0.728   1.951  -1.180  0.00  0.00    -0.093 C 
ATOM      5  C   LIG    1        1.360   1.973  -0.000  0.00  0.00    -0.093 C 
ENDBRANCH   1   3
BRANCH   1   6
ATOM      6  C   LIG    1        0.035   1.432   2.458  0.00  0.00    -0.018 C 
BRANCH   6   7
ATOM      7  C   LIG    1       -0.682   1.925   3.717  0.00  0.00    -0.001 C 
BRANCH   7   8
ATOM      8  C   LIG    1        0.058   1.418   4.957  0.00  0.00    +0.011 C 
BRANCH   8   9
ATOM      9  C   LIG    1       -0.658   1.912   6.215  0.00  0.00    +0.080 C 
ATOM     10 BR   LIG    1        0.293   1.260   7.808  0.00  0.00    -0.092 Br
ENDBRANCH   8   9
ENDBRANCH   7   8
ENDBRANCH   6   7
ENDBRANCH   1   6
TORSDOF 5
