REMARK  Name = ZINC02565794
REMARK                            x       y       z     vdW  Elec       q    Type
REMARK                         _______ _______ _______ _____ _____    ______ ____
ROOT
ATOM      1  C   LIG    1       -1.287  -0.784   0.010  0.00  0.00    +0.005 C 
ATOM      2  C   LIG    1       -1.407  -1.653  -1.266  0.00  0.00    -0.009 C 
ATOM      3  C   LIG    1       -1.464  -3.108  -0.713  0.00  0.00    -0.071 C 
ATOM      4  C   LIG    1       -0.015  -3.411  -0.223  0.00  0.00    -0.017 C 
ATOM      5  C   LIG    1        0.124  -2.544   1.052  0.00  0.00    -0.017 C 
ATOM      6  N   LIG    1       -2.189  -2.893   0.590  0.00  0.00    +0.383 N 
ATOM      7  H   LIG    1       -2.189  -3.728   1.158  0.00  0.00    -0.085 HD
ATOM      8  H   LIG    1       -3.125  -2.546   0.442  0.00  0.00    -0.085 HD
ATOM      9  C   LIG    1       -1.289  -1.829   1.167  0.00  0.00    -0.064 C 
ENDROOT
BRANCH   1  16
ATOM     10  C   LIG    1        1.093  -0.459  -0.724  0.00  0.00    +0.008 A 
ATOM     11  C   LIG    1        2.258   0.291  -0.702  0.00  0.00    +0.040 A 
ATOM     12  C   LIG    1        2.295   1.460   0.037  0.00  0.00    +0.129 A 
ATOM     13 CL   LIG    1        3.748   2.409   0.072  0.00  0.00    -0.062 Cl
ATOM     14  N   LIG    1        1.236   1.861   0.716  0.00  0.00    -0.243 NA
ATOM     15  C   LIG    1        0.112   1.173   0.718  0.00  0.00    +0.116 A 
ATOM     16  C   LIG    1        0.002  -0.004   0.002  0.00  0.00    -0.028 A 
ENDBRANCH   1  16
TORSDOF 1
