REMARK  Name = ZINC03363307
REMARK                            x       y       z     vdW  Elec       q    Type
REMARK                         _______ _______ _______ _____ _____    ______ ____
ROOT
ATOM      1  N   LIG    1        0.097  -2.777  -0.113  0.00  0.00    -0.331 N 
ATOM      2  C   LIG    1       -1.306  -3.215  -0.187  0.00  0.00    +0.086 C 
ATOM      3  C   LIG    1       -1.357  -4.725   0.064  0.00  0.00    -0.060 C 
ATOM      4  N   LIG    1       -0.693  -5.032   1.337  0.00  0.00    +0.382 N 
ATOM      5  H   LIG    1       -1.120  -4.495   2.076  0.00  0.00    -0.082 HD
ATOM      6  C   LIG    1        0.734  -4.694   1.250  0.00  0.00    -0.060 C 
ATOM      7  C   LIG    1        0.890  -3.186   1.056  0.00  0.00    +0.086 C 
ENDROOT
BRANCH   1  13
ATOM      8  C   LIG    1        0.606  -0.608  -1.057  0.00  0.00    +0.141 A 
ATOM      9  C   LIG    1        1.173   0.158  -2.062  0.00  0.00    +0.047 A 
ATOM     10  C   LIG    1        1.786  -0.457  -3.138  0.00  0.00    +0.004 A 
ATOM     11  C   LIG    1        1.837  -1.836  -3.214  0.00  0.00    +0.002 A 
ATOM     12  C   LIG    1        1.274  -2.608  -2.214  0.00  0.00    +0.027 A 
ATOM     13  C   LIG    1        0.662  -1.998  -1.129  0.00  0.00    +0.072 A 
BRANCH   8  15
ATOM     14  C   LIG    1       -0.017   1.425   0.010  0.00  0.00    +0.277 C 
ATOM     15  O   LIG    1        0.002  -0.004   0.002  0.00  0.00    -0.493 OA
ENDBRANCH   8  15
ENDBRANCH   1  13
BRANCH   4  16
ATOM     16  C   LIG    1       -0.838  -6.464   1.630  0.00  0.00    -0.075 C 
BRANCH  16  17
ATOM     17  C   LIG    1       -0.256  -6.763   3.013  0.00  0.00    +0.022 C 
BRANCH  17  18
ATOM     18  C   LIG    1       -0.407  -8.254   3.319  0.00  0.00    +0.227 C 
BRANCH  18  19
ATOM     19  O   LIG    1        0.137  -8.533   4.611  0.00  0.00    -0.492 OA
BRANCH  19  20
ATOM     20  C   LIG    1        0.082  -9.823   5.038  0.00  0.00    +0.121 A 
ATOM     21  C   LIG    1       -0.479 -10.799   4.228  0.00  0.00    +0.048 A 
ATOM     22  C   LIG    1       -0.534 -12.109   4.664  0.00  0.00    +0.042 A 
ATOM     23  C   LIG    1       -0.031 -12.447   5.909  0.00  0.00    +0.124 A 
ATOM     24  F   LIG    1       -0.086 -13.728   6.333  0.00  0.00    -0.205 F 
ATOM     25  C   LIG    1        0.528 -11.473   6.718  0.00  0.00    +0.042 A 
ATOM     26  C   LIG    1        0.591 -10.164   6.282  0.00  0.00    +0.048 A 
ENDBRANCH  19  20
ENDBRANCH  18  19
ENDBRANCH  17  18
ENDBRANCH  16  17
ENDBRANCH   4  16
TORSDOF 7
