REMARK  Name = ZINC02387301
REMARK                            x       y       z     vdW  Elec       q    Type
REMARK                         _______ _______ _______ _____ _____    ______ ____
ROOT
ATOM      1  C   LIG    1        1.741   2.061  -0.004  0.00  0.00    +0.027 A 
ATOM      2  C   LIG    1        2.243   0.767  -0.015  0.00  0.00    +0.017 A 
ATOM      3  C   LIG    1        1.363  -0.279  -0.013  0.00  0.00    +0.017 A 
ATOM      4  C   LIG    1        0.002  -0.004   0.002  0.00  0.00    +0.027 A 
ATOM      5  S   LIG    1       -0.022   1.781   0.012  0.00  0.00    -0.087 S 
ENDROOT
BRANCH   1   8
ATOM      6  C   LIG    1        2.843   5.673   0.006  0.00  0.00    +0.019 A 
ATOM      7  C   LIG    1        1.968   4.632   0.009  0.00  0.00    +0.017 A 
ATOM      8  C   LIG    1        2.472   3.333  -0.004  0.00  0.00    +0.027 A 
ATOM      9  S   LIG    1        4.235   3.613  -0.012  0.00  0.00    -0.085 S 
ATOM     10  C   LIG    1        4.210   5.398  -0.009  0.00  0.00    +0.052 A 
BRANCH  10  11
ATOM     11  C   LIG    1        5.294   6.298  -0.015  0.00  0.00    +0.265 C 
ATOM     12  O   LIG    1        6.434   5.876  -0.029  0.00  0.00    -0.295 OA
ENDBRANCH  10  11
ENDBRANCH   1   8
BRANCH   4  13
ATOM     13  C   LIG    1       -1.127  -0.941   0.008  0.00  0.00    +0.027 A 
ATOM     14  C   LIG    1       -2.492  -0.665   0.022  0.00  0.00    +0.017 A 
ATOM     15  C   LIG    1       -3.370  -1.706   0.025  0.00  0.00    +0.019 A 
ATOM     16  C   LIG    1       -2.866  -3.006   0.013  0.00  0.00    +0.052 A 
ATOM     17  S   LIG    1       -1.103  -2.726  -0.009  0.00  0.00    -0.085 S 
BRANCH  16  18
ATOM     18  C   LIG    1       -3.568  -4.227   0.013  0.00  0.00    +0.265 C 
ATOM     19  O   LIG    1       -2.958  -5.278   0.003  0.00  0.00    -0.295 OA
ENDBRANCH  16  18
ENDBRANCH   4  13
TORSDOF 4
