REMARK  Name = ZINC02848242
REMARK                            x       y       z     vdW  Elec       q    Type
REMARK                         _______ _______ _______ _____ _____    ______ ____
ROOT
ATOM      1  C   LIG    1        3.796  -3.324  -0.052  0.00  0.00    +0.279 C 
ATOM      2  N   LIG    1        5.140  -3.223  -0.064  0.00  0.00    -0.309 N 
ATOM      3  H   LIG    1        5.560  -2.349  -0.064  0.00  0.00    +0.149 HD
ATOM      4  O   LIG    1        3.268  -4.420  -0.052  0.00  0.00    -0.267 OA
ENDROOT
BRANCH   1  11
ATOM      5  C   LIG    1       -0.017   1.362   0.009  0.00  0.00    +0.001 A 
ATOM      6  C   LIG    1        1.171   2.082   0.002  0.00  0.00    +0.004 A 
ATOM      7  C   LIG    1        2.387   1.434  -0.013  0.00  0.00    +0.047 A 
ATOM      8  C   LIG    1        2.431   0.045  -0.021  0.00  0.00    +0.136 A 
ATOM      9  C   LIG    1        1.225  -0.680  -0.013  0.00  0.00    +0.021 A 
ATOM     10  C   LIG    1        1.609  -2.091  -0.025  0.00  0.00    +0.063 A 
ATOM     11  C   LIG    1        2.967  -2.110  -0.038  0.00  0.00    +0.190 A 
ATOM     12  O   LIG    1        3.441  -0.847  -0.035  0.00  0.00    -0.450 OA
ATOM     13  C   LIG    1        0.002  -0.004   0.002  0.00  0.00    +0.011 A 
ENDBRANCH   1  11
BRANCH   2  14
ATOM     14  C   LIG    1        5.965  -4.433  -0.078  0.00  0.00    +0.106 C 
BRANCH  14  15
ATOM     15  C   LIG    1        7.444  -4.041  -0.090  0.00  0.00    +0.040 C 
BRANCH  15  16
ATOM     16  C   LIG    1        8.307  -5.305  -0.105  0.00  0.00    +0.124 C 
BRANCH  16  17
ATOM     17  N   LIG    1        9.723  -4.930  -0.116  0.00  0.00    -0.338 N 
ATOM     18  C   LIG    1       10.496  -4.710  -1.225  0.00  0.00    +0.104 A 
ATOM     19  C   LIG    1       11.727  -4.389  -0.783  0.00  0.00    +0.101 A 
ATOM     20  N   LIG    1       11.706  -4.412   0.557  0.00  0.00    -0.352 N 
ATOM     21  H   LIG    1       12.462  -4.219   1.134  0.00  0.00    +0.166 HD
ATOM     22  C   LIG    1       10.508  -4.730   0.964  0.00  0.00    +0.173 A 
ENDBRANCH  16  17
ENDBRANCH  15  16
ENDBRANCH  14  15
ENDBRANCH   2  14
TORSDOF 5
