REMARK  Name = ZINC02518296
REMARK                            x       y       z     vdW  Elec       q    Type
REMARK                         _______ _______ _______ _____ _____    ______ ____
ROOT
ATOM      1  C   LIG    1        0.541  -2.930   4.605  0.00  0.00    +0.177 A 
ATOM      2  N   LIG    1        0.019  -2.612   5.763  0.00  0.00    -0.327 N 
ATOM      3  H   LIG    1       -0.168  -1.708   6.062  0.00  0.00    +0.169 HD
ATOM      4  C   LIG    1       -0.220  -3.740   6.482  0.00  0.00    +0.065 A 
ATOM      5  C   LIG    1       -0.754  -3.975   7.751  0.00  0.00    +0.028 A 
ATOM      6  C   LIG    1       -0.872  -5.266   8.216  0.00  0.00    +0.002 A 
ATOM      7  C   LIG    1       -0.464  -6.335   7.433  0.00  0.00    +0.002 A 
ATOM      8  C   LIG    1        0.066  -6.121   6.177  0.00  0.00    +0.028 A 
ATOM      9  C   LIG    1        0.191  -4.827   5.693  0.00  0.00    +0.068 A 
ATOM     10  N   LIG    1        0.664  -4.287   4.508  0.00  0.00    -0.309 N 
ENDROOT
BRANCH   1  14
ATOM     11  C   LIG    1        1.175   0.476   2.342  0.00  0.00    -0.069 C 
ATOM     12  C   LIG    1        2.002   0.150   3.588  0.00  0.00    +0.003 C 
ATOM     13  C   LIG    1        2.215  -1.365   3.672  0.00  0.00    +0.106 C 
ATOM     14  N   LIG    1        0.906  -2.030   3.626  0.00  0.00    -0.303 N 
ATOM     15  C   LIG    1       -0.006  -1.718   2.518  0.00  0.00    +0.106 C 
ATOM     16  C   LIG    1       -0.195  -0.200   2.446  0.00  0.00    +0.003 C 
BRANCH  11  18
ATOM     17  C   LIG    1        2.301   2.569   2.020  0.00  0.00    -0.100 C 
ATOM     18  N   LIG    1        0.997   1.930   2.240  0.00  0.00    +0.379 N 
ATOM     19  H   LIG    1        0.384   2.141   1.466  0.00  0.00    -0.086 HD
ATOM     20  H   LIG    1        0.591   2.280   3.095  0.00  0.00    -0.086 HD
ENDBRANCH  11  18
ENDBRANCH   1  14
BRANCH  10  21
ATOM     21  C   LIG    1        1.198  -5.032   3.366  0.00  0.00    +0.160 C 
BRANCH  21  22
ATOM     22  C   LIG    1        2.657  -5.330   3.598  0.00  0.00    -0.027 A 
ATOM     23  C   LIG    1        3.617  -4.402   3.241  0.00  0.00    +0.008 A 
ATOM     24  C   LIG    1        4.955  -4.675   3.454  0.00  0.00    +0.038 A 
ATOM     25  C   LIG    1        5.334  -5.877   4.026  0.00  0.00    +0.123 A 
ATOM     26  F   LIG    1        6.641  -6.145   4.234  0.00  0.00    -0.205 F 
ATOM     27  C   LIG    1        4.371  -6.806   4.384  0.00  0.00    +0.038 A 
ATOM     28  C   LIG    1        3.033  -6.529   4.174  0.00  0.00    +0.008 A 
ENDBRANCH  21  22
ENDBRANCH  10  21
TORSDOF 4
