REMARK  Name = ZINC02654726
REMARK                            x       y       z     vdW  Elec       q    Type
REMARK                         _______ _______ _______ _____ _____    ______ ____
ROOT
ATOM      1  C   LIG    1       -0.017   5.552  -0.303  0.00  0.00    -0.048 C 
ENDROOT
BRANCH   1   2
ATOM      2  N   LIG    1        0.178   4.126  -0.627  0.00  0.00    +0.383 N 
ATOM      3  H   LIG    1       -0.731   3.649  -0.618  0.00  0.00    -0.086 HD
ATOM      4  H   LIG    1        0.598   4.045  -1.561  0.00  0.00    -0.086 HD
BRANCH   2   5
ATOM      5  C   LIG    1        1.070   3.493   0.363  0.00  0.00    -0.034 C 
BRANCH   5   6
ATOM      6  C   LIG    1        1.254   2.018   0.001  0.00  0.00    +0.194 C 
ATOM      7  C   LIG    1        2.156   1.338   1.040  0.00  0.00    +0.271 C 
ATOM      8  O   LIG    1        2.296  -0.040   0.679  0.00  0.00    -0.485 OA
ATOM      9  C   LIG    1        1.156  -0.702   0.339  0.00  0.00    +0.162 A 
ATOM     10  C   LIG    1        1.151  -2.089   0.328  0.00  0.00    +0.049 A 
ATOM     11  C   LIG    1        0.003  -2.775  -0.018  0.00  0.00    +0.004 A 
ATOM     12  C   LIG    1       -1.144  -2.081  -0.356  0.00  0.00    +0.004 A 
ATOM     13  C   LIG    1       -1.147  -0.699  -0.346  0.00  0.00    +0.049 A 
ATOM     14  C   LIG    1        0.002  -0.004   0.002  0.00  0.00    +0.162 A 
ATOM     15  O   LIG    1       -0.016   1.357   0.009  0.00  0.00    -0.484 OA
ENDBRANCH   5   6
ENDBRANCH   2   5
ENDBRANCH   1   2
BRANCH   1  16
ATOM     16  C   LIG    1       -0.944   6.181  -1.345  0.00  0.00    +0.123 C 
BRANCH  16  17
ATOM     17  O   LIG    1       -2.240   5.586  -1.249  0.00  0.00    -0.391 OA
ATOM     18  H   LIG    1       -2.662   5.699  -0.386  0.00  0.00    +0.210 HD
ENDBRANCH  16  17
BRANCH  16  19
ATOM     19  C   LIG    1       -1.053   7.685  -1.089  0.00  0.00    +0.189 C 
BRANCH  19  20
ATOM     20  O   LIG    1       -1.824   8.290  -2.128  0.00  0.00    -0.373 OA
BRANCH  20  21
ATOM     21  C   LIG    1       -1.987   9.703  -1.984  0.00  0.00    +0.196 C 
BRANCH  21  27
ATOM     22  C   LIG    1       -4.031   9.857  -5.154  0.00  0.00    +0.000 A 
ATOM     23  C   LIG    1       -4.324  11.206  -5.230  0.00  0.00    +0.001 A 
ATOM     24  C   LIG    1       -3.860  12.069  -4.255  0.00  0.00    +0.020 A 
ATOM     25  C   LIG    1       -3.103  11.583  -3.204  0.00  0.00    +0.046 A 
ATOM     26 CL   LIG    1       -2.520  12.667  -1.980  0.00  0.00    -0.083 Cl
ATOM     27  C   LIG    1       -2.812  10.233  -3.129  0.00  0.00    -0.004 A 
ATOM     28  C   LIG    1       -3.272   9.371  -4.107  0.00  0.00    +0.007 A 
ENDBRANCH  21  27
ENDBRANCH  20  21
ENDBRANCH  19  20
ENDBRANCH  16  19
ENDBRANCH   1  16
TORSDOF 9
