REMARK  Name = ZINC02562310
REMARK                            x       y       z     vdW  Elec       q    Type
REMARK                         _______ _______ _______ _____ _____    ______ ____
ROOT
ATOM      1  C   LIG    1        3.693   6.120  -0.244  0.00  0.00    +0.049 C 
ATOM      2  C   LIG    1        2.398   5.361  -0.112  0.00  0.00    +0.014 C 
ATOM      3  C   LIG    1        1.237   6.049   0.019  0.00  0.00    +0.062 C 
ATOM      4  C   LIG    1       -0.055   5.329   0.152  0.00  0.00    +0.200 C 
ATOM      5  C   LIG    1       -0.055   3.850   0.139  0.00  0.00    +0.034 A 
ATOM      6  C   LIG    1       -1.238   3.131   0.261  0.00  0.00    +0.012 A 
ATOM      7  C   LIG    1       -1.204   1.746   0.240  0.00  0.00    +0.001 A 
ATOM      8  C   LIG    1       -0.002   1.078   0.111  0.00  0.00    +0.001 A 
ATOM      9  C   LIG    1        1.186   1.782  -0.012  0.00  0.00    +0.012 A 
ATOM     10  C   LIG    1        1.169   3.171   0.002  0.00  0.00    +0.033 A 
ATOM     11  O   LIG    1       -1.095   5.945   0.270  0.00  0.00    -0.286 OA
ATOM     12  C   LIG    1        2.423   3.947  -0.127  0.00  0.00    +0.191 C 
ATOM     13  O   LIG    1        3.484   3.363  -0.246  0.00  0.00    -0.287 OA
ENDROOT
BRANCH   3  14
ATOM     14  S   LIG    1        1.262   7.811   0.032  0.00  0.00    -0.121 S 
BRANCH  14  15
ATOM     15  C   LIG    1        0.366   8.149  -1.504  0.00  0.00    +0.085 C 
BRANCH  15  16
ATOM     16  C   LIG    1        0.371   9.655  -1.776  0.00  0.00    +0.131 C 
BRANCH  16  17
ATOM     17  C   LIG    1       -0.376   9.937  -3.055  0.00  0.00    +0.305 C 
ATOM     18  O   LIG    1       -0.862   9.026  -3.683  0.00  0.00    -0.251 OA
BRANCH  17  19
ATOM     19  O   LIG    1       -0.500  11.198  -3.495  0.00  0.00    -0.481 OA
ATOM     20  H   LIG    1       -0.123  11.904  -3.007  0.00  0.00    +0.295 HD
ENDBRANCH  17  19
ENDBRANCH  16  17
ENDBRANCH  15  16
ENDBRANCH  14  15
ENDBRANCH   3  14
TORSDOF 5
