REMARK  Name = ZINC02525885
REMARK                            x       y       z     vdW  Elec       q    Type
REMARK                         _______ _______ _______ _____ _____    ______ ____
ROOT
ATOM      1  C   LIG    1        2.225   1.286  -0.055  0.00  0.00    +0.034 C 
ENDROOT
BRANCH   1   2
ATOM      2  C   LIG    1        2.818   1.744  -1.389  0.00  0.00    +0.071 C 
ATOM      3  C   LIG    1        3.399   3.151  -1.233  0.00  0.00    +0.035 C 
ATOM      4  C   LIG    1        3.992   3.609  -2.567  0.00  0.00    +0.003 C 
ATOM      5  C   LIG    1        2.895   3.625  -3.633  0.00  0.00    +0.000 C 
ATOM      6  C   LIG    1        2.315   2.218  -3.790  0.00  0.00    +0.003 C 
ATOM      7  C   LIG    1        1.722   1.760  -2.456  0.00  0.00    +0.035 C 
BRANCH   2   8
ATOM      8  O   LIG    1        3.854   0.842  -1.784  0.00  0.00    -0.388 OA
ATOM      9  H   LIG    1        4.276   1.072  -2.624  0.00  0.00    +0.210 HD
ENDBRANCH   2   8
ENDBRANCH   1   2
BRANCH   1  10
ATOM     10  C   LIG    1        1.130   2.234   0.360  0.00  0.00    -0.043 A 
ATOM     11  C   LIG    1       -0.194   1.864   0.219  0.00  0.00    +0.007 A 
ATOM     12  C   LIG    1       -1.200   2.734   0.594  0.00  0.00    +0.045 A 
ATOM     13  C   LIG    1       -0.879   3.976   1.122  0.00  0.00    +0.117 A 
ATOM     14  C   LIG    1        0.451   4.345   1.263  0.00  0.00    +0.045 A 
ATOM     15  C   LIG    1        1.452   3.474   0.882  0.00  0.00    +0.007 A 
BRANCH  13  16
ATOM     16  O   LIG    1       -1.867   4.832   1.496  0.00  0.00    -0.507 OA
ATOM     17  H   LIG    1       -2.162   5.424   0.791  0.00  0.00    +0.292 HD
ENDBRANCH  13  16
ENDBRANCH   1  10
BRANCH   1  18
ATOM     18  C   LIG    1        3.321   1.273   1.013  0.00  0.00    -0.069 C 
BRANCH  18  20
ATOM     19  C   LIG    1        2.591  -0.684   2.237  0.00  0.00    -0.097 C 
ATOM     20  N   LIG    1        2.740   0.786   2.281  0.00  0.00    +0.376 N 
ATOM     21  H   LIG    1        1.814   1.211   2.409  0.00  0.00    -0.083 HD
ATOM     22  C   LIG    1        3.607   1.172   3.415  0.00  0.00    -0.097 C 
ENDBRANCH  18  20
ENDBRANCH   1  18
TORSDOF 6
