REMARK  Name = ZINC03044941
REMARK                            x       y       z     vdW  Elec       q    Type
REMARK                         _______ _______ _______ _____ _____    ______ ____
ROOT
ATOM      1  C   LIG    1        1.104  -5.984  -1.887  0.00  0.00    +0.072 A 
ATOM      2  C   LIG    1        1.772  -6.496  -3.010  0.00  0.00    +0.042 A 
ATOM      3  C   LIG    1        1.873  -7.870  -3.175  0.00  0.00    +0.048 A 
ATOM      4  C   LIG    1        1.265  -8.716  -2.148  0.00  0.00    +0.013 A 
ATOM      5  C   LIG    1        1.316 -10.112  -2.227  0.00  0.00    +0.011 A 
ATOM      6  C   LIG    1        0.737 -10.864  -1.247  0.00  0.00    +0.001 A 
ATOM      7  C   LIG    1        0.096 -10.259  -0.168  0.00  0.00    +0.002 A 
ATOM      8  C   LIG    1        0.028  -8.904  -0.061  0.00  0.00    +0.028 A 
ATOM      9  C   LIG    1        0.614  -8.095  -1.053  0.00  0.00    +0.072 A 
ATOM     10  N   LIG    1        0.569  -6.764  -0.971  0.00  0.00    -0.247 NA
ENDROOT
BRANCH   3  11
ATOM     11  C   LIG    1        2.567  -8.456  -4.343  0.00  0.00    +0.247 C 
ATOM     12  N   LIG    1        3.832  -8.089  -4.629  0.00  0.00    -0.295 N 
ATOM     13  C   LIG    1        4.580  -7.212  -3.718  0.00  0.00    +0.127 C 
ATOM     14  C   LIG    1        5.893  -7.907  -3.337  0.00  0.00    +0.125 C 
ATOM     15  N   LIG    1        6.549  -8.378  -4.565  0.00  0.00    -0.312 N 
ATOM     16  C   LIG    1        5.800  -9.255  -5.476  0.00  0.00    +0.125 C 
ATOM     17  C   LIG    1        4.489  -8.564  -5.854  0.00  0.00    +0.127 C 
ATOM     18  O   LIG    1        1.996  -9.268  -5.045  0.00  0.00    -0.270 OA
BRANCH  15  19
ATOM     19  C   LIG    1        7.854  -8.000  -4.860  0.00  0.00    +0.121 A 
ATOM     20  C   LIG    1        8.618  -7.351  -3.896  0.00  0.00    +0.043 A 
ATOM     21  C   LIG    1        9.915  -6.980  -4.203  0.00  0.00    +0.005 A 
ATOM     22  C   LIG    1       10.405  -7.272  -5.469  0.00  0.00    +0.020 A 
ATOM     23  C   LIG    1        9.591  -7.918  -6.377  0.00  0.00    +0.113 A 
ATOM     24  N   LIG    1        8.359  -8.265  -6.055  0.00  0.00    -0.240 NA
ENDBRANCH  15  19
ENDBRANCH   3  11
BRANCH   1  28
ATOM     25  C   LIG    1        0.817  -1.768  -1.415  0.00  0.00    +0.121 A 
ATOM     26  C   LIG    1        0.259  -2.612  -0.463  0.00  0.00    +0.046 A 
ATOM     27  C   LIG    1        0.351  -3.979  -0.613  0.00  0.00    +0.013 A 
ATOM     28  C   LIG    1        1.004  -4.515  -1.722  0.00  0.00    +0.001 A 
ATOM     29  C   LIG    1        1.562  -3.665  -2.677  0.00  0.00    +0.013 A 
ATOM     30  C   LIG    1        1.463  -2.299  -2.524  0.00  0.00    +0.046 A 
BRANCH  25  31
ATOM     31  O   LIG    1        0.725  -0.421  -1.264  0.00  0.00    -0.492 OA
BRANCH  31  33
ATOM     32  C   LIG    1        0.043   1.586  -0.105  0.00  0.00    +0.048 C 
ATOM     33  C   LIG    1        0.046   0.056  -0.101  0.00  0.00    +0.225 C 
ENDBRANCH  31  33
ENDBRANCH  25  31
ENDBRANCH   1  28
TORSDOF 5
