REMARK  Name = ZINC02921281
REMARK                            x       y       z     vdW  Elec       q    Type
REMARK                         _______ _______ _______ _____ _____    ______ ____
ROOT
ATOM      1  C   LIG    1        1.092   2.310   0.004  0.00  0.00    +0.072 A 
ATOM      2  C   LIG    1       -0.018   1.476   0.010  0.00  0.00    +0.072 A 
ATOM      3  N   LIG    1       -1.112   2.252   0.019  0.00  0.00    -0.339 N 
ATOM      4  H   LIG    1       -2.080   1.911   0.019  0.00  0.00    +0.167 HD
ATOM      5  C   LIG    1       -0.754   3.517   0.027  0.00  0.00    +0.117 A 
ATOM      6  N   LIG    1        0.610   3.597   0.015  0.00  0.00    -0.339 N 
ATOM      7  H   LIG    1        1.155   4.435   0.014  0.00  0.00    +0.167 HD
ENDROOT
BRANCH   1  11
ATOM      8  C   LIG    1        5.169   1.120  -0.037  0.00  0.00    -0.018 A 
ATOM      9  C   LIG    1        4.732   2.140  -0.884  0.00  0.00    +0.009 A 
ATOM     10  C   LIG    1        3.411   2.527  -0.872  0.00  0.00    +0.010 A 
ATOM     11  C   LIG    1        2.507   1.897  -0.011  0.00  0.00    +0.000 A 
ATOM     12  C   LIG    1        2.948   0.879   0.841  0.00  0.00    +0.010 A 
ATOM     13  C   LIG    1        4.268   0.492   0.823  0.00  0.00    +0.009 A 
BRANCH   8  17
ATOM     14  C   LIG    1        9.250  -0.071  -0.080  0.00  0.00    +0.000 A 
ATOM     15  C   LIG    1        8.358  -0.696   0.774  0.00  0.00    +0.001 A 
ATOM     16  C   LIG    1        7.033  -0.313   0.792  0.00  0.00    +0.008 A 
ATOM     17  C   LIG    1        6.592   0.705  -0.052  0.00  0.00    -0.018 A 
ATOM     18  C   LIG    1        7.494   1.327  -0.914  0.00  0.00    +0.008 A 
ATOM     19  C   LIG    1        8.818   0.940  -0.920  0.00  0.00    +0.001 A 
ENDBRANCH   8  17
ENDBRANCH   1  11
BRANCH   5  20
ATOM     20  C   LIG    1       -1.679   4.668   0.041  0.00  0.00    +0.015 A 
ATOM     21  C   LIG    1       -1.173   5.971   0.048  0.00  0.00    +0.012 A 
ATOM     22  C   LIG    1       -2.031   7.040   0.056  0.00  0.00    +0.015 A 
ATOM     23  C   LIG    1       -3.413   6.826   0.067  0.00  0.00    +0.059 A 
ATOM     24  C   LIG    1       -3.919   5.523   0.066  0.00  0.00    +0.015 A 
ATOM     25  C   LIG    1       -3.060   4.454   0.052  0.00  0.00    +0.012 A 
BRANCH  23  26
ATOM     26  C   LIG    1       -4.338   7.977   0.082  0.00  0.00    +0.337 C 
ATOM     27  O   LIG    1       -5.538   7.791   0.092  0.00  0.00    -0.245 OA
BRANCH  26  28
ATOM     28  O   LIG    1       -3.850   9.233   0.083  0.00  0.00    -0.477 OA
ATOM     29  H   LIG    1       -2.924   9.376   0.075  0.00  0.00    +0.295 HD
ENDBRANCH  26  28
ENDBRANCH  23  26
ENDBRANCH   5  20
BRANCH   2  30
ATOM     30  C   LIG    1        0.002  -0.004   0.002  0.00  0.00    +0.000 A 
ATOM     31  C   LIG    1        0.992  -0.685  -0.709  0.00  0.00    +0.010 A 
ATOM     32  C   LIG    1        1.012  -2.062  -0.713  0.00  0.00    +0.009 A 
ATOM     33  C   LIG    1        0.039  -2.776  -0.014  0.00  0.00    -0.018 A 
ATOM     34  C   LIG    1       -0.953  -2.096   0.693  0.00  0.00    +0.009 A 
ATOM     35  C   LIG    1       -0.972  -0.719   0.701  0.00  0.00    +0.010 A 
BRANCH  33  36
ATOM     36  C   LIG    1        0.059  -4.259  -0.022  0.00  0.00    -0.018 A 
ATOM     37  C   LIG    1       -0.909  -4.976   0.680  0.00  0.00    +0.008 A 
ATOM     38  C   LIG    1       -0.888  -6.355   0.664  0.00  0.00    +0.001 A 
ATOM     39  C   LIG    1        0.097  -7.027  -0.037  0.00  0.00    +0.000 A 
ATOM     40  C   LIG    1        1.063  -6.321  -0.731  0.00  0.00    +0.001 A 
ATOM     41  C   LIG    1        1.049  -4.941  -0.727  0.00  0.00    +0.008 A 
ENDBRANCH  33  36
ENDBRANCH   2  30
TORSDOF 7
