REMARK  Name = ZINC03146695
REMARK                            x       y       z     vdW  Elec       q    Type
REMARK                         _______ _______ _______ _____ _____    ______ ____
ROOT
ATOM      1  C   LIG    1        2.336  -5.038  -3.381  0.00  0.00    +0.116 A 
ATOM      2  C   LIG    1        2.266  -6.235  -4.026  0.00  0.00    +0.031 A 
ATOM      3  C   LIG    1        1.443  -7.255  -3.559  0.00  0.00    +0.026 A 
ATOM      4  C   LIG    1        0.676  -7.080  -2.427  0.00  0.00    +0.042 A 
ATOM      5  C   LIG    1        0.729  -5.849  -1.738  0.00  0.00    +0.005 A 
ATOM      6  C   LIG    1       -0.036  -5.628  -0.582  0.00  0.00    +0.010 A 
ATOM      7  C   LIG    1        0.052  -4.434   0.066  0.00  0.00    +0.001 A 
ATOM      8  C   LIG    1        0.879  -3.419  -0.411  0.00  0.00    +0.001 A 
ATOM      9  C   LIG    1        1.631  -3.596  -1.531  0.00  0.00    +0.010 A 
ATOM     10  C   LIG    1        1.574  -4.820  -2.221  0.00  0.00    +0.010 A 
ENDROOT
BRANCH   4  11
ATOM     11  N   LIG    1       -0.146  -8.109  -1.968  0.00  0.00    -0.281 N 
ATOM     12  H   LIG    1       -0.924  -7.903  -1.426  0.00  0.00    +0.155 HD
ATOM     13  C   LIG    1        0.141  -9.389  -2.276  0.00  0.00    +0.248 C 
ATOM     14  O   LIG    1        1.168  -9.656  -2.869  0.00  0.00    -0.270 OA
BRANCH  13  15
ATOM     15  C   LIG    1       -0.793 -10.469  -1.893  0.00  0.00    +0.037 A 
ATOM     16  C   LIG    1       -1.976 -10.165  -1.217  0.00  0.00    +0.013 A 
ATOM     17  C   LIG    1       -2.844 -11.178  -0.863  0.00  0.00    +0.001 A 
ATOM     18  C   LIG    1       -2.544 -12.491  -1.176  0.00  0.00    +0.000 A 
ATOM     19  C   LIG    1       -1.373 -12.799  -1.846  0.00  0.00    +0.001 A 
ATOM     20  C   LIG    1       -0.499 -11.796  -2.211  0.00  0.00    +0.013 A 
ENDBRANCH  13  15
ENDBRANCH   4  11
BRANCH   1  21
ATOM     21  S   LIG    1        3.388  -3.765  -3.997  0.00  0.00    +0.073 S 
ATOM     22  O   LIG    1        4.168  -3.315  -2.898  0.00  0.00    -0.150 OA
ATOM     23  O   LIG    1        3.972  -4.264  -5.192  0.00  0.00    -0.150 OA
BRANCH  21  24
ATOM     24  N   LIG    1        2.417  -2.498  -4.438  0.00  0.00    -0.216 N 
ATOM     25  H   LIG    1        2.518  -1.636  -4.005  0.00  0.00    +0.174 HD
BRANCH  24  29
ATOM     26  C   LIG    1       -0.462  -3.013  -7.408  0.00  0.00    +0.120 A 
ATOM     27  C   LIG    1       -0.792  -2.364  -6.228  0.00  0.00    +0.047 A 
ATOM     28  C   LIG    1        0.161  -2.193  -5.243  0.00  0.00    +0.028 A 
ATOM     29  C   LIG    1        1.450  -2.671  -5.435  0.00  0.00    +0.048 A 
ATOM     30  C   LIG    1        1.780  -3.321  -6.616  0.00  0.00    +0.028 A 
ATOM     31  C   LIG    1        0.824  -3.497  -7.598  0.00  0.00    +0.047 A 
BRANCH  26  33
ATOM     32  C   LIG    1       -2.705  -2.658  -8.114  0.00  0.00    +0.277 C 
ATOM     33  O   LIG    1       -1.402  -3.181  -8.377  0.00  0.00    -0.495 OA
ENDBRANCH  26  33
ENDBRANCH  24  29
ENDBRANCH  21  24
ENDBRANCH   1  21
TORSDOF 6
