REMARK  Name = ZINC03632416
REMARK                            x       y       z     vdW  Elec       q    Type
REMARK                         _______ _______ _______ _____ _____    ______ ____
ROOT
ATOM      1  C   LIG    1        2.374  -1.454  -0.028  0.00  0.00    +0.256 C 
ATOM      2  C   LIG    1        3.760  -0.862  -0.038  0.00  0.00    +0.045 A 
ATOM      3  C   LIG    1        5.018  -1.423  -0.054  0.00  0.00    +0.011 A 
ATOM      4  C   LIG    1        6.137  -0.608  -0.061  0.00  0.00    +0.001 A 
ATOM      5  C   LIG    1        5.997   0.769  -0.052  0.00  0.00    +0.001 A 
ATOM      6  C   LIG    1        4.740   1.339  -0.037  0.00  0.00    +0.016 A 
ATOM      7  C   LIG    1        3.610   0.522  -0.030  0.00  0.00    +0.071 A 
ATOM      8  C   LIG    1        2.157   0.849  -0.014  0.00  0.00    +0.276 C 
ATOM      9  N   LIG    1        1.401   1.919  -0.001  0.00  0.00    -0.271 N 
ATOM     10  H   LIG    1        1.749   2.885   0.001  0.00  0.00    +0.304 HD
ATOM     11  C   LIG    1       -0.019   1.536   0.011  0.00  0.00    +0.277 C 
ATOM     12  C   LIG    1        0.002  -0.004   0.002  0.00  0.00    +0.274 C 
ATOM     13  N   LIG    1        1.440  -0.321  -0.013  0.00  0.00    -0.183 N 
ENDROOT
BRANCH   1  17
ATOM     14  C   LIG    1        1.761  -3.812  -3.537  0.00  0.00    +0.000 A 
ATOM     15  C   LIG    1        2.217  -4.407  -2.375  0.00  0.00    +0.000 A 
ATOM     16  C   LIG    1        2.415  -3.644  -1.240  0.00  0.00    +0.011 A 
ATOM     17  C   LIG    1        2.158  -2.286  -1.266  0.00  0.00    +0.031 A 
ATOM     18  C   LIG    1        1.697  -1.692  -2.426  0.00  0.00    +0.011 A 
ATOM     19  C   LIG    1        1.503  -2.455  -3.563  0.00  0.00    +0.000 A 
ENDBRANCH   1  17
BRANCH   1  20
ATOM     20  O   LIG    1        2.191  -2.256   1.140  0.00  0.00    -0.346 OA
ATOM     21  H   LIG    1        2.780  -3.021   1.188  0.00  0.00    +0.215 HD
ENDBRANCH   1  20
TORSDOF 2
