REMARK  Name = ZINC02880813
REMARK                            x       y       z     vdW  Elec       q    Type
REMARK                         _______ _______ _______ _____ _____    ______ ____
ROOT
ATOM      1  C   LIG    1        2.381  -5.800   1.147  0.00  0.00    +0.128 A 
ATOM      2  C   LIG    1        1.767  -6.660   2.044  0.00  0.00    +0.046 A 
ATOM      3  C   LIG    1        1.889  -8.028   1.887  0.00  0.00    +0.004 A 
ATOM      4  C   LIG    1        2.623  -8.546   0.835  0.00  0.00    +0.001 A 
ATOM      5  C   LIG    1        3.240  -7.702  -0.066  0.00  0.00    +0.012 A 
ATOM      6  C   LIG    1        3.118  -6.322   0.080  0.00  0.00    +0.024 A 
ENDROOT
BRANCH   6   7
ATOM      7  C   LIG    1        3.773  -5.409  -0.888  0.00  0.00    -0.014 A 
ATOM      8  C   LIG    1        3.049  -4.372  -1.473  0.00  0.00    +0.008 A 
ATOM      9  C   LIG    1        3.663  -3.526  -2.373  0.00  0.00    +0.001 A 
ATOM     10  C   LIG    1        4.997  -3.706  -2.696  0.00  0.00    +0.000 A 
ATOM     11  C   LIG    1        5.721  -4.734  -2.119  0.00  0.00    +0.001 A 
ATOM     12  C   LIG    1        5.118  -5.582  -1.213  0.00  0.00    +0.008 A 
ENDBRANCH   6   7
BRANCH   1  13
ATOM     13  O   LIG    1        2.262  -4.456   1.302  0.00  0.00    -0.493 OA
BRANCH  13  14
ATOM     14  C   LIG    1        1.493  -3.996   2.415  0.00  0.00    +0.210 C 
BRANCH  14  15
ATOM     15  C   LIG    1        1.472  -2.466   2.424  0.00  0.00    -0.041 C 
BRANCH  15  16
ATOM     16  N   LIG    1        0.762  -1.980   1.234  0.00  0.00    +0.383 N 
ATOM     17  H   LIG    1        1.234  -2.305   0.403  0.00  0.00    -0.086 HD
ATOM     18  H   LIG    1       -0.185  -2.329   1.241  0.00  0.00    -0.086 HD
BRANCH  16  19
ATOM     19  C   LIG    1        0.742  -0.511   1.242  0.00  0.00    -0.051 C 
BRANCH  19  21
ATOM     20  C   LIG    1       -0.019   1.526   0.010  0.00  0.00    +0.035 C 
ATOM     21  C   LIG    1        0.002  -0.004   0.002  0.00  0.00    +0.095 C 
BRANCH  21  22
ATOM     22  O   LIG    1        0.671  -0.465  -1.174  0.00  0.00    -0.394 OA
ATOM     23  H   LIG    1        1.588  -0.167  -1.247  0.00  0.00    +0.210 HD
ENDBRANCH  21  22
ENDBRANCH  19  21
ENDBRANCH  16  19
ENDBRANCH  15  16
ENDBRANCH  14  15
ENDBRANCH  13  14
ENDBRANCH   1  13
TORSDOF 8
