REMARK  Name = ZINC03581353
REMARK                            x       y       z     vdW  Elec       q    Type
REMARK                         _______ _______ _______ _____ _____    ______ ____
ROOT
ATOM      1  C   LIG    1       -0.753   1.593  -1.232  0.00  0.00    -0.014 C 
ATOM      2  C   LIG    1       -0.013   1.086   0.008  0.00  0.00    -0.078 C 
ENDROOT
BRANCH   2   3
ATOM      3  N   LIG    1       -0.699   1.585   1.213  0.00  0.00    +0.380 N 
ATOM      4  H   LIG    1       -0.732   2.610   1.182  0.00  0.00    -0.090 HD
ATOM      5  H   LIG    1       -0.195   1.292   2.048  0.00  0.00    -0.090 HD
ATOM      6  H   LIG    1       -1.651   1.223   1.247  0.00  0.00    -0.090 HD
ENDBRANCH   2   3
BRANCH   2   7
ATOM      7  C   LIG    1        1.423   1.615  -0.003  0.00  0.00    -0.005 C 
BRANCH   7   8
ATOM      8  C   LIG    1        2.199   1.009   1.168  0.00  0.00    +0.119 C 
BRANCH   8   9
ATOM      9  C   LIG    1        3.613   1.531   1.157  0.00  0.00    +0.305 C 
ATOM     10  O   LIG    1        3.963   2.308   0.301  0.00  0.00    -0.251 OA
BRANCH   9  11
ATOM     11  O   LIG    1        4.482   1.133   2.099  0.00  0.00    -0.481 OA
ATOM     12  H   LIG    1        4.210   0.530   2.763  0.00  0.00    +0.295 HD
ENDBRANCH   9  11
ENDBRANCH   8   9
ENDBRANCH   7   8
ENDBRANCH   2   7
TORSDOF 5
