REMARK  Name = ZINC03044941
REMARK                            x       y       z     vdW  Elec       q    Type
REMARK                         _______ _______ _______ _____ _____    ______ ____
ROOT
ATOM      1  C   LIG    1        1.093  -5.969  -1.925  0.00  0.00    +0.072 A 
ATOM      2  C   LIG    1        1.765  -6.491  -3.041  0.00  0.00    +0.042 A 
ATOM      3  C   LIG    1        1.868  -7.866  -3.193  0.00  0.00    +0.048 A 
ATOM      4  C   LIG    1        1.256  -8.703  -2.160  0.00  0.00    +0.013 A 
ATOM      5  C   LIG    1        1.309 -10.099  -2.226  0.00  0.00    +0.011 A 
ATOM      6  C   LIG    1        0.727 -10.842  -1.241  0.00  0.00    +0.001 A 
ATOM      7  C   LIG    1        0.081 -10.227  -0.171  0.00  0.00    +0.002 A 
ATOM      8  C   LIG    1        0.012  -8.871  -0.076  0.00  0.00    +0.028 A 
ATOM      9  C   LIG    1        0.601  -8.072  -1.073  0.00  0.00    +0.072 A 
ATOM     10  N   LIG    1        0.554  -6.740  -1.004  0.00  0.00    -0.247 NA
ENDROOT
BRANCH   3  11
ATOM     11  C   LIG    1        2.566  -8.462  -4.353  0.00  0.00    +0.247 C 
ATOM     12  N   LIG    1        3.831  -8.095  -4.639  0.00  0.00    -0.295 N 
ATOM     13  C   LIG    1        4.576  -7.208  -3.733  0.00  0.00    +0.123 C 
ATOM     14  C   LIG    1        5.889  -7.897  -3.343  0.00  0.00    +0.105 C 
ATOM     15  N   LIG    1        6.549  -8.378  -4.565  0.00  0.00    -0.284 NA
ATOM     16  C   LIG    1        5.804  -9.264  -5.471  0.00  0.00    +0.105 C 
ATOM     17  C   LIG    1        4.493  -8.580  -5.858  0.00  0.00    +0.123 C 
ATOM     18  O   LIG    1        1.999  -9.282  -5.047  0.00  0.00    -0.270 OA
BRANCH  15  19
ATOM     19  C   LIG    1        7.854  -8.000  -4.860  0.00  0.00    +0.124 C 
ATOM     20  C   LIG    1        8.585  -7.264  -3.933  0.00  0.00    +0.035 C 
ATOM     21  C   LIG    1        9.882  -6.895  -4.239  0.00  0.00    +0.004 C 
ATOM     22  C   LIG    1       10.406  -7.274  -5.468  0.00  0.00    +0.015 C 
ATOM     23  C   LIG    1        9.624  -8.004  -6.341  0.00  0.00    +0.082 C 
ATOM     24  N   LIG    1        8.391  -8.347  -6.019  0.00  0.00    -0.301 NA
ATOM     25  H   LIG    1        7.864  -8.863  -6.649  0.00  0.00    +0.123 HD
ENDBRANCH  15  19
ENDBRANCH   3  11
BRANCH   1  29
ATOM     26  C   LIG    1        0.801  -1.748  -1.494  0.00  0.00    +0.121 A 
ATOM     27  C   LIG    1        0.240  -2.583  -0.536  0.00  0.00    +0.046 A 
ATOM     28  C   LIG    1        0.333  -3.952  -0.673  0.00  0.00    +0.013 A 
ATOM     29  C   LIG    1        0.991  -4.498  -1.775  0.00  0.00    +0.001 A 
ATOM     30  C   LIG    1        1.552  -3.657  -2.735  0.00  0.00    +0.013 A 
ATOM     31  C   LIG    1        1.452  -2.289  -2.595  0.00  0.00    +0.046 A 
BRANCH  26  32
ATOM     32  O   LIG    1        0.707  -0.400  -1.356  0.00  0.00    -0.492 OA
BRANCH  32  34
ATOM     33  C   LIG    1        0.020   1.618  -0.218  0.00  0.00    +0.048 C 
ATOM     34  C   LIG    1        0.024   0.088  -0.200  0.00  0.00    +0.225 C 
ENDBRANCH  32  34
ENDBRANCH  26  32
ENDBRANCH   1  29
TORSDOF 5
