REMARK  Name = ZINC02546079
REMARK                            x       y       z     vdW  Elec       q    Type
REMARK                         _______ _______ _______ _____ _____    ______ ____
ROOT
ATOM      1  C   LIG    1       -0.019   1.526   0.010  0.00  0.00    -0.008 C 
ATOM      2  C   LIG    1        0.002  -0.004   0.002  0.00  0.00    -0.050 C 
ATOM      3  C   LIG    1        0.717  -0.498  -1.257  0.00  0.00    -0.008 C 
ATOM      4  C   LIG    1       -1.434  -0.534   0.015  0.00  0.00    +0.147 C 
ATOM      5  O   LIG    1       -2.080  -0.116   1.221  0.00  0.00    -0.379 OA
ATOM      6  C   LIG    1       -1.411  -0.546   2.410  0.00  0.00    +0.112 C 
ATOM      7  C   LIG    1        0.025  -0.016   2.401  0.00  0.00    -0.049 C 
ATOM      8  N   LIG    1        0.713  -0.491   1.192  0.00  0.00    +0.386 N 
ATOM      9  H   LIG    1        1.660  -0.143   1.185  0.00  0.00    -0.085 HD
ATOM     10  H   LIG    1        0.725  -1.500   1.187  0.00  0.00    -0.085 HD
ENDROOT
BRANCH   6  11
ATOM     11  C   LIG    1       -2.149  -0.005   3.636  0.00  0.00    +0.150 C 
BRANCH  11  12
ATOM     12  C   LIG    1       -3.523  -0.620   3.707  0.00  0.00    +0.307 C 
ATOM     13  O   LIG    1       -3.879  -1.417   2.856  0.00  0.00    -0.251 OA
BRANCH  12  14
ATOM     14  O   LIG    1       -4.279  -0.320   4.615  0.00  0.00    -0.481 OA
ATOM     15  H   LIG    1       -4.005   0.293   5.269  0.00  0.00    +0.295 HD
ENDBRANCH  12  14
ENDBRANCH  11  12
ENDBRANCH   6  11
TORSDOF 3
