REMARK  Name = ZINC02415873
REMARK                            x       y       z     vdW  Elec       q    Type
REMARK                         _______ _______ _______ _____ _____    ______ ____
ROOT
ATOM      1  C   LIG    1        2.243  -7.500  -0.063  0.00  0.00    +0.066 C 
ATOM      2  C   LIG    1        0.892  -7.658   0.046  0.00  0.00    +0.080 C 
ATOM      3  C   LIG    1       -0.174  -6.640   0.073  0.00  0.00    +0.258 C 
ATOM      4  N   LIG    1       -1.415  -7.083   0.188  0.00  0.00    -0.255 N 
ATOM      5  C   LIG    1       -1.687  -8.401   0.276  0.00  0.00    +0.121 C 
ATOM      6  S   LIG    1       -3.212  -9.165   0.429  0.00  0.00    -0.027 S 
ATOM      7  O   LIG    1        0.075  -5.451  -0.007  0.00  0.00    -0.269 OA
ATOM      8  S   LIG    1       -0.072  -9.157   0.188  0.00  0.00    -0.061 S 
ENDROOT
BRANCH   1  12
ATOM      9  C   LIG    1        2.932  -4.063  -0.721  0.00  0.00    +0.161 A 
ATOM     10  C   LIG    1        4.222  -4.535  -0.605  0.00  0.00    +0.052 A 
ATOM     11  C   LIG    1        4.133  -5.903  -0.340  0.00  0.00    +0.050 A 
ATOM     12  C   LIG    1        2.786  -6.218  -0.303  0.00  0.00    +0.130 A 
ATOM     13  O   LIG    1        2.082  -5.091  -0.530  0.00  0.00    -0.453 OA
BRANCH   9  20
ATOM     14  C   LIG    1       -0.138   1.154  -1.783  0.00  0.00    +0.002 A 
ATOM     15  C   LIG    1        1.022   1.905  -1.914  0.00  0.00    +0.001 A 
ATOM     16  C   LIG    1        2.250   1.284  -1.776  0.00  0.00    +0.017 A 
ATOM     17  C   LIG    1        2.300  -0.063  -1.512  0.00  0.00    +0.040 A 
ATOM     18  C   LIG    1        1.135  -0.856  -1.373  0.00  0.00    +0.079 A 
ATOM     19  N   LIG    1        1.341  -2.155  -1.116  0.00  0.00    -0.236 NA
ATOM     20  C   LIG    1        2.548  -2.673  -0.998  0.00  0.00    +0.144 A 
ATOM     21  S   LIG    1        3.598  -1.250  -1.262  0.00  0.00    -0.064 S 
ATOM     22  C   LIG    1       -0.101  -0.179  -1.522  0.00  0.00    +0.029 A 
ENDBRANCH   9  20
ENDBRANCH   1  12
BRANCH   4  23
ATOM     23  C   LIG    1       -2.519  -6.120   0.220  0.00  0.00    +0.115 C 
BRANCH  23  24
ATOM     24  C   LIG    1       -3.010  -5.859  -1.205  0.00  0.00    +0.030 C 
BRANCH  24  25
ATOM     25  C   LIG    1       -4.162  -4.854  -1.172  0.00  0.00    +0.122 C 
BRANCH  25  26
ATOM     26  C   LIG    1       -4.646  -4.596  -2.576  0.00  0.00    +0.305 C 
ATOM     27  O   LIG    1       -4.117  -5.165  -3.516  0.00  0.00    -0.251 OA
BRANCH  26  28
ATOM     28  O   LIG    1       -5.566  -3.820  -2.771  0.00  0.00    -0.481 OA
ATOM     29  H   LIG    1       -5.972  -3.383  -2.048  0.00  0.00    +0.295 HD
ENDBRANCH  26  28
ENDBRANCH  25  26
ENDBRANCH  24  25
ENDBRANCH  23  24
ENDBRANCH   4  23
TORSDOF 7
