REMARK  Name = ZINC02455203
REMARK                            x       y       z     vdW  Elec       q    Type
REMARK                         _______ _______ _______ _____ _____    ______ ____
ROOT
ATOM      1  C   LIG    1        5.642   2.764   0.551  0.00  0.00    +0.012 A 
ATOM      2  C   LIG    1        4.635   1.898   0.828  0.00  0.00    +0.102 A 
ATOM      3  N   LIG    1        3.585   2.124  -0.021  0.00  0.00    -0.300 N 
ATOM      4  C   LIG    1        3.884   3.147  -0.884  0.00  0.00    +0.150 A 
ATOM      5  N   LIG    1        3.227   3.749  -1.871  0.00  0.00    -0.217 NA
ATOM      6  C   LIG    1        3.782   4.737  -2.540  0.00  0.00    +0.225 A 
ATOM      7  N   LIG    1        4.996   5.184  -2.272  0.00  0.00    -0.223 NA
ATOM      8  C   LIG    1        5.724   4.650  -1.303  0.00  0.00    +0.142 A 
ATOM      9 CL   LIG    1        7.318   5.245  -0.958  0.00  0.00    -0.061 Cl
ATOM     10  C   LIG    1        5.180   3.600  -0.566  0.00  0.00    +0.064 A 
ENDROOT
BRANCH   1  14
ATOM     11  C   LIG    1        9.398   3.007   2.526  0.00  0.00    +0.000 A 
ATOM     12  C   LIG    1        8.230   2.989   3.267  0.00  0.00    +0.001 A 
ATOM     13  C   LIG    1        7.008   2.911   2.631  0.00  0.00    +0.008 A 
ATOM     14  C   LIG    1        6.952   2.849   1.240  0.00  0.00    -0.016 A 
ATOM     15  C   LIG    1        8.132   2.861   0.498  0.00  0.00    +0.008 A 
ATOM     16  C   LIG    1        9.349   2.946   1.144  0.00  0.00    +0.001 A 
ENDBRANCH   1  14
BRANCH   3  17
ATOM     17  C   LIG    1        2.381   1.409  -0.013  0.00  0.00    +0.048 A 
ATOM     18  C   LIG    1        1.169   2.087   0.002  0.00  0.00    +0.026 A 
ATOM     19  C   LIG    1       -0.017   1.379   0.010  0.00  0.00    +0.002 A 
ATOM     20  C   LIG    1        0.002  -0.004   0.002  0.00  0.00    +0.000 A 
ATOM     21  C   LIG    1        1.207  -0.682  -0.013  0.00  0.00    +0.002 A 
ATOM     22  C   LIG    1        2.396   0.021  -0.021  0.00  0.00    +0.026 A 
ENDBRANCH   3  17
TORSDOF 2
