REMARK  Name = ZINC02539058
REMARK                            x       y       z     vdW  Elec       q    Type
REMARK                         _______ _______ _______ _____ _____    ______ ____
ROOT
ATOM      1  C   LIG    1        3.815   2.345   0.922  0.00  0.00    -0.024 A 
ATOM      2  C   LIG    1        3.249   3.541   1.147  0.00  0.00    +0.087 A 
ATOM      3  N   LIG    1        1.932   3.379   1.482  0.00  0.00    -0.360 N 
ATOM      4  C   LIG    1        1.611   2.038   1.480  0.00  0.00    +0.047 A 
ATOM      5  C   LIG    1        0.439   1.337   1.743  0.00  0.00    +0.030 A 
ATOM      6  C   LIG    1        0.426  -0.038   1.659  0.00  0.00    +0.047 A 
ATOM      7  C   LIG    1        1.578  -0.739   1.313  0.00  0.00    +0.121 A 
ATOM      8  C   LIG    1        2.752  -0.061   1.048  0.00  0.00    +0.056 A 
ATOM      9  H   LIG    1        1.317   4.099   1.689  0.00  0.00    +0.165 HD
ATOM     10  C   LIG    1        2.777   1.333   1.130  0.00  0.00    +0.006 A 
ENDROOT
BRANCH   7  11
ATOM     11  O   LIG    1        1.548  -2.096   1.234  0.00  0.00    -0.495 OA
ATOM     12  C   LIG    1        0.301  -2.734   1.520  0.00  0.00    +0.277 C 
ENDBRANCH   7  11
BRANCH   1  13
ATOM     13  C   LIG    1        5.248   2.091   0.530  0.00  0.00    +0.019 C 
BRANCH  13  14
ATOM     14  C   LIG    1        5.346   1.970  -0.992  0.00  0.00    -0.074 C 
BRANCH  14  15
ATOM     15  N   LIG    1        6.753   1.701  -1.359  0.00  0.00    +0.380 N 
ATOM     16  H   LIG    1        7.094   0.904  -0.809  0.00  0.00    -0.082 HD
BRANCH  15  17
ATOM     17  C   LIG    1        6.845   1.367  -2.796  0.00  0.00    -0.079 C 
BRANCH  17  19
ATOM     18  C   LIG    1        6.599  -0.489  -4.451  0.00  0.00    +0.002 C 
ATOM     19  C   LIG    1        6.378  -0.077  -2.994  0.00  0.00    -0.022 C 
ENDBRANCH  17  19
ENDBRANCH  15  17
BRANCH  15  20
ATOM     20  C   LIG    1        7.588   2.883  -1.061  0.00  0.00    -0.079 C 
BRANCH  20  21
ATOM     21  C   LIG    1        9.059   2.465  -1.091  0.00  0.00    -0.022 C 
ATOM     22  C   LIG    1        9.940   3.678  -0.783  0.00  0.00    +0.002 C 
ENDBRANCH  20  21
ENDBRANCH  15  20
ENDBRANCH  14  15
ENDBRANCH  13  14
ENDBRANCH   1  13
TORSDOF 8
