REMARK  Name = ZINC02864099
REMARK                            x       y       z     vdW  Elec       q    Type
REMARK                         _______ _______ _______ _____ _____    ______ ____
ROOT
ATOM      1  C   LIG    1        4.365  -2.303   3.652  0.00  0.00    +0.052 C 
ENDROOT
BRANCH   1   2
ATOM      2  C   LIG    1        3.532  -3.192   4.540  0.00  0.00    -0.046 A 
ATOM      3  C   LIG    1        2.708  -2.633   5.499  0.00  0.00    +0.005 A 
ATOM      4  C   LIG    1        1.944  -3.448   6.313  0.00  0.00    +0.029 A 
ATOM      5  C   LIG    1        2.002  -4.821   6.167  0.00  0.00    +0.105 A 
ATOM      6  C   LIG    1        2.825  -5.380   5.207  0.00  0.00    +0.029 A 
ATOM      7  C   LIG    1        3.587  -4.565   4.390  0.00  0.00    +0.005 A 
BRANCH   5   8
ATOM      8  S   LIG    1        1.028  -5.860   7.205  0.00  0.00    +0.056 S 
ATOM      9  O   LIG    1        0.758  -5.115   8.385  0.00  0.00    -0.153 OA
ATOM     10  O   LIG    1        1.674  -7.125   7.234  0.00  0.00    -0.153 OA
BRANCH   8  11
ATOM     11  N   LIG    1       -0.425  -6.087   6.445  0.00  0.00    -0.204 NA
ATOM     12  H   LIG    1       -1.109  -6.637   6.860  0.00  0.00    +0.144 HD
ATOM     13  H   LIG    1       -0.593  -5.672   5.585  0.00  0.00    +0.144 HD
ENDBRANCH   8  11
ENDBRANCH   5   8
ENDBRANCH   1   2
BRANCH   1  14
ATOM     14  C   LIG    1        3.567  -1.942   2.398  0.00  0.00    +0.110 C 
BRANCH  14  15
ATOM     15  N   LIG    1        4.378  -1.079   1.536  0.00  0.00    -0.190 NA
ATOM     16  H   LIG    1        5.174  -0.651   1.888  0.00  0.00    +0.148 HD
BRANCH  15  17
ATOM     17  S   LIG    1        3.934  -0.832  -0.041  0.00  0.00    +0.058 S 
ATOM     18  O   LIG    1        4.890   0.060  -0.597  0.00  0.00    -0.153 OA
ATOM     19  O   LIG    1        3.674  -2.114  -0.595  0.00  0.00    -0.153 OA
BRANCH  17  23
ATOM     20  C   LIG    1       -0.017   1.378   0.010  0.00  0.00    +0.000 A 
ATOM     21  C   LIG    1        1.171   2.086   0.002  0.00  0.00    +0.002 A 
ATOM     22  C   LIG    1        2.377   1.411  -0.013  0.00  0.00    +0.028 A 
ATOM     23  C   LIG    1        2.396   0.029  -0.020  0.00  0.00    +0.105 A 
ATOM     24  C   LIG    1        1.208  -0.679  -0.012  0.00  0.00    +0.028 A 
ATOM     25  C   LIG    1        0.002  -0.004   0.002  0.00  0.00    +0.002 A 
ENDBRANCH  17  23
ENDBRANCH  15  17
ENDBRANCH  14  15
ENDBRANCH   1  14
TORSDOF 7
