REMARK  Name = ZINC00004439
REMARK                            x       y       z     vdW  Elec       q    Type
REMARK                         _______ _______ _______ _____ _____    ______ ____
ROOT
ATOM      1  C   LIG    1       -0.017   1.399   0.010  0.00  0.00    +0.033 A 
ATOM      2  C   LIG    1        1.162   2.084   0.002  0.00  0.00    +0.072 A 
ATOM      3  C   LIG    1        2.381   1.386  -0.013  0.00  0.00    +0.249 A 
ATOM      4  N   LIG    1        2.399   0.039  -0.020  0.00  0.00    -0.320 N 
ATOM      5  C   LIG    1        1.223  -0.673  -0.013  0.00  0.00    +0.074 A 
ATOM      6  C   LIG    1        0.930  -2.060  -0.017  0.00  0.00    +0.019 A 
ATOM      7  C   LIG    1       -0.427  -2.193  -0.006  0.00  0.00    +0.093 A 
ATOM      8  N   LIG    1       -0.996  -0.959   0.006  0.00  0.00    -0.359 N 
ATOM      9  H   LIG    1       -1.949  -0.777   0.016  0.00  0.00    +0.165 HD
ATOM     10  H   LIG    1        3.247  -0.431  -0.030  0.00  0.00    +0.169 HD
ATOM     11  O   LIG    1        3.432   2.005  -0.020  0.00  0.00    -0.268 OA
ATOM     12  C   LIG    1        0.002  -0.004   0.002  0.00  0.00    +0.064 A 
ENDROOT
BRANCH   6  13
ATOM     13  C   LIG    1        1.916  -3.161  -0.032  0.00  0.00    -0.044 C 
ATOM     14  C   LIG    1        2.555  -3.425  -1.151  0.00  0.00    -0.042 C 
ATOM     15  C   LIG    1        3.569  -4.525  -1.272  0.00  0.00    -0.055 C 
ATOM     16  N   LIG    1        4.043  -4.933   0.056  0.00  0.00    +0.382 N 
ATOM     17  H   LIG    1        4.572  -4.181   0.471  0.00  0.00    -0.085 HD
ATOM     18  H   LIG    1        4.627  -5.751  -0.030  0.00  0.00    -0.085 HD
ATOM     19  C   LIG    1        2.881  -5.244   0.904  0.00  0.00    -0.078 C 
ATOM     20  C   LIG    1        2.157  -3.935   1.235  0.00  0.00    +0.016 C 
ENDBRANCH   6  13
TORSDOF 1
