REMARK  Name = ZINC00006481
REMARK                            x       y       z     vdW  Elec       q    Type
REMARK                         _______ _______ _______ _____ _____    ______ ____
ROOT
ATOM      1  C   LIG    1       -0.017   1.387   0.010  0.00  0.00    +0.048 A 
ATOM      2  C   LIG    1        1.143   2.118   0.003  0.00  0.00    +0.032 A 
ATOM      3  C   LIG    1        2.402   1.476  -0.013  0.00  0.00    +0.080 A 
ATOM      4  C   LIG    1        2.385   0.063  -0.021  0.00  0.00    +0.044 A 
ATOM      5  S   LIG    1        4.117  -0.336  -0.040  0.00  0.00    -0.053 S 
ATOM      6  C   LIG    1        4.735   1.340  -0.036  0.00  0.00    +0.157 A 
ATOM      7  C   LIG    1        1.222  -0.664  -0.014  0.00  0.00    +0.063 A 
ATOM      8  N   LIG    1        3.629   2.047  -0.022  0.00  0.00    -0.225 NA
ATOM      9  C   LIG    1        0.002  -0.004   0.002  0.00  0.00    +0.131 A 
ENDROOT
BRANCH   6  10
ATOM     10  N   LIG    1        6.044   1.781  -0.046  0.00  0.00    -0.337 N 
ATOM     11  H   LIG    1        6.236   2.731  -0.043  0.00  0.00    +0.144 HD
ATOM     12  H   LIG    1        6.771   1.139  -0.056  0.00  0.00    +0.144 HD
ENDBRANCH   6  10
BRANCH   9  13
ATOM     13  O   LIG    1       -1.161  -0.708   0.009  0.00  0.00    -0.406 OA
BRANCH  13  14
ATOM     14  C   LIG    1       -2.376   0.045   0.025  0.00  0.00    +0.575 C 
ATOM     15  F   LIG    1       -2.413   0.846   1.172  0.00  0.00    -0.133 F 
ATOM     16  F   LIG    1       -3.467  -0.830   0.031  0.00  0.00    -0.133 F 
ATOM     17  F   LIG    1       -2.435   0.858  -1.113  0.00  0.00    -0.133 F 
ENDBRANCH  13  14
ENDBRANCH   9  13
TORSDOF 3
