REMARK  Name = ZINC00006788
REMARK                            x       y       z     vdW  Elec       q    Type
REMARK                         _______ _______ _______ _____ _____    ______ ____
ROOT
ATOM      1  N   LIG    1        0.160  -3.502  -1.381  0.00  0.00    +0.383 N 
ATOM      2  H   LIG    1       -0.265  -2.654  -1.726  0.00  0.00    -0.081 HD
ATOM      3  C   LIG    1        1.273  -3.882  -2.259  0.00  0.00    -0.075 C 
ATOM      4  C   LIG    1        0.764  -4.041  -3.694  0.00  0.00    +0.021 C 
ATOM      5  C   LIG    1       -0.312  -5.130  -3.731  0.00  0.00    +0.088 C 
ATOM      6  C   LIG    1       -1.433  -4.759  -2.755  0.00  0.00    +0.021 C 
ATOM      7  C   LIG    1       -0.843  -4.574  -1.356  0.00  0.00    -0.075 C 
ENDROOT
BRANCH   5   8
ATOM      8  C   LIG    1       -0.873  -5.237  -5.125  0.00  0.00    -0.016 A 
ATOM      9  C   LIG    1       -0.905  -4.124  -5.945  0.00  0.00    +0.008 A 
ATOM     10  C   LIG    1       -1.419  -4.221  -7.224  0.00  0.00    +0.020 A 
ATOM     11  C   LIG    1       -1.901  -5.434  -7.685  0.00  0.00    +0.041 A 
ATOM     12 CL   LIG    1       -2.548  -5.557  -9.291  0.00  0.00    -0.084 Cl
ATOM     13  C   LIG    1       -1.869  -6.547  -6.864  0.00  0.00    +0.020 A 
ATOM     14  C   LIG    1       -1.349  -6.450  -5.587  0.00  0.00    +0.008 A 
ENDBRANCH   5   8
BRANCH   5  15
ATOM     15  O   LIG    1        0.261  -6.381  -3.347  0.00  0.00    -0.384 OA
ATOM     16  H   LIG    1       -0.365  -7.117  -3.348  0.00  0.00    +0.211 HD
ENDBRANCH   5  15
BRANCH   1  17
ATOM     17  C   LIG    1        0.666  -3.275  -0.021  0.00  0.00    -0.041 C 
BRANCH  17  23
ATOM     18  C   LIG    1       -0.017   1.362   0.009  0.00  0.00    +0.001 A 
ATOM     19  C   LIG    1        1.170   2.083   0.002  0.00  0.00    +0.002 A 
ATOM     20  C   LIG    1        2.386   1.436  -0.013  0.00  0.00    +0.026 A 
ATOM     21  C   LIG    1        2.428   0.046  -0.021  0.00  0.00    +0.047 A 
ATOM     22  C   LIG    1        1.223  -0.681  -0.013  0.00  0.00    +0.001 A 
ATOM     23  C   LIG    1        1.604  -2.095  -0.025  0.00  0.00    -0.039 A 
ATOM     24  C   LIG    1        2.945  -2.141  -0.038  0.00  0.00    +0.085 A 
ATOM     25  N   LIG    1        3.455  -0.871  -0.036  0.00  0.00    -0.360 N 
ATOM     26  H   LIG    1        4.399  -0.650  -0.044  0.00  0.00    +0.165 HD
ATOM     27  C   LIG    1        0.002  -0.004   0.002  0.00  0.00    +0.010 A 
ENDBRANCH  17  23
ENDBRANCH   1  17
TORSDOF 4
