REMARK  Name = ZINC00004779
REMARK                            x       y       z     vdW  Elec       q    Type
REMARK                         _______ _______ _______ _____ _____    ______ ____
ROOT
ATOM      1  C   LIG    1        1.213  -0.680  -0.013  0.00  0.00    +0.121 A 
ATOM      2  C   LIG    1        0.002  -0.004   0.002  0.00  0.00    +0.046 A 
ATOM      3  C   LIG    1       -0.017   1.377   0.010  0.00  0.00    +0.007 A 
ATOM      4  C   LIG    1        1.171   2.086   0.002  0.00  0.00    -0.046 A 
ATOM      5  C   LIG    1        2.379   1.415  -0.013  0.00  0.00    +0.007 A 
ATOM      6  C   LIG    1        2.403   0.033  -0.021  0.00  0.00    +0.046 A 
ENDROOT
BRANCH   1   7
ATOM      7  O   LIG    1        1.234  -2.039  -0.020  0.00  0.00    -0.489 OA
BRANCH   7   8
ATOM      8  C   LIG    1        2.518  -2.668  -0.036  0.00  0.00    +0.258 C 
BRANCH   8   9
ATOM      9  C   LIG    1        2.341  -4.188  -0.042  0.00  0.00    +0.135 C 
BRANCH   9  10
ATOM     10  O   LIG    1        1.732  -4.601   1.183  0.00  0.00    -0.390 OA
ATOM     11  H   LIG    1        2.244  -4.376   1.972  0.00  0.00    +0.210 HD
ENDBRANCH   9  10
BRANCH   9  12
ATOM     12  C   LIG    1        3.708  -4.859  -0.184  0.00  0.00    -0.047 C 
BRANCH  12  13
ATOM     13  N   LIG    1        3.519  -6.317  -0.310  0.00  0.00    +0.382 N 
ATOM     14  H   LIG    1        2.946  -6.514  -1.139  0.00  0.00    -0.085 HD
ATOM     15  H   LIG    1        3.042  -6.670   0.528  0.00  0.00    -0.085 HD
BRANCH  13  17
ATOM     16  C   LIG    1        5.415  -7.252   0.938  0.00  0.00    -0.014 C 
ATOM     17  C   LIG    1        4.823  -6.992  -0.449  0.00  0.00    -0.078 C 
ATOM     18  C   LIG    1        4.625  -8.324  -1.176  0.00  0.00    -0.014 C 
ENDBRANCH  13  17
ENDBRANCH  12  13
ENDBRANCH   9  12
ENDBRANCH   8   9
ENDBRANCH   7   8
ENDBRANCH   1   7
BRANCH   4  19
ATOM     19  C   LIG    1        1.147   3.593   0.011  0.00  0.00    +0.054 C 
BRANCH  19  20
ATOM     20  C   LIG    1        1.153   4.095   1.456  0.00  0.00    +0.110 C 
BRANCH  20  21
ATOM     21  N   LIG    1        1.130   5.560   1.464  0.00  0.00    -0.299 N 
ATOM     22  H   LIG    1        1.115   6.049   0.626  0.00  0.00    +0.150 HD
ATOM     23  C   LIG    1        1.131   6.227   2.635  0.00  0.00    +0.300 C 
ATOM     24  N   LIG    1        1.110   7.575   2.642  0.00  0.00    -0.297 N 
ATOM     25  H   LIG    1        1.095   8.064   1.805  0.00  0.00    +0.150 HD
ATOM     26  O   LIG    1        1.151   5.614   3.684  0.00  0.00    -0.253 OA
BRANCH  24  27
ATOM     27  C   LIG    1        1.111   8.300   3.915  0.00  0.00    +0.068 C 
ATOM     28  C   LIG    1        0.478   9.679   3.716  0.00  0.00    +0.027 C 
ATOM     29  C   LIG    1        2.550   8.466   4.407  0.00  0.00    +0.027 C 
ENDBRANCH  24  27
ENDBRANCH  20  21
ENDBRANCH  19  20
ENDBRANCH   4  19
TORSDOF 11
