REMARK  Name = ZINC00020049
REMARK                            x       y       z     vdW  Elec       q    Type
REMARK                         _______ _______ _______ _____ _____    ______ ____
ROOT
ATOM      1  C   LIG    1       -0.235   1.476   0.263  0.00  0.00    +0.109 C 
ATOM      2  C   LIG    1       -0.090  -0.016   0.110  0.00  0.00    +0.194 A 
ATOM      3  N   LIG    1       -1.074  -0.869   0.114  0.00  0.00    -0.213 NA
ATOM      4  C   LIG    1       -0.574  -2.112  -0.045  0.00  0.00    +0.117 A 
ATOM      5  C   LIG    1        0.796  -1.987  -0.150  0.00  0.00    +0.163 A 
ATOM      6  O   LIG    1        1.068  -0.666  -0.055  0.00  0.00    -0.439 OA
ENDROOT
BRANCH   4   7
ATOM      7  C   LIG    1       -1.350  -3.374  -0.096  0.00  0.00    +0.004 A 
ATOM      8  C   LIG    1       -0.896  -4.503   0.585  0.00  0.00    +0.010 A 
ATOM      9  C   LIG    1       -1.623  -5.675   0.533  0.00  0.00    +0.001 A 
ATOM     10  C   LIG    1       -2.799  -5.731  -0.193  0.00  0.00    +0.000 A 
ATOM     11  C   LIG    1       -3.254  -4.614  -0.871  0.00  0.00    +0.001 A 
ATOM     12  C   LIG    1       -2.540  -3.435  -0.822  0.00  0.00    +0.010 A 
ENDBRANCH   4   7
BRANCH   5  13
ATOM     13  C   LIG    1        1.771  -3.078  -0.335  0.00  0.00    +0.022 A 
ATOM     14  C   LIG    1        1.568  -4.069  -1.304  0.00  0.00    +0.031 A 
ATOM     15  C   LIG    1        2.505  -5.071  -1.443  0.00  0.00    +0.111 A 
ATOM     16  N   LIG    1        3.580  -5.103  -0.678  0.00  0.00    -0.263 NA
ATOM     17  C   LIG    1        3.811  -4.190   0.246  0.00  0.00    +0.111 A 
ATOM     18  C   LIG    1        2.930  -3.149   0.450  0.00  0.00    +0.031 A 
ENDBRANCH   5  13
TORSDOF 2
