REMARK  Name = ZINC00008767
REMARK                            x       y       z     vdW  Elec       q    Type
REMARK                         _______ _______ _______ _____ _____    ______ ____
ROOT
ATOM      1  C   LIG    1       -0.444  -0.198  -2.410  0.00  0.00    +0.397 C 
ATOM      2  N   LIG    1       -0.940   0.990  -2.288  0.00  0.00    +0.058 NA
ATOM      3  S   LIG    1       -1.645   1.745  -3.598  0.00  0.00    +0.164 S 
ATOM      4  C   LIG    1       -1.770   0.475  -4.795  0.00  0.00    +0.202 A 
ATOM      5  C   LIG    1       -1.167  -0.749  -4.676  0.00  0.00    +0.129 A 
ATOM      6  C   LIG    1       -1.379  -1.637  -5.727  0.00  0.00    +0.069 A 
ATOM      7  C   LIG    1       -2.144  -1.264  -6.785  0.00  0.00    +0.083 A 
ATOM      8 CL   LIG    1       -2.558  -2.170  -8.207  0.00  0.00    -0.076 Cl
ATOM      9  S   LIG    1       -2.616   0.403  -6.337  0.00  0.00    -0.052 S 
ATOM     10  O   LIG    1       -2.968   2.096  -3.216  0.00  0.00    -0.132 OA
ATOM     11  O   LIG    1       -0.707   2.693  -4.090  0.00  0.00    -0.132 OA
ATOM     12  N   LIG    1       -0.387  -0.994  -3.510  0.00  0.00    -0.202 N 
ATOM     13  H   LIG    1        0.207  -1.761  -3.499  0.00  0.00    +0.251 HD
ENDROOT
BRANCH   1  14
ATOM     14  N   LIG    1        0.107  -0.729  -1.267  0.00  0.00    -0.231 N 
ATOM     15  H   LIG    1        0.564  -1.584  -1.301  0.00  0.00    +0.245 HD
BRANCH  14  17
ATOM     16  C   LIG    1       -1.415   0.156   0.556  0.00  0.00    +0.049 C 
ATOM     17  C   LIG    1        0.002  -0.004   0.002  0.00  0.00    +0.077 C 
ATOM     18  C   LIG    1        1.140  -0.176   1.010  0.00  0.00    +0.045 C 
ATOM     19  C   LIG    1        0.989   1.140   0.245  0.00  0.00    +0.045 C 
ENDBRANCH  14  17
ENDBRANCH   1  14
TORSDOF 2
