REMARK  Name = ZINC00003742
REMARK                            x       y       z     vdW  Elec       q    Type
REMARK                         _______ _______ _______ _____ _____    ______ ____
ROOT
ATOM      1  N   LIG    1       -1.504  -1.518   0.127  0.00  0.00    -0.346 N 
ATOM      2  C   LIG    1       -2.211  -1.548   1.265  0.00  0.00    +0.104 A 
ATOM      3  C   LIG    1       -3.588  -1.396   1.261  0.00  0.00    +0.117 A 
ATOM      4  C   LIG    1       -4.273  -1.204   0.036  0.00  0.00    +0.141 A 
ATOM      5  C   LIG    1       -3.529  -1.173  -1.155  0.00  0.00    +0.044 A 
ATOM      6  C   LIG    1       -4.178  -0.984  -2.394  0.00  0.00    +0.054 A 
ATOM      7  C   LIG    1       -3.457  -0.938  -3.541  0.00  0.00    +0.147 A 
ATOM      8  F   LIG    1       -4.078  -0.751  -4.726  0.00  0.00    -0.203 F 
ATOM      9  C   LIG    1       -2.005  -1.103  -3.490  0.00  0.00    +0.075 A 
ATOM     10  N   LIG    1       -1.286  -1.070  -4.612  0.00  0.00    -0.372 N 
ATOM     11  C   LIG    1        0.177  -0.926  -4.570  0.00  0.00    +0.097 C 
ATOM     12  C   LIG    1        0.798  -2.021  -5.444  0.00  0.00    -0.061 C 
ATOM     13  N   LIG    1        0.222  -1.955  -6.792  0.00  0.00    +0.381 N 
ATOM     14  H   LIG    1        0.684  -2.626  -7.388  0.00  0.00    -0.086 HD
ATOM     15  H   LIG    1        0.353  -1.028  -7.168  0.00  0.00    -0.086 HD
ATOM     16  C   LIG    1       -1.214  -2.260  -6.738  0.00  0.00    -0.061 C 
ATOM     17  C   LIG    1       -1.934  -1.183  -5.928  0.00  0.00    +0.097 C 
ATOM     18  C   LIG    1       -1.371  -1.296  -2.250  0.00  0.00    +0.055 A 
ATOM     19  C   LIG    1       -2.122  -1.328  -1.093  0.00  0.00    +0.055 A 
ENDROOT
BRANCH   1  21
ATOM     20  C   LIG    1        0.613  -0.313   0.340  0.00  0.00    +0.027 C 
ATOM     21  C   LIG    1       -0.050  -1.682   0.179  0.00  0.00    +0.118 C 
ENDBRANCH   1  21
BRANCH   3  22
ATOM     22  C   LIG    1       -4.337  -1.435   2.524  0.00  0.00    +0.342 C 
ATOM     23  O   LIG    1       -3.736  -1.487   3.590  0.00  0.00    -0.245 OA
BRANCH  22  24
ATOM     24  O   LIG    1       -5.560  -1.415   2.512  0.00  0.00    -0.477 OA
ATOM     25  H   LIG    1       -6.020  -1.375   1.696  0.00  0.00    +0.295 HD
ENDBRANCH  22  24
ENDBRANCH   3  22
BRANCH   4  26
ATOM     26  O   LIG    1       -5.614  -1.054   0.014  0.00  0.00    -0.505 OA
ATOM     27  H   LIG    1       -6.035  -1.156   0.879  0.00  0.00    +0.292 HD
ENDBRANCH   4  26
TORSDOF 4
