REMARK  Name = ZINC00007382
REMARK                            x       y       z     vdW  Elec       q    Type
REMARK                         _______ _______ _______ _____ _____    ______ ____
ROOT
ATOM      1  C   LIG    1        1.249  -5.159   0.122  0.00  0.00    +0.067 C 
ATOM      2  C   LIG    1        2.005  -4.523   1.292  0.00  0.00    +0.016 C 
ATOM      3  C   LIG    1        3.472  -4.955   1.239  0.00  0.00    -0.076 C 
ATOM      4  N   LIG    1        3.559  -6.417   1.335  0.00  0.00    +0.382 N 
ATOM      5  H   LIG    1        3.107  -6.725   2.183  0.00  0.00    -0.082 HD
ATOM      6  C   LIG    1        2.898  -7.032   0.178  0.00  0.00    -0.076 C 
ATOM      7  C   LIG    1        1.409  -6.680   0.190  0.00  0.00    +0.016 C 
ENDROOT
BRANCH   1   8
ATOM      8  O   LIG    1        1.784  -4.677  -1.113  0.00  0.00    -0.388 OA
ATOM      9  H   LIG    1        1.718  -3.719  -1.223  0.00  0.00    +0.210 HD
ENDBRANCH   1   8
BRANCH   1  10
ATOM     10  C   LIG    1       -0.234  -4.795   0.213  0.00  0.00    +0.069 C 
BRANCH  10  15
ATOM     11  C   LIG    1       -0.833   0.946  -0.046  0.00  0.00    +0.044 C 
ATOM     12  C   LIG    1       -0.677  -0.551   0.022  0.00  0.00    -0.050 A 
ATOM     13  C   LIG    1       -0.694  -1.301  -1.140  0.00  0.00    +0.003 A 
ATOM     14  C   LIG    1       -0.550  -2.674  -1.078  0.00  0.00    +0.004 A 
ATOM     15  C   LIG    1       -0.390  -3.298   0.146  0.00  0.00    -0.045 A 
ATOM     16  C   LIG    1       -0.372  -2.548   1.307  0.00  0.00    +0.004 A 
ATOM     17  C   LIG    1       -0.511  -1.174   1.244  0.00  0.00    +0.003 A 
ENDBRANCH  10  15
ENDBRANCH   1  10
BRANCH   4  18
ATOM     18  C   LIG    1        4.971  -6.821   1.362  0.00  0.00    -0.037 C 
BRANCH  18  19
ATOM     19  C   LIG    1        5.622  -6.316   2.652  0.00  0.00    +0.210 C 
BRANCH  19  20
ATOM     20  O   LIG    1        4.999  -6.941   3.776  0.00  0.00    -0.494 OA
BRANCH  20  21
ATOM     21  C   LIG    1        5.463  -6.599   5.008  0.00  0.00    +0.121 A 
ATOM     22  C   LIG    1        6.492  -5.677   5.130  0.00  0.00    +0.049 A 
ATOM     23  C   LIG    1        6.963  -5.330   6.381  0.00  0.00    +0.049 A 
ATOM     24  C   LIG    1        6.407  -5.903   7.515  0.00  0.00    +0.117 A 
ATOM     25  C   LIG    1        5.378  -6.824   7.393  0.00  0.00    +0.049 A 
ATOM     26  C   LIG    1        4.904  -7.168   6.142  0.00  0.00    +0.049 A 
BRANCH  24  27
ATOM     27  O   LIG    1        6.872  -5.562   8.747  0.00  0.00    -0.507 OA
ATOM     28  H   LIG    1        6.415  -4.808   9.144  0.00  0.00    +0.292 HD
ENDBRANCH  24  27
ENDBRANCH  20  21
ENDBRANCH  19  20
ENDBRANCH  18  19
ENDBRANCH   4  18
TORSDOF 8
