REMARK  Name = ZINC00032243
REMARK                            x       y       z     vdW  Elec       q    Type
REMARK                         _______ _______ _______ _____ _____    ______ ____
ROOT
ATOM      1  C   LIG    1        3.527   0.685  -0.028  0.00  0.00    +0.063 C 
ATOM      2  C   LIG    1        2.140   0.642  -0.015  0.00  0.00    +0.094 C 
ATOM      3  C   LIG    1        1.166   1.763   0.000  0.00  0.00    +0.131 C 
ATOM      4  N   LIG    1       -0.014   1.199   0.009  0.00  0.00    -0.073 NA
ATOM      5  O   LIG    1        0.002  -0.004   0.002  0.00  0.00    -0.311 OA
ATOM      6  C   LIG    1        1.242  -0.528  -0.013  0.00  0.00    +0.369 C 
ATOM      7  O   LIG    1        1.553  -1.706  -0.022  0.00  0.00    -0.242 OA
ENDROOT
BRANCH   1  10
ATOM      8  C   LIG    1        5.942  -1.986  -0.064  0.00  0.00    +0.042 A 
ATOM      9  C   LIG    1        5.649  -0.617  -0.055  0.00  0.00    +0.049 A 
ATOM     10  C   LIG    1        4.267  -0.511  -0.041  0.00  0.00    +0.129 A 
ATOM     11  O   LIG    1        3.759  -1.762  -0.036  0.00  0.00    -0.464 OA
ATOM     12  C   LIG    1        4.761  -2.650  -0.056  0.00  0.00    +0.195 A 
ENDBRANCH   1  10
BRANCH   3  13
ATOM     13  C   LIG    1        1.466   3.207   0.005  0.00  0.00    +0.042 A 
ATOM     14  C   LIG    1        0.599   4.270   0.013  0.00  0.00    +0.018 A 
ATOM     15  C   LIG    1        1.115   5.545   0.019  0.00  0.00    +0.008 A 
ATOM     16  C   LIG    1        2.464   5.713   0.007  0.00  0.00    +0.046 A 
ATOM     17  S   LIG    1        3.052   4.027  -0.007  0.00  0.00    -0.095 S 
ENDBRANCH   3  13
TORSDOF 2
