REMARK  Name = ZINC00066104
REMARK                            x       y       z     vdW  Elec       q    Type
REMARK                         _______ _______ _______ _____ _____    ______ ____
ROOT
ATOM      1  C   LIG    1        0.034  -4.146  -2.630  0.00  0.00    -0.021 A 
ATOM      2  C   LIG    1        1.119  -4.929  -2.733  0.00  0.00    +0.087 A 
ATOM      3  N   LIG    1        0.749  -6.245  -2.704  0.00  0.00    -0.360 N 
ATOM      4  C   LIG    1       -0.621  -6.344  -2.579  0.00  0.00    +0.047 A 
ATOM      5  C   LIG    1       -1.497  -7.421  -2.503  0.00  0.00    +0.030 A 
ATOM      6  C   LIG    1       -2.850  -7.199  -2.364  0.00  0.00    +0.047 A 
ATOM      7  C   LIG    1       -3.354  -5.903  -2.310  0.00  0.00    +0.118 A 
ATOM      8  C   LIG    1       -2.501  -4.820  -2.388  0.00  0.00    +0.055 A 
ATOM      9  H   LIG    1        1.359  -6.997  -2.763  0.00  0.00    +0.165 HD
ATOM     10  C   LIG    1       -1.127  -5.033  -2.521  0.00  0.00    +0.006 A 
ENDROOT
BRANCH   7  11
ATOM     11  O   LIG    1       -4.693  -5.702  -2.180  0.00  0.00    -0.507 OA
ATOM     12  H   LIG    1       -5.165  -5.640  -3.022  0.00  0.00    +0.292 HD
ENDBRANCH   7  11
BRANCH   1  13
ATOM     13  C   LIG    1        0.013  -2.639  -2.622  0.00  0.00    +0.056 C 
BRANCH  13  14
ATOM     14  C   LIG    1        0.020  -2.136  -1.177  0.00  0.00    +0.109 C 
BRANCH  14  17
ATOM     15  C   LIG    1       -0.018   1.503   0.010  0.00  0.00    +0.109 C 
ATOM     16  C   LIG    1        0.002  -0.004   0.002  0.00  0.00    +0.210 C 
ATOM     17  N   LIG    1        0.000  -0.672  -1.169  0.00  0.00    -0.315 N 
ATOM     18  H   LIG    1       -0.015  -0.182  -2.006  0.00  0.00    +0.149 HD
ATOM     19  O   LIG    1        0.020  -0.616   1.049  0.00  0.00    -0.276 OA
ENDBRANCH  14  17
ENDBRANCH  13  14
ENDBRANCH   1  13
TORSDOF 4
