REMARK  Name = ZINC00008732
REMARK                            x       y       z     vdW  Elec       q    Type
REMARK                         _______ _______ _______ _____ _____    ______ ____
ROOT
ATOM      1  C   LIG    1        3.565   3.102   0.011  0.00  0.00    +0.001 A 
ATOM      2  C   LIG    1        2.352   3.769  -0.072  0.00  0.00    +0.002 A 
ATOM      3  C   LIG    1        1.166   3.064  -0.069  0.00  0.00    +0.024 A 
ATOM      4  C   LIG    1        1.180   1.677   0.017  0.00  0.00    +0.040 A 
ATOM      5  C   LIG    1        2.406   1.000   0.106  0.00  0.00    +0.058 A 
ATOM      6  C   LIG    1        3.599   1.728   0.097  0.00  0.00    +0.015 A 
ENDROOT
BRANCH   5   7
ATOM      7  C   LIG    1        2.436  -0.471   0.203  0.00  0.00    +0.250 C 
ATOM      8  N   LIG    1        3.607  -1.110   0.399  0.00  0.00    -0.281 N 
ATOM      9  H   LIG    1        4.420  -0.600   0.540  0.00  0.00    +0.155 HD
ATOM     10  O   LIG    1        1.404  -1.107   0.108  0.00  0.00    -0.270 OA
BRANCH   8  11
ATOM     11  C   LIG    1        3.649  -2.508   0.399  0.00  0.00    +0.034 A 
ATOM     12  C   LIG    1        2.587  -3.236   0.920  0.00  0.00    +0.025 A 
ATOM     13  C   LIG    1        2.629  -4.617   0.913  0.00  0.00    +0.022 A 
ATOM     14  C   LIG    1        3.732  -5.274   0.398  0.00  0.00    +0.041 A 
ATOM     15 CL   LIG    1        3.784  -7.010   0.397  0.00  0.00    -0.084 Cl
ATOM     16  C   LIG    1        4.793  -4.551  -0.117  0.00  0.00    +0.022 A 
ATOM     17  C   LIG    1        4.755  -3.171  -0.118  0.00  0.00    +0.025 A 
ENDBRANCH   8  11
ENDBRANCH   5   7
BRANCH   4  18
ATOM     18  N   LIG    1       -0.012   0.965   0.021  0.00  0.00    -0.339 N 
ATOM     19  H   LIG    1        0.002  -0.004  -0.002  0.00  0.00    +0.146 HD
BRANCH  18  20
ATOM     20  C   LIG    1       -1.291   1.679   0.052  0.00  0.00    +0.137 C 
BRANCH  20  21
ATOM     21  C   LIG    1       -2.422   0.684   0.043  0.00  0.00    -0.028 A 
ATOM     22  C   LIG    1       -2.973   0.247  -1.152  0.00  0.00    +0.025 A 
ATOM     23  C   LIG    1       -4.007  -0.670  -1.121  0.00  0.00    +0.111 A 
ATOM     24  N   LIG    1       -4.475  -1.121   0.026  0.00  0.00    -0.263 NA
ATOM     25  C   LIG    1       -3.979  -0.724   1.182  0.00  0.00    +0.111 A 
ATOM     26  C   LIG    1       -2.941   0.188   1.229  0.00  0.00    +0.025 A 
ENDBRANCH  20  21
ENDBRANCH  18  20
ENDBRANCH   4  18
TORSDOF 5
