REMARK  Name = ZINC00056408
REMARK                            x       y       z     vdW  Elec       q    Type
REMARK                         _______ _______ _______ _____ _____    ______ ____
ROOT
ATOM      1  C   LIG    1        0.279   1.883   0.128  0.00  0.00    -0.095 C 
ATOM      2  N   LIG    1        0.084   0.438  -0.052  0.00  0.00    +0.383 N 
ATOM      3  H   LIG    1        0.468   0.153  -0.940  0.00  0.00    -0.081 HD
ATOM      4  C   LIG    1       -1.353   0.127  -0.012  0.00  0.00    -0.074 C 
ATOM      5  C   LIG    1       -1.555  -1.308  -0.501  0.00  0.00    +0.017 C 
ATOM      6  C   LIG    1       -0.632  -2.237   0.246  0.00  0.00    -0.044 A 
ATOM      7  C   LIG    1       -0.891  -3.599   0.209  0.00  0.00    +0.053 A 
ATOM      8  C   LIG    1       -0.066  -4.485   0.879  0.00  0.00    +0.158 A 
ATOM      9  C   LIG    1        1.028  -4.003   1.592  0.00  0.00    +0.158 A 
ATOM     10  C   LIG    1        1.280  -2.643   1.627  0.00  0.00    +0.051 A 
ATOM     11  C   LIG    1        0.449  -1.758   0.955  0.00  0.00    -0.054 A 
ATOM     12  C   LIG    1        0.759  -0.286   1.029  0.00  0.00    -0.033 C 
ENDROOT
BRANCH   8  13
ATOM     13  O   LIG    1       -0.323  -5.820   0.840  0.00  0.00    -0.503 OA
ATOM     14  H   LIG    1        0.107  -6.282   0.108  0.00  0.00    +0.292 HD
ENDBRANCH   8  13
BRANCH   9  15
ATOM     15  O   LIG    1        1.846  -4.866   2.253  0.00  0.00    -0.503 OA
ATOM     16  H   LIG    1        2.586  -5.191   1.722  0.00  0.00    +0.292 HD
ENDBRANCH   9  15
BRANCH  12  17
ATOM     17  C   LIG    1        2.270  -0.082   0.906  0.00  0.00    +0.024 C 
BRANCH  17  18
ATOM     18  C   LIG    1        2.737  -0.582  -0.437  0.00  0.00    -0.045 A 
ATOM     19  C   LIG    1        3.211  -1.874  -0.565  0.00  0.00    +0.007 A 
ATOM     20  C   LIG    1        3.640  -2.338  -1.795  0.00  0.00    +0.049 A 
ATOM     21  C   LIG    1        3.595  -1.507  -2.903  0.00  0.00    +0.158 A 
ATOM     22  C   LIG    1        3.118  -0.206  -2.774  0.00  0.00    +0.158 A 
ATOM     23  C   LIG    1        2.684   0.251  -1.539  0.00  0.00    +0.052 A 
BRANCH  21  24
ATOM     24  O   LIG    1        4.018  -1.961  -4.113  0.00  0.00    -0.503 OA
ATOM     25  H   LIG    1        3.322  -2.375  -4.642  0.00  0.00    +0.292 HD
ENDBRANCH  21  24
BRANCH  22  26
ATOM     26  O   LIG    1        3.071   0.614  -3.858  0.00  0.00    -0.503 OA
ATOM     27  H   LIG    1        2.240   0.568  -4.351  0.00  0.00    +0.292 HD
ENDBRANCH  22  26
ENDBRANCH  17  18
ENDBRANCH  12  17
TORSDOF 6
