REMARK  Name = ZINC00001409
REMARK                            x       y       z     vdW  Elec       q    Type
REMARK                         _______ _______ _______ _____ _____    ______ ____
ROOT
ATOM      1  C   LIG    1       -2.140   1.036   1.486  0.00  0.00    +0.056 A 
ATOM      2  C   LIG    1       -2.297  -0.241   2.019  0.00  0.00    +0.043 A 
ATOM      3  C   LIG    1       -3.556  -0.860   1.905  0.00  0.00    +0.129 A 
ATOM      4  N   LIG    1       -4.539  -0.207   1.297  0.00  0.00    -0.199 NA
ATOM      5  C   LIG    1       -4.343   1.007   0.805  0.00  0.00    +0.214 A 
ATOM      6  N   LIG    1       -3.172   1.621   0.900  0.00  0.00    -0.219 NA
ENDROOT
BRANCH   2   7
ATOM      7  C   LIG    1       -1.168  -0.930   2.689  0.00  0.00    -0.011 A 
ATOM      8  C   LIG    1       -0.068  -1.355   1.946  0.00  0.00    +0.010 A 
ATOM      9  C   LIG    1        0.983  -1.991   2.574  0.00  0.00    +0.022 A 
ATOM     10  C   LIG    1        0.942  -2.218   3.939  0.00  0.00    +0.059 A 
ATOM     11 CL   LIG    1        2.264  -3.025   4.723  0.00  0.00    -0.082 Cl
ATOM     12  C   LIG    1       -0.151  -1.803   4.682  0.00  0.00    +0.060 A 
ATOM     13 CL   LIG    1       -0.197  -2.091   6.393  0.00  0.00    -0.082 Cl
ATOM     14  C   LIG    1       -1.206  -1.161   4.063  0.00  0.00    +0.030 A 
ENDBRANCH   2   7
BRANCH   3  15
ATOM     15  N   LIG    1       -3.765  -2.128   2.417  0.00  0.00    -0.343 N 
ATOM     16  H   LIG    1       -4.636  -2.548   2.334  0.00  0.00    +0.144 HD
ATOM     17  H   LIG    1       -3.041  -2.598   2.860  0.00  0.00    +0.144 HD
ENDBRANCH   3  15
BRANCH   5  18
ATOM     18  N   LIG    1       -5.393   1.656   0.180  0.00  0.00    -0.327 N 
ATOM     19  H   LIG    1       -5.265   2.545  -0.185  0.00  0.00    +0.145 HD
ATOM     20  H   LIG    1       -6.257   1.221   0.106  0.00  0.00    +0.145 HD
ENDBRANCH   5  18
BRANCH   1  22
ATOM     21  C   LIG    1       -0.747   2.530   2.893  0.00  0.00    +0.010 C 
ATOM     22  C   LIG    1       -0.814   1.745   1.581  0.00  0.00    +0.053 C 
ENDBRANCH   1  22
TORSDOF 4
