REMARK  Name = ZINC00003803
REMARK                            x       y       z     vdW  Elec       q    Type
REMARK                         _______ _______ _______ _____ _____    ______ ____
ROOT
ATOM      1  C   LIG    1       -1.064   7.785   0.428  0.00  0.00    +0.248 C 
ATOM      2  N   LIG    1        0.117   8.435   0.414  0.00  0.00    -0.280 N 
ATOM      3  H   LIG    1        0.939   7.944   0.263  0.00  0.00    +0.155 HD
ATOM      4  O   LIG    1       -2.102   8.413   0.515  0.00  0.00    -0.270 OA
ENDROOT
BRANCH   1   8
ATOM      5  C   LIG    1       -1.159   3.548   0.166  0.00  0.00    +0.033 A 
ATOM      6  C   LIG    1        0.061   4.216   0.158  0.00  0.00    +0.024 A 
ATOM      7  C   LIG    1        0.095   5.590   0.237  0.00  0.00    +0.015 A 
ATOM      8  C   LIG    1       -1.097   6.313   0.337  0.00  0.00    +0.037 A 
ATOM      9  C   LIG    1       -2.320   5.638   0.351  0.00  0.00    +0.015 A 
ATOM     10  C   LIG    1       -2.348   4.264   0.266  0.00  0.00    +0.024 A 
BRANCH   5  13
ATOM     11  C   LIG    1       -0.149  -0.012  -0.500  0.00  0.00    +0.109 C 
ATOM     12  C   LIG    1       -0.179   1.495  -0.517  0.00  0.00    +0.214 C 
ATOM     13  N   LIG    1       -1.190   2.156   0.080  0.00  0.00    -0.286 N 
ATOM     14  H   LIG    1       -1.939   1.664   0.451  0.00  0.00    +0.155 HD
ATOM     15  O   LIG    1        0.704   2.112  -1.074  0.00  0.00    -0.276 OA
ENDBRANCH   5  13
ENDBRANCH   1   8
BRANCH   2  16
ATOM     16  C   LIG    1        0.157   9.820   0.620  0.00  0.00    +0.055 A 
ATOM     17  C   LIG    1       -0.861  10.449   1.321  0.00  0.00    +0.025 A 
ATOM     18  C   LIG    1       -0.818  11.815   1.527  0.00  0.00    +0.002 A 
ATOM     19  C   LIG    1        0.233  12.561   1.025  0.00  0.00    +0.002 A 
ATOM     20  C   LIG    1        1.249  11.944   0.320  0.00  0.00    +0.024 A 
ATOM     21  C   LIG    1        1.217  10.572   0.114  0.00  0.00    +0.046 A 
BRANCH  21  22
ATOM     22  N   LIG    1        2.244   9.945  -0.600  0.00  0.00    -0.357 N 
ATOM     23  H   LIG    1        2.980  10.470  -0.951  0.00  0.00    +0.142 HD
ATOM     24  H   LIG    1        2.219   8.986  -0.744  0.00  0.00    +0.142 HD
ENDBRANCH  21  22
ENDBRANCH   2  16
TORSDOF 4
