REMARK  Name = ZINC00009708
REMARK                            x       y       z     vdW  Elec       q    Type
REMARK                         _______ _______ _______ _____ _____    ______ ____
ROOT
ATOM      1  N   LIG    1       -1.784  -0.339  -1.635  0.00  0.00    -0.298 N 
ATOM      2  H   LIG    1       -2.396  -0.051  -0.940  0.00  0.00    +0.151 HD
ENDROOT
BRANCH   1   3
ATOM      3  C   LIG    1       -2.206  -0.398  -2.941  0.00  0.00    +0.256 C 
ATOM      4  N   LIG    1       -3.408  -0.080  -3.311  0.00  0.00    -0.340 N 
ATOM      5  H   LIG    1       -4.121   0.221  -2.727  0.00  0.00    +0.164 HD
ATOM      6  C   LIG    1       -3.506  -0.252  -4.774  0.00  0.00    +0.158 C 
ATOM      7  C   LIG    1       -2.017  -0.352  -5.186  0.00  0.00    +0.253 C 
ATOM      8  O   LIG    1       -1.408  -0.788  -3.955  0.00  0.00    -0.465 OA
ENDBRANCH   1   3
BRANCH   1   9
ATOM      9  C   LIG    1       -0.408  -0.709  -1.292  0.00  0.00    +0.081 C 
BRANCH   9  12
ATOM     10  C   LIG    1       -0.019   1.526   0.010  0.00  0.00    +0.006 C 
ATOM     11  C   LIG    1        1.317   0.779  -0.006  0.00  0.00    +0.006 C 
ATOM     12  C   LIG    1        0.002  -0.004   0.002  0.00  0.00    +0.010 C 
ENDBRANCH   9  12
BRANCH   9  13
ATOM     13  C   LIG    1       -0.322  -2.224  -1.097  0.00  0.00    +0.010 C 
ATOM     14  C   LIG    1        0.769  -2.974  -1.865  0.00  0.00    +0.006 C 
ATOM     15  C   LIG    1       -0.695  -3.112  -2.286  0.00  0.00    +0.006 C 
ENDBRANCH   9  13
ENDBRANCH   1   9
TORSDOF 4
