REMARK  Name = ZINC00069847
REMARK                            x       y       z     vdW  Elec       q    Type
REMARK                         _______ _______ _______ _____ _____    ______ ____
ROOT
ATOM      1  C   LIG    1       -0.018   1.503   0.010  0.00  0.00    +0.145 C 
ATOM      2  C   LIG    1        0.002  -0.004   0.002  0.00  0.00    +0.288 C 
ATOM      3  N   LIG    1       -0.005  -0.643  -1.131  0.00  0.00    -0.046 NA
ATOM      4  C   LIG    1        0.020  -2.012  -1.172  0.00  0.00    +0.183 A 
ATOM      5  C   LIG    1        0.337  -2.680  -2.354  0.00  0.00    +0.057 A 
ATOM      6  C   LIG    1        0.357  -4.060  -2.378  0.00  0.00    +0.024 A 
ATOM      7  C   LIG    1        0.064  -4.782  -1.234  0.00  0.00    +0.042 A 
ATOM      8 CL   LIG    1        0.092  -6.518  -1.276  0.00  0.00    -0.084 Cl
ATOM      9  C   LIG    1       -0.253  -4.125  -0.056  0.00  0.00    +0.032 A 
ATOM     10  C   LIG    1       -0.276  -2.749  -0.023  0.00  0.00    +0.052 A 
ATOM     11  C   LIG    1       -0.619  -2.013   1.250  0.00  0.00    +0.233 C 
ATOM     12  N   LIG    1        0.023  -0.690   1.188  0.00  0.00    -0.203 N 
ENDROOT
BRANCH  11  13
ATOM     13  C   LIG    1       -2.114  -1.851   1.359  0.00  0.00    -0.000 A 
ATOM     14  C   LIG    1       -2.757  -0.869   0.629  0.00  0.00    +0.008 A 
ATOM     15  C   LIG    1       -4.129  -0.723   0.725  0.00  0.00    +0.000 A 
ATOM     16  C   LIG    1       -4.855  -1.553   1.559  0.00  0.00    +0.000 A 
ATOM     17  C   LIG    1       -4.210  -2.532   2.292  0.00  0.00    +0.000 A 
ATOM     18  C   LIG    1       -2.840  -2.680   2.192  0.00  0.00    +0.008 A 
ENDBRANCH  11  13
BRANCH  12  19
ATOM     19  C   LIG    1        0.670  -0.118   2.372  0.00  0.00    +0.347 C 
BRANCH  19  20
ATOM     20  C   LIG    1       -0.334   0.690   3.152  0.00  0.00    +0.347 C 
ATOM     21  O   LIG    1       -1.474   0.779   2.761  0.00  0.00    -0.247 OA
BRANCH  20  22
ATOM     22  O   LIG    1        0.037   1.311   4.283  0.00  0.00    -0.465 OA
ATOM     23  C   LIG    1       -0.982   2.072   4.983  0.00  0.00    +0.280 C 
ENDBRANCH  20  22
ENDBRANCH  19  20
ENDBRANCH  12  19
TORSDOF 4
