REMARK  Name = ZINC00021790
REMARK                            x       y       z     vdW  Elec       q    Type
REMARK                         _______ _______ _______ _____ _____    ______ ____
ROOT
ATOM      1  C   LIG    1       -1.232   1.759   0.017  0.00  0.00    +0.066 A 
ATOM      2  C   LIG    1       -0.013   1.076   0.008  0.00  0.00    +0.064 A 
ATOM      3  C   LIG    1        1.174   1.784   0.000  0.00  0.00    +0.163 A 
ATOM      4  C   LIG    1        1.156   3.176   0.007  0.00  0.00    +0.201 A 
ATOM      5  C   LIG    1       -0.057   3.859   0.022  0.00  0.00    +0.163 A 
ATOM      6  C   LIG    1       -1.247   3.156   0.030  0.00  0.00    +0.064 A 
ENDROOT
BRANCH   1   7
ATOM      7  C   LIG    1       -2.500   1.006   0.020  0.00  0.00    +0.339 C 
ATOM      8  O   LIG    1       -2.486  -0.209   0.014  0.00  0.00    -0.245 OA
BRANCH   7   9
ATOM      9  O   LIG    1       -3.675   1.666   0.029  0.00  0.00    -0.461 OA
BRANCH   9  11
ATOM     10  C   LIG    1       -6.108   1.778   0.042  0.00  0.00    +0.048 C 
ATOM     11  C   LIG    1       -4.883   0.861   0.031  0.00  0.00    +0.229 C 
ENDBRANCH   9  11
ENDBRANCH   7   9
ENDBRANCH   1   7
BRANCH   3  12
ATOM     12  O   LIG    1        2.361   1.120  -0.014  0.00  0.00    -0.503 OA
ATOM     13  H   LIG    1        2.696   0.932  -0.901  0.00  0.00    +0.292 HD
ENDBRANCH   3  12
BRANCH   4  14
ATOM     14  O   LIG    1        2.325   3.869  -0.000  0.00  0.00    -0.501 OA
ATOM     15  H   LIG    1        2.655   4.074  -0.886  0.00  0.00    +0.292 HD
ENDBRANCH   4  14
BRANCH   5  16
ATOM     16  O   LIG    1       -0.071   5.219   0.028  0.00  0.00    -0.503 OA
ATOM     17  H   LIG    1       -0.084   5.616  -0.853  0.00  0.00    +0.292 HD
ENDBRANCH   5  16
TORSDOF 6
