REMARK  Name = ZINC00025301
REMARK                            x       y       z     vdW  Elec       q    Type
REMARK                         _______ _______ _______ _____ _____    ______ ____
ROOT
ATOM      1  C   LIG    1        0.680  -2.088   1.091  0.00  0.00    +0.148 A 
ATOM      2  C   LIG    1        1.316  -2.709   2.163  0.00  0.00    +0.045 A 
ATOM      3  C   LIG    1        1.360  -4.100   2.197  0.00  0.00    +0.011 A 
ATOM      4  C   LIG    1        1.919  -5.093   3.128  0.00  0.00    +0.008 A 
ATOM      5  C   LIG    1        2.619  -4.998   4.329  0.00  0.00    +0.010 A 
ATOM      6  C   LIG    1        3.018  -6.144   4.982  0.00  0.00    +0.001 A 
ATOM      7  C   LIG    1        2.727  -7.389   4.447  0.00  0.00    +0.002 A 
ATOM      8  C   LIG    1        2.037  -7.499   3.260  0.00  0.00    +0.026 A 
ATOM      9  C   LIG    1        1.624  -6.353   2.585  0.00  0.00    +0.048 A 
ATOM     10  N   LIG    1        0.931  -6.168   1.403  0.00  0.00    -0.353 N 
ATOM     11  H   LIG    1        0.609  -6.884   0.832  0.00  0.00    +0.166 HD
ATOM     12  C   LIG    1        0.761  -4.825   1.151  0.00  0.00    +0.066 A 
ATOM     13  C   LIG    1        0.146  -4.120   0.116  0.00  0.00    +0.137 A 
ATOM     14  N   LIG    1        0.120  -2.808   0.121  0.00  0.00    -0.246 NA
ENDROOT
BRANCH   1  15
ATOM     15  C   LIG    1        0.620  -0.613   1.032  0.00  0.00    +0.357 C 
ATOM     16  O   LIG    1        1.129   0.051   1.913  0.00  0.00    -0.243 OA
BRANCH  15  18
ATOM     17  C   LIG    1       -0.017   1.425   0.010  0.00  0.00    +0.280 C 
ATOM     18  O   LIG    1        0.002  -0.004   0.002  0.00  0.00    -0.463 OA
ENDBRANCH  15  18
ENDBRANCH   1  15
TORSDOF 2
