REMARK  Name = ZINC00071460
REMARK                            x       y       z     vdW  Elec       q    Type
REMARK                         _______ _______ _______ _____ _____    ______ ____
ROOT
ATOM      1  C   LIG    1        1.151   1.769   0.001  0.00  0.00    +0.035 A 
ATOM      2  C   LIG    1       -0.013   1.076   0.008  0.00  0.00    +0.033 A 
ATOM      3  C   LIG    1       -1.251   1.768   0.018  0.00  0.00    +0.100 A 
ATOM      4  C   LIG    1       -1.232   3.228   0.030  0.00  0.00    +0.102 A 
ATOM      5  N   LIG    1       -2.459   3.745   0.044  0.00  0.00    -0.191 NA
ATOM      6  S   LIG    1       -3.446   2.528   0.032  0.00  0.00    +0.116 S 
ATOM      7  C   LIG    1        0.025   3.887   0.021  0.00  0.00    +0.063 A 
ATOM      8  N   LIG    1       -2.492   1.285   0.021  0.00  0.00    -0.191 NA
ATOM      9  C   LIG    1        1.170   3.163   0.007  0.00  0.00    +0.124 A 
ENDROOT
BRANCH   9  10
ATOM     10  N   LIG    1        2.471   3.869  -0.002  0.00  0.00    +0.006 N 
ATOM     11  O   LIG    1        3.509   3.232  -0.015  0.00  0.00    -0.130 OA
BRANCH  10  12
ATOM     12  O   LIG    1        2.504   5.086   0.003  0.00  0.00    -0.396 OA
ATOM     13  H   LIG    1        1.705   5.577   0.013  0.00  0.00    +0.329 HD
ENDBRANCH  10  12
ENDBRANCH   9  10
TORSDOF 2
