REMARK  Name = ZINC00006989
REMARK                            x       y       z     vdW  Elec       q    Type
REMARK                         _______ _______ _______ _____ _____    ______ ____
ROOT
ATOM      1  C   LIG    1        0.745  -0.510   1.257  0.00  0.00    -0.026 C 
ATOM      2  C   LIG    1        2.180   0.019   1.239  0.00  0.00    +0.002 C 
ATOM      3  C   LIG    1        2.926  -0.488   2.475  0.00  0.00    +0.013 C 
ATOM      4  C   LIG    1        2.946  -2.018   2.466  0.00  0.00    +0.075 C 
ATOM      5  C   LIG    1        1.511  -2.547   2.484  0.00  0.00    +0.013 C 
ATOM      6  C   LIG    1        0.765  -2.039   1.248  0.00  0.00    +0.002 C 
ENDROOT
BRANCH   4   7
ATOM      7  C   LIG    1        3.645  -2.504   1.223  0.00  0.00    +0.220 C 
ATOM      8  N   LIG    1        3.783  -3.826   1.000  0.00  0.00    -0.285 N 
ATOM      9  H   LIG    1        3.493  -4.464   1.671  0.00  0.00    +0.155 HD
ATOM     10  O   LIG    1        4.084  -1.706   0.422  0.00  0.00    -0.275 OA
BRANCH   8  11
ATOM     11  C   LIG    1        4.342  -4.278  -0.196  0.00  0.00    +0.036 A 
ATOM     12  C   LIG    1        5.367  -3.568  -0.819  0.00  0.00    +0.043 A 
ATOM     13  C   LIG    1        5.893  -4.048  -2.001  0.00  0.00    +0.112 A 
ATOM     14  N   LIG    1        5.438  -5.163  -2.540  0.00  0.00    -0.263 NA
ATOM     15  C   LIG    1        4.469  -5.864  -1.980  0.00  0.00    +0.112 A 
ATOM     16  C   LIG    1        3.894  -5.454  -0.795  0.00  0.00    +0.043 A 
ENDBRANCH   8  11
ENDBRANCH   4   7
BRANCH   1  18
ATOM     17  C   LIG    1       -0.021   1.527   0.029  0.00  0.00    -0.014 C 
ATOM     18  C   LIG    1       -0.001  -0.002   0.021  0.00  0.00    -0.075 C 
BRANCH  18  19
ATOM     19  N   LIG    1        0.680  -0.476  -1.191  0.00  0.00    +0.380 N 
ATOM     20  H   LIG    1        0.188  -0.142  -2.006  0.00  0.00    -0.090 HD
ATOM     21  H   LIG    1        0.694  -1.485  -1.197  0.00  0.00    -0.090 HD
ATOM     22  H   LIG    1        1.627  -0.128  -1.203  0.00  0.00    -0.090 HD
ENDBRANCH  18  19
ENDBRANCH   1  18
TORSDOF 4
