REMARK  Name = ZINC00001723
REMARK                            x       y       z     vdW  Elec       q    Type
REMARK                         _______ _______ _______ _____ _____    ______ ____
ROOT
ATOM      1  C   LIG    1        4.186   0.259  -2.320  0.00  0.00    +0.066 C 
ATOM      2  C   LIG    1        4.559  -0.587  -1.129  0.00  0.00    +0.053 A 
ATOM      3  C   LIG    1        3.699  -0.687  -0.037  0.00  0.00    +0.043 A 
ATOM      4  C   LIG    1        4.095  -1.485   1.052  0.00  0.00    +0.129 A 
ATOM      5  N   LIG    1        5.262  -2.117   0.993  0.00  0.00    -0.199 NA
ATOM      6  C   LIG    1        6.047  -1.991  -0.067  0.00  0.00    +0.214 A 
ATOM      7  N   LIG    1        5.707  -1.244  -1.107  0.00  0.00    -0.219 NA
ENDROOT
BRANCH   3   8
ATOM      8  C   LIG    1        2.403   0.034  -0.021  0.00  0.00    -0.011 A 
ATOM      9  C   LIG    1        2.378   1.428  -0.013  0.00  0.00    +0.010 A 
ATOM     10  C   LIG    1        1.170   2.094   0.002  0.00  0.00    +0.022 A 
ATOM     11  C   LIG    1       -0.017   1.381   0.010  0.00  0.00    +0.059 A 
ATOM     12 CL   LIG    1       -1.533   2.226   0.021  0.00  0.00    -0.082 Cl
ATOM     13  C   LIG    1        0.002  -0.004   0.002  0.00  0.00    +0.060 A 
ATOM     14 CL   LIG    1       -1.490  -0.891   0.012  0.00  0.00    -0.082 Cl
ATOM     15  C   LIG    1        1.206  -0.680  -0.014  0.00  0.00    +0.030 A 
ENDBRANCH   3   8
BRANCH   4  16
ATOM     16  N   LIG    1        3.281  -1.613   2.162  0.00  0.00    -0.343 N 
ATOM     17  H   LIG    1        3.562  -2.166   2.909  0.00  0.00    +0.144 HD
ATOM     18  H   LIG    1        2.429  -1.151   2.195  0.00  0.00    +0.144 HD
ENDBRANCH   4  16
BRANCH   6  19
ATOM     19  N   LIG    1        7.258  -2.661  -0.088  0.00  0.00    -0.327 N 
ATOM     20  H   LIG    1        7.521  -3.212   0.666  0.00  0.00    +0.145 HD
ATOM     21  H   LIG    1        7.844  -2.579  -0.857  0.00  0.00    +0.145 HD
ENDBRANCH   6  19
TORSDOF 3
