REMARK  Name = ZINC00060108
REMARK                            x       y       z     vdW  Elec       q    Type
REMARK                         _______ _______ _______ _____ _____    ______ ____
ROOT
ATOM      1  C   LIG    1       -0.017   1.392   0.010  0.00  0.00    +0.029 A 
ATOM      2  C   LIG    1        1.170   2.095   0.002  0.00  0.00    +0.024 A 
ATOM      3  C   LIG    1        2.378   1.419  -0.013  0.00  0.00    +0.071 A 
ATOM      4 CL   LIG    1        3.868   2.311  -0.024  0.00  0.00    -0.081 Cl
ATOM      5  C   LIG    1        2.404   0.034  -0.022  0.00  0.00    +0.142 A 
ATOM      6  C   LIG    1        1.224  -0.680  -0.014  0.00  0.00    +0.061 A 
ATOM      7  C   LIG    1        0.002  -0.004   0.002  0.00  0.00    +0.066 A 
ENDROOT
BRANCH   5   8
ATOM      8  N   LIG    1        3.700  -0.680  -0.039  0.00  0.00    +0.007 N 
ATOM      9  O   LIG    1        3.724  -1.889  -0.046  0.00  0.00    -0.130 OA
BRANCH   8  10
ATOM     10  O   LIG    1        4.735  -0.055  -0.046  0.00  0.00    -0.396 OA
ATOM     11  H   LIG    1        4.716   0.882  -0.040  0.00  0.00    +0.329 HD
ENDBRANCH   8  10
ENDBRANCH   5   8
BRANCH   7  12
ATOM     12  N   LIG    1       -1.172  -0.707   0.010  0.00  0.00    -0.255 NA
ATOM     13  C   LIG    1       -2.133  -0.362   0.819  0.00  0.00    +0.120 C 
BRANCH  13  14
ATOM     14  C   LIG    1       -3.396  -1.118   0.828  0.00  0.00    +0.011 A 
ATOM     15  C   LIG    1       -4.431  -0.747   1.691  0.00  0.00    +0.012 A 
ATOM     16  C   LIG    1       -5.611  -1.459   1.693  0.00  0.00    +0.021 A 
ATOM     17  C   LIG    1       -5.773  -2.541   0.843  0.00  0.00    +0.042 A 
ATOM     18 CL   LIG    1       -7.263  -3.432   0.854  0.00  0.00    -0.083 Cl
ATOM     19  C   LIG    1       -4.753  -2.916  -0.014  0.00  0.00    +0.040 A 
ATOM     20  C   LIG    1       -3.568  -2.209  -0.032  0.00  0.00    +0.051 A 
ATOM     21 CL   LIG    1       -2.292  -2.675  -1.113  0.00  0.00    -0.083 Cl
ENDBRANCH  13  14
ENDBRANCH   7  12
TORSDOF 4
