REMARK  Name = ZINC00021813
REMARK                            x       y       z     vdW  Elec       q    Type
REMARK                         _______ _______ _______ _____ _____    ______ ____
ROOT
ATOM      1  C   LIG    1        0.707  -0.490  -1.238  0.00  0.00    +0.055 C 
ATOM      2  C   LIG    1        0.002  -0.616  -2.418  0.00  0.00    +0.022 C 
ATOM      3  C   LIG    1        0.657  -1.065  -3.557  0.00  0.00    -0.010 C 
ATOM      4  C   LIG    1       -0.082  -1.215  -4.862  0.00  0.00    +0.007 C 
ATOM      5  C   LIG    1        2.003  -1.371  -3.467  0.00  0.00    +0.037 C 
ATOM      6  C   LIG    1        2.651  -1.220  -2.246  0.00  0.00    +0.119 C 
ATOM      7  N   LIG    1        1.992  -0.784  -1.183  0.00  0.00    -0.299 NA
ATOM      8  H   LIG    1        2.466  -0.683  -0.342  0.00  0.00    +0.124 HD
ENDROOT
BRANCH   6   9
ATOM      9  N   LIG    1        4.003  -1.524  -2.142  0.00  0.00    -0.316 NA
ATOM     10  H   LIG    1        4.460  -1.421  -1.292  0.00  0.00    +0.120 HD
ATOM     11  H   LIG    1        4.491  -1.840  -2.918  0.00  0.00    +0.120 HD
ENDBRANCH   6   9
BRANCH   1  13
ATOM     12  C   LIG    1       -0.019   1.526   0.010  0.00  0.00    +0.005 C 
ATOM     13  C   LIG    1        0.002  -0.004   0.002  0.00  0.00    +0.015 C 
ENDBRANCH   1  13
TORSDOF 2
