REMARK  Name = ZINC00010037
REMARK                            x       y       z     vdW  Elec       q    Type
REMARK                         _______ _______ _______ _____ _____    ______ ____
ROOT
ATOM      1  C   LIG    1        0.058  -4.256  -0.021  0.00  0.00    +0.094 A 
ATOM      2  C   LIG    1        0.069  -5.088   1.114  0.00  0.00    +0.073 A 
ATOM      3  C   LIG    1        0.086  -6.377   0.684  0.00  0.00    +0.121 A 
ATOM      4  N   LIG    1        0.085  -6.360  -0.675  0.00  0.00    -0.263 N 
ATOM      5  H   LIG    1        0.095  -7.137  -1.255  0.00  0.00    +0.190 HD
ATOM      6  N   LIG    1        0.062  -5.022  -1.091  0.00  0.00    -0.172 NA
ENDROOT
BRANCH   1  11
ATOM      7  C   LIG    1       -0.018   1.503   0.010  0.00  0.00    +0.044 C 
ATOM      8  C   LIG    1        0.002  -0.004   0.002  0.00  0.00    -0.050 A 
ATOM      9  C   LIG    1        0.006  -0.686  -1.201  0.00  0.00    +0.004 A 
ATOM     10  C   LIG    1        0.024  -2.067  -1.214  0.00  0.00    +0.010 A 
ATOM     11  C   LIG    1        0.039  -2.772  -0.013  0.00  0.00    +0.002 A 
ATOM     12  C   LIG    1        0.036  -2.080   1.196  0.00  0.00    +0.010 A 
ATOM     13  C   LIG    1        0.023  -0.700   1.198  0.00  0.00    +0.004 A 
ENDBRANCH   1  11
BRANCH   3  14
ATOM     14  N   LIG    1        0.101  -7.514   1.492  0.00  0.00    -0.270 N 
ATOM     15  H   LIG    1        0.113  -8.396   1.088  0.00  0.00    +0.156 HD
ATOM     16  C   LIG    1        0.101  -7.387   2.834  0.00  0.00    +0.222 C 
ATOM     17  O   LIG    1        0.087  -6.284   3.338  0.00  0.00    -0.275 OA
BRANCH  16  18
ATOM     18  C   LIG    1        0.117  -8.615   3.707  0.00  0.00    +0.084 C 
ATOM     19  C   LIG    1        1.456  -9.371   3.565  0.00  0.00    +0.048 C 
ATOM     20  C   LIG    1        1.746  -9.925   4.943  0.00  0.00    -0.043 A 
ATOM     21  C   LIG    1        2.616 -10.925   5.343  0.00  0.00    +0.004 A 
ATOM     22  C   LIG    1        2.715 -11.267   6.678  0.00  0.00    +0.000 A 
ATOM     23  C   LIG    1        1.944 -10.609   7.618  0.00  0.00    +0.000 A 
ATOM     24  C   LIG    1        1.075  -9.612   7.221  0.00  0.00    +0.004 A 
ATOM     25  C   LIG    1        0.975  -9.267   5.883  0.00  0.00    -0.043 A 
ATOM     26  C   LIG    1        0.113  -8.226   5.201  0.00  0.00    +0.048 C 
ENDBRANCH  16  18
ENDBRANCH   3  14
TORSDOF 3
