REMARK  Name = ZINC00011622
REMARK                            x       y       z     vdW  Elec       q    Type
REMARK                         _______ _______ _______ _____ _____    ______ ____
ROOT
ATOM      1  C   LIG    1        0.042  -1.831   1.537  0.00  0.00    +0.404 C 
ATOM      2  N   LIG    1        0.060  -2.353   2.780  0.00  0.00    -0.256 N 
ATOM      3  C   LIG    1        0.068  -1.581   4.036  0.00  0.00    +0.112 C 
ATOM      4  C   LIG    1       -0.526  -2.546   5.095  0.00  0.00    +0.021 C 
ATOM      5  C   LIG    1        0.073  -3.905   4.646  0.00  0.00    +0.033 C 
ATOM      6  C   LIG    1        0.083  -3.786   3.107  0.00  0.00    +0.165 C 
ATOM      7  O   LIG    1        0.042  -2.566   0.570  0.00  0.00    -0.226 OA
ENDROOT
BRANCH   6   8
ATOM      8  C   LIG    1        1.333  -4.419   2.552  0.00  0.00    +0.236 C 
ATOM      9  N   LIG    1        1.400  -5.756   2.397  0.00  0.00    -0.300 N 
ATOM     10  C   LIG    1        0.334  -6.711   2.732  0.00  0.00    +0.108 C 
ATOM     11  C   LIG    1        0.867  -8.123   2.409  0.00  0.00    +0.020 C 
ATOM     12  C   LIG    1        2.406  -7.930   2.451  0.00  0.00    +0.020 C 
ATOM     13  C   LIG    1        2.556  -6.503   1.868  0.00  0.00    +0.108 C 
ATOM     14  O   LIG    1        2.279  -3.725   2.246  0.00  0.00    -0.274 OA
ENDBRANCH   6   8
BRANCH   1  15
ATOM     15  O   LIG    1        0.022  -0.495   1.368  0.00  0.00    -0.445 OA
BRANCH  15  16
ATOM     16  C   LIG    1        0.002  -0.004   0.002  0.00  0.00    +0.269 C 
BRANCH  16  20
ATOM     17  C   LIG    1       -0.056   4.267   0.025  0.00  0.00    +0.000 A 
ATOM     18  C   LIG    1        1.151   3.592   0.010  0.00  0.00    +0.000 A 
ATOM     19  C   LIG    1        1.169   2.210   0.003  0.00  0.00    +0.007 A 
ATOM     20  C   LIG    1       -0.018   1.503   0.010  0.00  0.00    -0.010 A 
ATOM     21  C   LIG    1       -1.225   2.178   0.020  0.00  0.00    +0.007 A 
ATOM     22  C   LIG    1       -1.244   3.560   0.032  0.00  0.00    +0.000 A 
ENDBRANCH  16  20
ENDBRANCH  15  16
ENDBRANCH   1  15
TORSDOF 4
