REMARK  Name = ZINC00058129
REMARK                            x       y       z     vdW  Elec       q    Type
REMARK                         _______ _______ _______ _____ _____    ______ ____
ROOT
ATOM      1  C   LIG    1       -1.191   3.254   0.030  0.00  0.00    +0.204 A 
ATOM      2  N   LIG    1       -0.080   3.954   0.024  0.00  0.00    -0.194 NA
ATOM      3  C   LIG    1        1.116   3.354   0.009  0.00  0.00    +0.186 A 
ATOM      4  N   LIG    1        2.409   3.803   0.000  0.00  0.00    -0.216 NA
ATOM      5  C   LIG    1        3.223   2.709  -0.013  0.00  0.00    +0.199 A 
ATOM      6  N   LIG    1        2.504   1.624  -0.013  0.00  0.00    -0.339 N 
ATOM      7  H   LIG    1        2.864   0.691  -0.021  0.00  0.00    +0.167 HD
ATOM      8  C   LIG    1        1.191   1.957   0.001  0.00  0.00    +0.150 A 
ATOM      9  C   LIG    1       -0.015   1.215   0.008  0.00  0.00    +0.278 A 
ATOM     10  O   LIG    1        0.002  -0.004   0.002  0.00  0.00    -0.265 OA
ATOM     11  N   LIG    1       -1.184   1.892   0.017  0.00  0.00    -0.293 N 
ATOM     12  H   LIG    1       -2.049   1.390   0.014  0.00  0.00    +0.172 HD
ENDROOT
BRANCH   1  15
ATOM     13  C   LIG    1       -3.750   5.990   0.087  0.00  0.00    +0.109 C 
ATOM     14  C   LIG    1       -2.429   5.265   0.064  0.00  0.00    +0.216 C 
ATOM     15  N   LIG    1       -2.400   3.918   0.051  0.00  0.00    -0.256 N 
ATOM     16  H   LIG    1       -2.854   3.566   0.870  0.00  0.00    +0.158 HD
ATOM     17  O   LIG    1       -1.392   5.894   0.058  0.00  0.00    -0.276 OA
ENDBRANCH   1  15
TORSDOF 1
