REMARK  Name = ZINC00002216
REMARK                            x       y       z     vdW  Elec       q    Type
REMARK                         _______ _______ _______ _____ _____    ______ ____
ROOT
ATOM      1  C   LIG    1        0.641   0.270   1.161  0.00  0.00    +0.024 A 
ATOM      2  C   LIG    1        1.828   0.979   1.167  0.00  0.00    +0.051 A 
ATOM      3  C   LIG    1        2.381   1.415  -0.026  0.00  0.00    +0.170 A 
ATOM      4  C   LIG    1        1.740   1.137  -1.230  0.00  0.00    +0.160 A 
ATOM      5  C   LIG    1        0.551   0.426  -1.231  0.00  0.00    +0.069 A 
ATOM      6  C   LIG    1        0.004  -0.007  -0.036  0.00  0.00    +0.045 A 
ATOM      7 CL   LIG    1       -1.486  -0.898  -0.038  0.00  0.00    -0.083 Cl
ENDROOT
BRANCH   4   8
ATOM      8  O   LIG    1        2.279   1.563  -2.404  0.00  0.00    -0.503 OA
ATOM      9  H   LIG    1        2.888   0.931  -2.809  0.00  0.00    +0.292 HD
ENDBRANCH   4   8
BRANCH   3  10
ATOM     10  O   LIG    1        3.548   2.114  -0.021  0.00  0.00    -0.451 OA
BRANCH  10  11
ATOM     11  C   LIG    1        3.481   3.468  -0.118  0.00  0.00    +0.147 A 
ATOM     12  C   LIG    1        2.249   4.106  -0.101  0.00  0.00    +0.049 A 
ATOM     13  C   LIG    1        2.184   5.482  -0.199  0.00  0.00    +0.023 A 
ATOM     14  C   LIG    1        3.346   6.225  -0.315  0.00  0.00    +0.043 A 
ATOM     15 CL   LIG    1        3.260   7.955  -0.438  0.00  0.00    -0.083 Cl
ATOM     16  C   LIG    1        4.575   5.592  -0.333  0.00  0.00    +0.043 A 
ATOM     17  C   LIG    1        4.646   4.215  -0.229  0.00  0.00    +0.085 A 
ATOM     18 CL   LIG    1        6.190   3.421  -0.244  0.00  0.00    -0.080 Cl
ENDBRANCH  10  11
ENDBRANCH   3  10
TORSDOF 3
