REMARK  Name = ZINC00009880
REMARK                            x       y       z     vdW  Elec       q    Type
REMARK                         _______ _______ _______ _____ _____    ______ ____
ROOT
ATOM      1  C   LIG    1        4.897  -0.037  -0.044  0.00  0.00    +0.026 A 
ATOM      2  C   LIG    1        4.927   1.350  -0.037  0.00  0.00    +0.017 A 
ATOM      3  C   LIG    1        3.741   2.032  -0.028  0.00  0.00    +0.017 A 
ATOM      4  C   LIG    1        2.557   1.309  -0.015  0.00  0.00    +0.027 A 
ATOM      5  S   LIG    1        3.145  -0.377  -0.029  0.00  0.00    -0.087 S 
ENDROOT
BRANCH   1   8
ATOM      6  C   LIG    1        7.195  -3.043  -0.082  0.00  0.00    +0.008 A 
ATOM      7  C   LIG    1        5.996  -2.367  -0.067  0.00  0.00    +0.016 A 
ATOM      8  C   LIG    1        6.021  -0.984  -0.060  0.00  0.00    +0.026 A 
ATOM      9  S   LIG    1        7.775  -0.650  -0.083  0.00  0.00    -0.096 S 
ATOM     10  C   LIG    1        8.356  -2.338  -0.090  0.00  0.00    +0.046 A 
ENDBRANCH   1   8
BRANCH   4  11
ATOM     11  C   LIG    1        1.177   1.802   0.001  0.00  0.00    +0.027 A 
ATOM     12  C   LIG    1       -0.013   1.076   0.008  0.00  0.00    +0.017 A 
ATOM     13  C   LIG    1       -1.192   1.753   0.017  0.00  0.00    +0.019 A 
ATOM     14  C   LIG    1       -1.163   3.148   0.030  0.00  0.00    +0.052 A 
ATOM     15  S   LIG    1        0.590   3.488   0.015  0.00  0.00    -0.085 S 
BRANCH  14  16
ATOM     16  C   LIG    1       -2.239   4.054   0.045  0.00  0.00    +0.265 C 
ATOM     17  O   LIG    1       -3.381   3.640   0.053  0.00  0.00    -0.295 OA
ENDBRANCH  14  16
ENDBRANCH   4  11
TORSDOF 3
