REMARK  Name = ZINC00057060
REMARK                            x       y       z     vdW  Elec       q    Type
REMARK                         _______ _______ _______ _____ _____    ______ ____
ROOT
ATOM      1  C   LIG    1       -2.551  -4.195   0.004  0.00  0.00    -0.021 A 
ATOM      2  C   LIG    1       -2.639  -4.989  -1.075  0.00  0.00    +0.087 A 
ATOM      3  N   LIG    1       -2.585  -6.301  -0.695  0.00  0.00    -0.360 N 
ATOM      4  C   LIG    1       -2.458  -6.387   0.676  0.00  0.00    +0.047 A 
ATOM      5  C   LIG    1       -2.362  -7.455   1.561  0.00  0.00    +0.030 A 
ATOM      6  C   LIG    1       -2.227  -7.220   2.912  0.00  0.00    +0.047 A 
ATOM      7  C   LIG    1       -2.198  -5.919   3.405  0.00  0.00    +0.121 A 
ATOM      8  C   LIG    1       -2.296  -4.845   2.543  0.00  0.00    +0.056 A 
ATOM      9  H   LIG    1       -2.629  -7.059  -1.299  0.00  0.00    +0.165 HD
ATOM     10  C   LIG    1       -2.425  -5.071   1.171  0.00  0.00    +0.006 A 
ENDROOT
BRANCH   7  11
ATOM     11  O   LIG    1       -2.072  -5.704   4.742  0.00  0.00    -0.495 OA
ATOM     12  C   LIG    1       -1.975  -6.859   5.578  0.00  0.00    +0.277 C 
ENDBRANCH   7  11
BRANCH   1  13
ATOM     13  C   LIG    1       -2.571  -2.688   0.012  0.00  0.00    +0.056 C 
BRANCH  13  14
ATOM     14  C   LIG    1       -1.136  -2.159   0.001  0.00  0.00    +0.109 C 
BRANCH  14  17
ATOM     15  C   LIG    1       -0.018   1.503   0.010  0.00  0.00    +0.109 C 
ATOM     16  C   LIG    1        0.002  -0.004   0.002  0.00  0.00    +0.210 C 
ATOM     17  N   LIG    1       -1.156  -0.694   0.009  0.00  0.00    -0.315 N 
ATOM     18  H   LIG    1       -2.002  -0.220   0.020  0.00  0.00    +0.149 HD
ATOM     19  O   LIG    1        1.060  -0.596  -0.011  0.00  0.00    -0.276 OA
ENDBRANCH  14  17
ENDBRANCH  13  14
ENDBRANCH   1  13
TORSDOF 4
