REMARK  Name = ZINC00011988
REMARK                            x       y       z     vdW  Elec       q    Type
REMARK                         _______ _______ _______ _____ _____    ______ ____
ROOT
ATOM      1  C   LIG    1       -1.720   2.815  -5.903  0.00  0.00    +0.000 C 
ATOM      2  C   LIG    1       -0.411   2.341  -5.874  0.00  0.00    +0.002 C 
ATOM      3  C   LIG    1        0.157   1.919  -4.711  0.00  0.00    +0.019 C 
ATOM      4  C   LIG    1       -0.585   1.960  -3.517  0.00  0.00    +0.059 C 
ATOM      5  N   LIG    1        0.022   1.523  -2.361  0.00  0.00    -0.307 NA
ATOM      6  H   LIG    1        0.988   1.174  -2.354  0.00  0.00    +0.123 HD
ATOM      7  C   LIG    1       -0.732   1.580  -1.223  0.00  0.00    +0.087 C 
ATOM      8  C   LIG    1       -0.013   1.086   0.008  0.00  0.00    +0.132 C 
ATOM      9  C   LIG    1       -0.716   1.573   1.272  0.00  0.00    +0.033 C 
ATOM     10  C   LIG    1       -2.203   1.214   1.168  0.00  0.00    +0.003 C 
ATOM     11  C   LIG    1       -2.836   2.098   0.095  0.00  0.00    +0.007 C 
ATOM     12  C   LIG    1       -2.034   2.043  -1.178  0.00  0.00    +0.025 C 
ATOM     13  C   LIG    1       -2.651   2.481  -2.346  0.00  0.00    +0.060 C 
ATOM     14  C   LIG    1       -1.915   2.442  -3.551  0.00  0.00    +0.023 C 
ATOM     15  C   LIG    1       -2.469   2.869  -4.766  0.00  0.00    +0.006 C 
ENDROOT
BRANCH  13  16
ATOM     16  N   LIG    1       -3.957   2.946  -2.328  0.00  0.00    -0.327 NA
ATOM     17  H   LIG    1       -4.376   3.249  -3.148  0.00  0.00    +0.118 HD
ATOM     18  H   LIG    1       -4.452   2.968  -1.494  0.00  0.00    +0.118 HD
ENDBRANCH  13  16
BRANCH   8  19
ATOM     19  O   LIG    1        1.330   1.575  -0.002  0.00  0.00    -0.390 OA
ATOM     20  H   LIG    1        1.843   1.299  -0.774  0.00  0.00    +0.210 HD
ENDBRANCH   8  19
TORSDOF 2
