REMARK  Name = ZINC00014006
REMARK                            x       y       z     vdW  Elec       q    Type
REMARK                         _______ _______ _______ _____ _____    ______ ____
ROOT
ATOM      1  C   LIG    1       -0.026   1.523   0.003  0.00  0.00    +0.058 C 
ATOM      2  C   LIG    1       -0.004  -0.006  -0.006  0.00  0.00    +0.133 C 
ATOM      3  C   LIG    1       -1.432  -0.543   0.111  0.00  0.00    +0.058 C 
ATOM      4  C   LIG    1        0.631  -0.506  -1.310  0.00  0.00    +0.182 C 
ATOM      5  C   LIG    1        2.012   0.138  -1.450  0.00  0.00    +0.142 C 
ATOM      6  C   LIG    1        2.773  -0.006  -0.156  0.00  0.00    +0.018 A 
ATOM      7  C   LIG    1        4.144   0.161  -0.172  0.00  0.00    +0.028 A 
ATOM      8  C   LIG    1        4.880   0.039   1.008  0.00  0.00    +0.052 A 
ATOM      9  C   LIG    1        4.222  -0.253   2.207  0.00  0.00    +0.022 A 
ATOM     10  C   LIG    1        2.857  -0.419   2.214  0.00  0.00    +0.047 A 
ATOM     11  C   LIG    1        2.124  -0.299   1.034  0.00  0.00    +0.127 A 
ATOM     12  O   LIG    1        0.780  -0.482   1.088  0.00  0.00    -0.483 OA
ENDROOT
BRANCH   5  13
ATOM     13  N   LIG    1        1.857   1.560  -1.768  0.00  0.00    -0.292 N 
ATOM     14  C   LIG    1        1.160   2.072  -2.954  0.00  0.00    +0.109 C 
ATOM     15  C   LIG    1        0.870   3.559  -2.651  0.00  0.00    +0.028 C 
ATOM     16  C   LIG    1        1.984   3.897  -1.633  0.00  0.00    +0.097 C 
ATOM     17  C   LIG    1        2.330   2.563  -1.008  0.00  0.00    +0.216 C 
ATOM     18  O   LIG    1        2.946   2.420   0.027  0.00  0.00    -0.276 OA
ENDBRANCH   5  13
BRANCH   4  19
ATOM     19  O   LIG    1        0.764  -1.928  -1.267  0.00  0.00    -0.386 OA
ATOM     20  H   LIG    1       -0.074  -2.399  -1.162  0.00  0.00    +0.210 HD
ENDBRANCH   4  19
BRANCH   8  21
ATOM     21  C   LIG    1        6.301   0.210   0.991  0.00  0.00    +0.099 C 
ATOM     22  N   LIG    1        7.429   0.347   0.977  0.00  0.00    -0.191 NA
ENDBRANCH   8  21
TORSDOF 3
