REMARK  Name = ZINC00007873
REMARK                            x       y       z     vdW  Elec       q    Type
REMARK                         _______ _______ _______ _____ _____    ______ ____
ROOT
ATOM      1  C   LIG    1       -3.689   7.186  -4.972  0.00  0.00    +0.159 A 
ATOM      2  N   LIG    1       -3.095   6.962  -3.823  0.00  0.00    -0.225 NA
ATOM      3  C   LIG    1       -3.155   5.765  -3.195  0.00  0.00    +0.084 A 
ATOM      4  C   LIG    1       -2.570   5.397  -1.962  0.00  0.00    -0.017 A 
ATOM      5  C   LIG    1       -1.764   6.409  -1.190  0.00  0.00    +0.046 C 
ATOM      6  C   LIG    1       -2.723   4.130  -1.463  0.00  0.00    +0.004 A 
ATOM      7  C   LIG    1       -3.464   3.167  -2.141  0.00  0.00    +0.125 A 
ATOM      8  C   LIG    1       -4.056   3.498  -3.351  0.00  0.00    +0.007 A 
ATOM      9  C   LIG    1       -4.863   2.473  -4.106  0.00  0.00    +0.049 C 
ATOM     10  C   LIG    1       -3.901   4.764  -3.857  0.00  0.00    +0.047 A 
ATOM     11  S   LIG    1       -4.455   5.609  -5.319  0.00  0.00    -0.052 S 
ENDROOT
BRANCH   1  12
ATOM     12  N   LIG    1       -3.715   8.345  -5.722  0.00  0.00    -0.324 N 
ATOM     13  H   LIG    1       -3.249   9.136  -5.409  0.00  0.00    +0.148 HD
BRANCH  12  15
ATOM     14  C   LIG    1       -4.316   9.770  -7.617  0.00  0.00    +0.024 C 
ATOM     15  C   LIG    1       -4.446   8.380  -6.991  0.00  0.00    +0.100 C 
ENDBRANCH  12  15
ENDBRANCH   1  12
BRANCH   7  16
ATOM     16  O   LIG    1       -3.607   1.918  -1.623  0.00  0.00    -0.506 OA
ATOM     17  H   LIG    1       -4.376   1.817  -1.047  0.00  0.00    +0.292 HD
ENDBRANCH   7  16
BRANCH   6  18
ATOM     18  C   LIG    1       -2.079   3.773  -0.148  0.00  0.00    +0.075 C 
BRANCH  18  19
ATOM     19  C   LIG    1       -0.725   3.163  -0.401  0.00  0.00    -0.025 A 
ATOM     20  C   LIG    1       -0.594   1.793  -0.575  0.00  0.00    +0.007 A 
ATOM     21  C   LIG    1        0.672   1.275  -0.800  0.00  0.00    +0.020 A 
ATOM     22  C   LIG    1        1.752   2.135  -0.856  0.00  0.00    +0.111 A 
ATOM     23  N   LIG    1        1.590   3.433  -0.691  0.00  0.00    -0.263 NA
ATOM     24  C   LIG    1        0.401   3.961  -0.469  0.00  0.00    +0.114 A 
ENDBRANCH  18  19
ENDBRANCH   6  18
TORSDOF 5
