REMARK  Name = ZINC00025764
REMARK                            x       y       z     vdW  Elec       q    Type
REMARK                         _______ _______ _______ _____ _____    ______ ____
ROOT
ATOM      1  C   LIG    1       -0.501   1.619   1.266  0.00  0.00    +0.207 C 
ENDROOT
BRANCH   1   2
ATOM      2  C   LIG    1        0.164   1.214  -0.051  0.00  0.00    +0.031 C 
ATOM      3  C   LIG    1       -0.757   1.568  -1.221  0.00  0.00    -0.012 C 
ATOM      4  C   LIG    1       -0.060   1.215  -2.537  0.00  0.00    -0.082 C 
ATOM      5  N   LIG    1        1.204   1.968  -2.649  0.00  0.00    +0.379 N 
ATOM      6  H   LIG    1        1.648   1.751  -3.549  0.00  0.00    -0.086 HD
ATOM      7  H   LIG    1        1.004   2.974  -2.599  0.00  0.00    -0.086 HD
ATOM      8  C   LIG    1        2.121   1.600  -1.553  0.00  0.00    -0.082 C 
ATOM      9  C   LIG    1        1.489   1.965  -0.208  0.00  0.00    -0.012 C 
ENDBRANCH   1   2
BRANCH   1  13
ATOM     10  C   LIG    1       -4.022  -0.724   1.865  0.00  0.00    +0.000 A 
ATOM     11  C   LIG    1       -2.851  -1.057   2.519  0.00  0.00    +0.000 A 
ATOM     12  C   LIG    1       -1.711  -0.299   2.325  0.00  0.00    +0.007 A 
ATOM     13  C   LIG    1       -1.743   0.793   1.477  0.00  0.00    -0.007 A 
ATOM     14  C   LIG    1       -2.916   1.129   0.827  0.00  0.00    +0.007 A 
ATOM     15  C   LIG    1       -4.054   0.367   1.017  0.00  0.00    +0.000 A 
ENDBRANCH   1  13
BRANCH   1  16
ATOM     16  O   LIG    1       -0.853   3.003   1.215  0.00  0.00    -0.484 OA
BRANCH  16  17
ATOM     17  C   LIG    1       -0.969   3.655   2.403  0.00  0.00    +0.122 A 
ATOM     18  C   LIG    1       -1.189   5.024   2.425  0.00  0.00    +0.048 A 
ATOM     19  C   LIG    1       -1.313   5.684   3.632  0.00  0.00    +0.042 A 
ATOM     20  C   LIG    1       -1.206   4.981   4.820  0.00  0.00    +0.124 A 
ATOM     21  F   LIG    1       -1.323   5.628   6.000  0.00  0.00    -0.205 F 
ATOM     22  C   LIG    1       -0.981   3.615   4.800  0.00  0.00    +0.042 A 
ATOM     23  C   LIG    1       -0.862   2.952   3.594  0.00  0.00    +0.048 A 
ENDBRANCH  16  17
ENDBRANCH   1  16
TORSDOF 4
