REMARK  Name = ZINC00003724
REMARK                            x       y       z     vdW  Elec       q    Type
REMARK                         _______ _______ _______ _____ _____    ______ ____
ROOT
ATOM      1  C   LIG    1       -0.017   1.381   0.010  0.00  0.00    +0.039 A 
ATOM      2  C   LIG    1        1.166   2.091   0.002  0.00  0.00    +0.011 A 
ATOM      3  C   LIG    1        2.386   1.415  -0.014  0.00  0.00    -0.011 A 
ATOM      4  C   LIG    1        2.397   0.020  -0.021  0.00  0.00    -0.000 A 
ATOM      5  C   LIG    1        3.836  -0.412  -0.035  0.00  0.00    +0.165 C 
ATOM      6  C   LIG    1        4.138  -1.278  -1.232  0.00  0.00    +0.253 C 
ATOM      7  N   LIG    1        4.567  -2.453  -0.724  0.00  0.00    -0.238 N 
ATOM      8  H   LIG    1        4.837  -3.214  -1.262  0.00  0.00    +0.159 HD
ATOM      9  C   LIG    1        4.574  -2.438   0.615  0.00  0.00    +0.307 C 
ATOM     10  O   LIG    1        4.920  -3.380   1.300  0.00  0.00    -0.252 OA
ATOM     11  O   LIG    1        4.021  -0.982  -2.402  0.00  0.00    -0.272 OA
ATOM     12  C   LIG    1        4.666   0.840  -0.041  0.00  0.00    -0.000 A 
ATOM     13  C   LIG    1        6.027   1.059  -0.058  0.00  0.00    +0.045 A 
ATOM     14  C   LIG    1        6.523   2.353  -0.058  0.00  0.00    +0.124 A 
ATOM     15  F   LIG    1        7.857   2.564  -0.074  0.00  0.00    -0.205 F 
ATOM     16  C   LIG    1        5.652   3.430  -0.042  0.00  0.00    +0.039 A 
ATOM     17  C   LIG    1        4.289   3.220  -0.026  0.00  0.00    +0.011 A 
ATOM     18  N   LIG    1        4.153  -1.260   1.117  0.00  0.00    -0.278 N 
ATOM     19  H   LIG    1        4.075  -1.022   2.054  0.00  0.00    +0.152 HD
ATOM     20  C   LIG    1        1.211  -0.682  -0.013  0.00  0.00    +0.045 A 
ATOM     21  C   LIG    1        3.783   1.919  -0.026  0.00  0.00    -0.011 A 
ATOM     22  C   LIG    1        0.002  -0.004   0.002  0.00  0.00    +0.124 A 
ATOM     23  F   LIG    1       -1.159  -0.695   0.009  0.00  0.00    -0.205 F 
ENDROOT
TORSDOF 0
