REMARK  Name = ZINC00001281
REMARK                            x       y       z     vdW  Elec       q    Type
REMARK                         _______ _______ _______ _____ _____    ______ ____
ROOT
ATOM      1  C   LIG    1       -0.181   1.036   0.200  0.00  0.00    +0.000 A 
ATOM      2  C   LIG    1        0.924   1.848   0.022  0.00  0.00    +0.002 A 
ATOM      3  C   LIG    1        2.186   1.293  -0.057  0.00  0.00    +0.023 A 
ATOM      4  C   LIG    1        2.345  -0.084   0.043  0.00  0.00    +0.035 A 
ATOM      5  C   LIG    1        1.233  -0.897   0.222  0.00  0.00    -0.016 A 
ATOM      6  C   LIG    1       -0.026  -0.335   0.300  0.00  0.00    +0.006 A 
ENDROOT
BRANCH   4   7
ATOM      7  N   LIG    1        3.620  -0.649  -0.036  0.00  0.00    -0.312 N 
ATOM      8  H   LIG    1        4.262  -0.500   0.675  0.00  0.00    +0.152 HD
BRANCH   7   9
ATOM      9  C   LIG    1        3.970  -1.431  -1.142  0.00  0.00    +0.068 A 
ATOM     10  C   LIG    1        3.353  -1.219  -2.369  0.00  0.00    +0.063 A 
ATOM     11 CL   LIG    1        2.144   0.016  -2.531  0.00  0.00    -0.082 Cl
ATOM     12  C   LIG    1        3.702  -1.994  -3.459  0.00  0.00    +0.022 A 
ATOM     13  C   LIG    1        4.664  -2.979  -3.330  0.00  0.00    +0.003 A 
ATOM     14  C   LIG    1        5.280  -3.193  -2.111  0.00  0.00    +0.022 A 
ATOM     15  C   LIG    1        4.941  -2.418  -1.017  0.00  0.00    +0.063 A 
ATOM     16 CL   LIG    1        5.722  -2.682   0.511  0.00  0.00    -0.082 Cl
ENDBRANCH   7   9
ENDBRANCH   4   7
BRANCH   5  17
ATOM     17  C   LIG    1        1.400  -2.391   0.331  0.00  0.00    +0.157 C 
BRANCH  17  18
ATOM     18  C   LIG    1        1.718  -2.758   1.758  0.00  0.00    +0.309 C 
ATOM     19  O   LIG    1        1.801  -1.887   2.607  0.00  0.00    -0.251 OA
BRANCH  18  20
ATOM     20  O   LIG    1        1.892  -3.926   2.062  0.00  0.00    -0.480 OA
ATOM     21  H   LIG    1        1.828  -4.595   1.409  0.00  0.00    +0.295 HD
ENDBRANCH  18  20
ENDBRANCH  17  18
ENDBRANCH   5  17
TORSDOF 5
