REMARK  Name = ZINC00001677
REMARK                            x       y       z     vdW  Elec       q    Type
REMARK                         _______ _______ _______ _____ _____    ______ ____
ROOT
ATOM      1  C   LIG    1       -0.018   1.503   0.010  0.00  0.00    +0.048 C 
ATOM      2  C   LIG    1        0.002  -0.004   0.002  0.00  0.00    +0.000 C 
ATOM      3  C   LIG    1        0.005  -0.658  -1.167  0.00  0.00    +0.058 C 
ATOM      4  C   LIG    1        0.025  -2.133  -1.210  0.00  0.00    +0.187 C 
ATOM      5  C   LIG    1        0.042  -2.904   0.051  0.00  0.00    +0.032 A 
ATOM      6  C   LIG    1        0.061  -4.293   0.038  0.00  0.00    +0.012 A 
ATOM      7  C   LIG    1        0.077  -4.993   1.235  0.00  0.00    +0.001 A 
ATOM      8  C   LIG    1        0.073  -4.318   2.441  0.00  0.00    +0.001 A 
ATOM      9  C   LIG    1        0.054  -2.933   2.470  0.00  0.00    +0.012 A 
ATOM     10  C   LIG    1        0.038  -2.217   1.279  0.00  0.00    +0.033 A 
ATOM     11  O   LIG    1        0.028  -2.711  -2.279  0.00  0.00    -0.287 OA
ATOM     12  C   LIG    1        0.024  -0.738   1.281  0.00  0.00    +0.190 C 
ATOM     13  O   LIG    1        0.026  -0.131   2.333  0.00  0.00    -0.287 OA
ENDROOT
TORSDOF 0
