REMARK  Name = ZINC00037185
REMARK                            x       y       z     vdW  Elec       q    Type
REMARK                         _______ _______ _______ _____ _____    ______ ____
ROOT
ATOM      1  C   LIG    1        0.108   2.506   4.789  0.00  0.00    +0.279 C 
ATOM      2  N   LIG    1       -0.509   3.036   5.864  0.00  0.00    -0.202 N 
ATOM      3  C   LIG    1        0.089   3.406   7.032  0.00  0.00    +0.133 A 
ATOM      4  C   LIG    1       -0.874   3.889   7.848  0.00  0.00    +0.056 A 
ATOM      5 BR   LIG    1       -0.618   4.548   9.601  0.00  0.00    -0.047 Br
ATOM      6  C   LIG    1       -2.097   3.814   7.165  0.00  0.00    +0.150 A 
ATOM      7  N   LIG    1       -1.878   3.310   5.979  0.00  0.00    -0.171 NA
ATOM      8  O   LIG    1        1.291   2.235   4.840  0.00  0.00    -0.265 OA
ENDROOT
BRANCH   1  14
ATOM      9  C   LIG    1       -0.003   1.150  -0.011  0.00  0.00    +0.044 C 
ATOM     10  C   LIG    1       -0.714   1.602   1.239  0.00  0.00    -0.050 A 
ATOM     11  C   LIG    1       -2.085   1.788   1.225  0.00  0.00    +0.003 A 
ATOM     12  C   LIG    1       -2.746   2.198   2.369  0.00  0.00    +0.001 A 
ATOM     13  C   LIG    1       -2.040   2.435   3.530  0.00  0.00    +0.013 A 
ATOM     14  C   LIG    1       -0.655   2.255   3.550  0.00  0.00    +0.041 A 
ATOM     15  C   LIG    1        0.005   1.835   2.393  0.00  0.00    +0.016 A 
ENDBRANCH   1  14
TORSDOF 1
