REMARK  Name = ZINC00057064
REMARK                            x       y       z     vdW  Elec       q    Type
REMARK                         _______ _______ _______ _____ _____    ______ ____
ROOT
ATOM      1  C   LIG    1       -0.223   1.771   2.415  0.00  0.00    +0.404 C 
ATOM      2  N   LIG    1       -0.746   1.583   1.187  0.00  0.00    -0.256 N 
ATOM      3  C   LIG    1       -0.013   1.086   0.008  0.00  0.00    +0.112 C 
ATOM      4  C   LIG    1       -0.806   1.621  -1.210  0.00  0.00    +0.021 C 
ATOM      5  C   LIG    1       -2.269   1.504  -0.705  0.00  0.00    +0.033 C 
ATOM      6  C   LIG    1       -2.143   1.837   0.797  0.00  0.00    +0.165 C 
ATOM      7  O   LIG    1       -0.924   2.187   3.316  0.00  0.00    -0.226 OA
ENDROOT
BRANCH   6   8
ATOM      8  C   LIG    1       -3.070   0.957   1.596  0.00  0.00    +0.236 C 
ATOM      9  N   LIG    1       -4.381   1.259   1.679  0.00  0.00    -0.300 N 
ATOM     10  C   LIG    1       -5.036   2.413   1.047  0.00  0.00    +0.108 C 
ATOM     11  C   LIG    1       -6.528   2.362   1.435  0.00  0.00    +0.020 C 
ATOM     12  C   LIG    1       -6.519   1.508   2.730  0.00  0.00    +0.020 C 
ATOM     13  C   LIG    1       -5.394   0.488   2.422  0.00  0.00    +0.108 C 
ATOM     14  O   LIG    1       -2.635  -0.022   2.165  0.00  0.00    -0.274 OA
ENDBRANCH   6   8
BRANCH   1  15
ATOM     15  O   LIG    1        1.076   1.500   2.642  0.00  0.00    -0.445 OA
BRANCH  15  16
ATOM     16  C   LIG    1        1.571   1.727   3.988  0.00  0.00    +0.269 C 
BRANCH  16  20
ATOM     17  C   LIG    1        5.718   0.718   4.171  0.00  0.00    +0.000 A 
ATOM     18  C   LIG    1        5.333   2.006   3.846  0.00  0.00    +0.000 A 
ATOM     19  C   LIG    1        3.991   2.332   3.787  0.00  0.00    +0.007 A 
ATOM     20  C   LIG    1        3.034   1.371   4.053  0.00  0.00    -0.010 A 
ATOM     21  C   LIG    1        3.418   0.085   4.383  0.00  0.00    +0.007 A 
ATOM     22  C   LIG    1        4.760  -0.243   4.437  0.00  0.00    +0.000 A 
ENDBRANCH  16  20
ENDBRANCH  15  16
ENDBRANCH   1  15
TORSDOF 4
