REMARK  Name = ZINC00051756
REMARK                            x       y       z     vdW  Elec       q    Type
REMARK                         _______ _______ _______ _____ _____    ______ ____
ROOT
ATOM      1  N   LIG    1       -2.235   4.089   0.034  0.00  0.00    -0.321 N 
ATOM      2  C   LIG    1       -1.209   3.171   0.134  0.00  0.00    +0.067 A 
ATOM      3  C   LIG    1       -1.161   1.791   0.275  0.00  0.00    +0.028 A 
ATOM      4  C   LIG    1        0.059   1.154   0.351  0.00  0.00    +0.002 A 
ATOM      5  C   LIG    1        1.239   1.881   0.277  0.00  0.00    +0.002 A 
ATOM      6  C   LIG    1        1.213   3.239   0.133  0.00  0.00    +0.028 A 
ATOM      7  C   LIG    1       -0.013   3.908   0.058  0.00  0.00    +0.065 A 
ATOM      8  N   LIG    1       -0.355   5.212  -0.081  0.00  0.00    -0.338 N 
ATOM      9  H   LIG    1        0.308   5.992  -0.162  0.00  0.00    +0.167 HD
ATOM     10  C   LIG    1       -1.660   5.325  -0.096  0.00  0.00    +0.145 A 
ENDROOT
BRANCH  10  11
ATOM     11  C   LIG    1       -2.402   6.598  -0.232  0.00  0.00    +0.189 A 
ATOM     12  C   LIG    1       -1.872   7.981  -0.269  0.00  0.00    +0.191 A 
ATOM     13  N   LIG    1       -2.962   8.700  -0.404  0.00  0.00    -0.033 NA
ATOM     14  O   LIG    1       -3.925   7.971  -0.436  0.00  0.00    -0.240 OA
ATOM     15  N   LIG    1       -3.700   6.787  -0.346  0.00  0.00    -0.044 NA
BRANCH  12  16
ATOM     16  N   LIG    1       -0.554   8.409  -0.183  0.00  0.00    -0.339 N 
ATOM     17  H   LIG    1       -0.348   9.356  -0.221  0.00  0.00    +0.144 HD
ATOM     18  H   LIG    1        0.161   7.760  -0.085  0.00  0.00    +0.144 HD
ENDBRANCH  12  16
ENDBRANCH  10  11
BRANCH   1  20
ATOM     19  C   LIG    1       -4.022   2.867  -1.103  0.00  0.00    +0.030 C 
ATOM     20  C   LIG    1       -3.670   3.796   0.060  0.00  0.00    +0.083 C 
ATOM     21  C   LIG    1       -4.026   3.114   1.383  0.00  0.00    +0.030 C 
ENDBRANCH   1  20
TORSDOF 3
