REMARK  Name = ZINC00024149
REMARK                            x       y       z     vdW  Elec       q    Type
REMARK                         _______ _______ _______ _____ _____    ______ ____
ROOT
ATOM      1  C   LIG    1       -1.156   3.554   0.169  0.00  0.00    +0.034 A 
ATOM      2  C   LIG    1        0.061   4.224   0.171  0.00  0.00    +0.027 A 
ATOM      3  C   LIG    1        0.090   5.602   0.248  0.00  0.00    +0.048 A 
ATOM      4  C   LIG    1       -1.096   6.318   0.333  0.00  0.00    +0.129 A 
ATOM      5  C   LIG    1       -2.312   5.649   0.337  0.00  0.00    +0.048 A 
ATOM      6  C   LIG    1       -2.342   4.271   0.254  0.00  0.00    +0.027 A 
ENDROOT
BRANCH   1   9
ATOM      7  C   LIG    1       -0.139  -0.012  -0.481  0.00  0.00    +0.109 C 
ATOM      8  C   LIG    1       -0.172   1.494  -0.506  0.00  0.00    +0.214 C 
ATOM      9  N   LIG    1       -1.186   2.156   0.085  0.00  0.00    -0.286 N 
ATOM     10  H   LIG    1       -1.937   1.665   0.453  0.00  0.00    +0.155 HD
ATOM     11  O   LIG    1        0.712   2.111  -1.063  0.00  0.00    -0.276 OA
ENDBRANCH   1   9
BRANCH   4  12
ATOM     12  O   LIG    1       -1.067   7.674   0.414  0.00  0.00    -0.456 OA
BRANCH  12  13
ATOM     13  C   LIG    1        0.136   8.295   0.295  0.00  0.00    +0.132 A 
ATOM     14  C   LIG    1        0.670   8.987   1.374  0.00  0.00    +0.046 A 
ATOM     15  C   LIG    1        1.896   9.613   1.256  0.00  0.00    +0.007 A 
ATOM     16  C   LIG    1        2.588   9.561   0.061  0.00  0.00    +0.046 A 
ATOM     17  C   LIG    1        2.057   8.876  -1.022  0.00  0.00    +0.124 A 
ATOM     18  C   LIG    1        0.829   8.242  -0.904  0.00  0.00    +0.091 A 
BRANCH  17  19
ATOM     19  O   LIG    1        2.738   8.826  -2.196  0.00  0.00    -0.495 OA
ATOM     20  C   LIG    1        3.996   9.502  -2.245  0.00  0.00    +0.277 C 
ENDBRANCH  17  19
ENDBRANCH  12  13
ENDBRANCH   4  12
TORSDOF 4
