REMARK  Name = ZINC00003876
REMARK                            x       y       z     vdW  Elec       q    Type
REMARK                         _______ _______ _______ _____ _____    ______ ____
ROOT
ATOM      1  C   LIG    1        0.060  -4.256  -0.021  0.00  0.00    +0.068 A 
ATOM      2  C   LIG    1       -0.710  -5.068   0.755  0.00  0.00    +0.058 A 
ATOM      3  N   LIG    1       -0.382  -6.356   0.437  0.00  0.00    -0.304 N 
ATOM      4  C   LIG    1       -0.833  -7.561   0.896  0.00  0.00    +0.096 A 
ATOM      5  C   LIG    1       -0.333  -8.714   0.405  0.00  0.00    -0.034 A 
ATOM      6  C   LIG    1       -0.843 -10.034   0.925  0.00  0.00    +0.045 C 
ATOM      7  C   LIG    1        0.660  -8.691  -0.588  0.00  0.00    +0.008 A 
ATOM      8  C   LIG    1        1.118  -7.498  -1.055  0.00  0.00    +0.045 A 
ATOM      9  C   LIG    1        0.586  -6.301  -0.532  0.00  0.00    +0.116 A 
ATOM     10  N   LIG    1        0.835  -5.028  -0.799  0.00  0.00    -0.339 N 
ATOM     11  H   LIG    1        1.477  -4.705  -1.451  0.00  0.00    +0.167 HD
ENDROOT
BRANCH   1  16
ATOM     12  C   LIG    1       -0.018   1.503   0.010  0.00  0.00    +0.044 C 
ATOM     13  C   LIG    1        0.002  -0.004   0.002  0.00  0.00    -0.050 A 
ATOM     14  C   LIG    1        0.006  -0.686  -1.201  0.00  0.00    +0.004 A 
ATOM     15  C   LIG    1        0.024  -2.067  -1.215  0.00  0.00    +0.010 A 
ATOM     16  C   LIG    1        0.040  -2.772  -0.013  0.00  0.00    +0.000 A 
ATOM     17  C   LIG    1        0.037  -2.080   1.196  0.00  0.00    +0.010 A 
ATOM     18  C   LIG    1        0.023  -0.700   1.198  0.00  0.00    +0.004 A 
ENDBRANCH   1  16
BRANCH   2  19
ATOM     19  C   LIG    1       -1.731  -4.630   1.774  0.00  0.00    +0.151 C 
BRANCH  19  20
ATOM     20  C   LIG    1       -1.065  -4.475   3.117  0.00  0.00    +0.221 C 
ATOM     21  N   LIG    1       -1.788  -4.088   4.186  0.00  0.00    -0.307 N 
ATOM     22  C   LIG    1       -3.221  -3.817   4.043  0.00  0.00    +0.131 C 
ATOM     23  C   LIG    1       -1.142  -3.938   5.492  0.00  0.00    +0.131 C 
ATOM     24  O   LIG    1        0.120  -4.700   3.236  0.00  0.00    -0.275 OA
ENDBRANCH  19  20
ENDBRANCH   2  19
TORSDOF 3
