REMARK  Name = ZINC00001536
REMARK                            x       y       z     vdW  Elec       q    Type
REMARK                         _______ _______ _______ _____ _____    ______ ____
ROOT
ATOM      1  C   LIG    1       -1.318  -1.726  -1.159  0.00  0.00    -0.043 A 
ATOM      2  C   LIG    1       -1.834  -1.311  -2.374  0.00  0.00    +0.007 A 
ATOM      3  C   LIG    1       -1.863  -2.176  -3.451  0.00  0.00    +0.046 A 
ATOM      4  C   LIG    1       -1.373  -3.466  -3.319  0.00  0.00    +0.125 A 
ATOM      5  C   LIG    1       -0.850  -3.888  -2.093  0.00  0.00    +0.024 A 
ATOM      6  C   LIG    1       -0.822  -3.006  -1.015  0.00  0.00    +0.016 A 
ENDROOT
BRANCH   5   7
ATOM      7  C   LIG    1       -0.324  -5.266  -1.942  0.00  0.00    -0.014 A 
ATOM      8  C   LIG    1        0.936  -5.475  -1.382  0.00  0.00    +0.012 A 
ATOM      9  C   LIG    1        1.423  -6.758  -1.243  0.00  0.00    +0.046 A 
ATOM     10  C   LIG    1        0.660  -7.840  -1.661  0.00  0.00    +0.120 A 
ATOM     11  C   LIG    1       -0.594  -7.635  -2.220  0.00  0.00    -0.002 A 
ATOM     12  C   LIG    1       -1.089  -6.355  -2.355  0.00  0.00    +0.016 A 
BRANCH  10  13
ATOM     13  O   LIG    1        1.143  -9.103  -1.524  0.00  0.00    -0.506 OA
ATOM     14  H   LIG    1        0.917  -9.521  -0.681  0.00  0.00    +0.292 HD
ENDBRANCH  10  13
BRANCH  11  15
ATOM     15  C   LIG    1       -1.418  -8.813  -2.673  0.00  0.00    +0.065 C 
BRANCH  15  16
ATOM     16  C   LIG    1       -0.933  -9.276  -4.023  0.00  0.00    -0.030 C 
ATOM     17  C   LIG    1       -0.574 -10.523  -4.198  0.00  0.00    +0.004 C 
ENDBRANCH  15  16
ENDBRANCH  11  15
ENDBRANCH   5   7
BRANCH   4  18
ATOM     18  O   LIG    1       -1.400  -4.317  -4.378  0.00  0.00    -0.506 OA
ATOM     19  H   LIG    1       -0.607  -4.284  -4.930  0.00  0.00    +0.292 HD
ENDBRANCH   4  18
BRANCH   1  20
ATOM     20  C   LIG    1       -1.293  -0.775   0.010  0.00  0.00    +0.061 C 
BRANCH  20  22
ATOM     21  C   LIG    1       -0.016   1.306   0.009  0.00  0.00    +0.004 C 
ATOM     22  C   LIG    1        0.002  -0.004   0.002  0.00  0.00    -0.030 C 
ENDBRANCH  20  22
ENDBRANCH   1  20
TORSDOF 7
