REMARK  Name = ZINC00037189
REMARK                            x       y       z     vdW  Elec       q    Type
REMARK                         _______ _______ _______ _____ _____    ______ ____
ROOT
ATOM      1  C   LIG    1       -0.072   0.957   0.025  0.00  0.00    +0.090 C 
ATOM      2  C   LIG    1       -0.741   1.508   1.258  0.00  0.00    +0.147 A 
ATOM      3  C   LIG    1       -0.168   1.686   2.494  0.00  0.00    +0.111 A 
ATOM      4  C   LIG    1       -1.279   2.248   3.292  0.00  0.00    +0.127 A 
ATOM      5  N   LIG    1       -2.291   2.319   2.465  0.00  0.00    -0.077 NA
ATOM      6  O   LIG    1       -2.004   1.925   1.362  0.00  0.00    -0.359 OA
ENDROOT
BRANCH   3   7
ATOM      7  C   LIG    1        1.209   1.391   2.918  0.00  0.00    +0.284 C 
ATOM      8  N   LIG    1        2.142   2.363   2.901  0.00  0.00    -0.203 N 
ATOM      9  C   LIG    1        3.466   2.209   3.179  0.00  0.00    +0.118 A 
ATOM     10  C   LIG    1        4.054   3.418   3.047  0.00  0.00    +0.041 A 
ATOM     11  C   LIG    1        3.064   4.343   2.688  0.00  0.00    +0.135 A 
ATOM     12  N   LIG    1        1.923   3.713   2.601  0.00  0.00    -0.172 NA
ATOM     13  O   LIG    1        1.505   0.270   3.284  0.00  0.00    -0.265 OA
ENDBRANCH   3   7
BRANCH   4  14
ATOM     14  C   LIG    1       -1.251   2.646   4.721  0.00  0.00    +0.023 A 
ATOM     15  C   LIG    1       -0.696   1.794   5.673  0.00  0.00    +0.011 A 
ATOM     16  C   LIG    1       -0.673   2.169   7.001  0.00  0.00    +0.001 A 
ATOM     17  C   LIG    1       -1.200   3.388   7.388  0.00  0.00    +0.001 A 
ATOM     18  C   LIG    1       -1.754   4.238   6.448  0.00  0.00    +0.020 A 
ATOM     19  C   LIG    1       -1.776   3.876   5.115  0.00  0.00    +0.050 A 
ATOM     20 CL   LIG    1       -2.463   4.947   3.934  0.00  0.00    -0.083 Cl
ENDBRANCH   4  14
TORSDOF 2
