REMARK  Name = ZINC00020220
REMARK                            x       y       z     vdW  Elec       q    Type
REMARK                         _______ _______ _______ _____ _____    ______ ____
ROOT
ATOM      1  C   LIG    1        0.009   1.394   0.455  0.00  0.00    +0.054 A 
ATOM      2  C   LIG    1        1.199   2.089   0.227  0.00  0.00    +0.049 A 
ATOM      3  C   LIG    1        2.428   1.405   0.204  0.00  0.00    +0.055 A 
ATOM      4  N   LIG    1        3.603   2.091  -0.022  0.00  0.00    -0.343 N 
ATOM      5  C   LIG    1        3.643   3.413  -0.227  0.00  0.00    +0.105 A 
ATOM      6  C   LIG    1        2.502   4.191  -0.227  0.00  0.00    +0.122 A 
ATOM      7  C   LIG    1        2.443   0.030   0.411  0.00  0.00    +0.052 A 
ATOM      8  C   LIG    1        1.254  -0.645   0.636  0.00  0.00    +0.067 A 
ATOM      9  C   LIG    1        1.198   3.545   0.006  0.00  0.00    +0.203 A 
ATOM     10  O   LIG    1        0.163   4.188   0.016  0.00  0.00    -0.286 OA
ATOM     11  C   LIG    1        0.039   0.044   0.656  0.00  0.00    +0.145 A 
ATOM     12  F   LIG    1       -1.112  -0.629   0.877  0.00  0.00    -0.204 F 
ENDROOT
BRANCH   8  13
ATOM     13  N   LIG    1        1.271  -2.022   0.843  0.00  0.00    -0.331 N 
ATOM     14  C   LIG    1        1.159  -2.959  -0.286  0.00  0.00    +0.086 C 
ATOM     15  C   LIG    1        2.292  -3.984  -0.182  0.00  0.00    -0.063 C 
ATOM     16  N   LIG    1        2.253  -4.622   1.140  0.00  0.00    +0.381 N 
ATOM     17  H   LIG    1        2.951  -5.350   1.182  0.00  0.00    -0.086 HD
ATOM     18  H   LIG    1        1.341  -5.026   1.291  0.00  0.00    -0.086 HD
ATOM     19  C   LIG    1        2.525  -3.626   2.184  0.00  0.00    -0.063 C 
ATOM     20  C   LIG    1        1.409  -2.582   2.196  0.00  0.00    +0.086 C 
ENDBRANCH   8  13
BRANCH   4  21
ATOM     21  C   LIG    1        4.861   1.340  -0.037  0.00  0.00    +0.087 C 
ATOM     22  C   LIG    1        6.162   2.141   0.039  0.00  0.00    +0.027 C 
ATOM     23  C   LIG    1        5.750   1.476  -1.276  0.00  0.00    +0.027 C 
ENDBRANCH   4  21
BRANCH   6  24
ATOM     24  C   LIG    1        2.586   5.638  -0.455  0.00  0.00    +0.342 C 
ATOM     25  O   LIG    1        3.674   6.164  -0.647  0.00  0.00    -0.245 OA
BRANCH  24  26
ATOM     26  O   LIG    1        1.569   6.318  -0.452  0.00  0.00    -0.477 OA
ATOM     27  H   LIG    1        0.736   5.915  -0.305  0.00  0.00    +0.295 HD
ENDBRANCH  24  26
ENDBRANCH   6  24
TORSDOF 4
