REMARK  Name = ZINC00009073
REMARK                            x       y       z     vdW  Elec       q    Type
REMARK                         _______ _______ _______ _____ _____    ______ ____
ROOT
ATOM      1  C   LIG    1       -0.018   1.465   0.010  0.00  0.00    -0.095 C 
ATOM      2  N   LIG    1        0.002  -0.004   0.002  0.00  0.00    +0.383 N 
ATOM      3  H   LIG    1        0.475  -0.329  -0.828  0.00  0.00    -0.081 HD
ATOM      4  C   LIG    1       -1.371  -0.510   0.009  0.00  0.00    -0.074 C 
ATOM      5  C   LIG    1       -1.395  -2.017  -0.191  0.00  0.00    +0.017 C 
ATOM      6  C   LIG    1       -0.278  -2.702   0.544  0.00  0.00    -0.047 A 
ATOM      7  C   LIG    1       -0.263  -4.091   0.571  0.00  0.00    +0.004 A 
ATOM      8  C   LIG    1        0.724  -4.774   1.252  0.00  0.00    +0.001 A 
ATOM      9  C   LIG    1        1.715  -4.075   1.913  0.00  0.00    +0.009 A 
ATOM     10  C   LIG    1        1.719  -2.686   1.873  0.00  0.00    -0.012 A 
ATOM     11  C   LIG    1        2.776  -1.919   2.575  0.00  0.00    +0.031 A 
ATOM     12  C   LIG    1        3.564  -2.523   3.553  0.00  0.00    +0.166 A 
ATOM     13  C   LIG    1        4.537  -1.775   4.209  0.00  0.00    +0.159 A 
ATOM     14  C   LIG    1        4.715  -0.439   3.888  0.00  0.00    +0.049 A 
ATOM     15  C   LIG    1        3.936   0.156   2.911  0.00  0.00    +0.008 A 
ATOM     16  C   LIG    1        2.974  -0.579   2.248  0.00  0.00    -0.037 A 
ATOM     17  C   LIG    1        2.139   0.056   1.170  0.00  0.00    +0.025 C 
ATOM     18  C   LIG    1        0.713  -1.996   1.192  0.00  0.00    -0.050 A 
ATOM     19  C   LIG    1        0.713  -0.491   1.193  0.00  0.00    -0.033 C 
ENDROOT
BRANCH  12  20
ATOM     20  O   LIG    1        3.383  -3.834   3.865  0.00  0.00    -0.503 OA
ATOM     21  H   LIG    1        3.921  -4.441   3.338  0.00  0.00    +0.292 HD
ENDBRANCH  12  20
BRANCH  13  22
ATOM     22  O   LIG    1        5.312  -2.355   5.163  0.00  0.00    -0.503 OA
ATOM     23  H   LIG    1        6.127  -2.749   4.822  0.00  0.00    +0.292 HD
ENDBRANCH  13  22
TORSDOF 2
