REMARK  Name = ZINC00053963
REMARK                            x       y       z     vdW  Elec       q    Type
REMARK                         _______ _______ _______ _____ _____    ______ ____
ROOT
ATOM      1  C   LIG    1        1.923   7.586   0.021  0.00  0.00    +0.001 A 
ATOM      2  C   LIG    1        0.535   7.564   0.034  0.00  0.00    +0.004 A 
ATOM      3  C   LIG    1       -0.152   6.370   0.034  0.00  0.00    +0.047 A 
ATOM      4  C   LIG    1        0.549   5.169   0.023  0.00  0.00    +0.136 A 
ATOM      5  C   LIG    1        1.956   5.196   0.010  0.00  0.00    +0.021 A 
ATOM      6  C   LIG    1        2.380   3.797  -0.000  0.00  0.00    +0.065 A 
ATOM      7  C   LIG    1        1.239   3.058   0.007  0.00  0.00    +0.212 A 
ATOM      8  O   LIG    1        0.166   3.877   0.015  0.00  0.00    -0.448 OA
ATOM      9  C   LIG    1        2.633   6.419   0.009  0.00  0.00    +0.011 A 
ENDROOT
BRANCH   7  10
ATOM     10  C   LIG    1        1.182   1.591  -0.001  0.00  0.00    +0.373 C 
ATOM     11  O   LIG    1        2.211   0.943  -0.014  0.00  0.00    -0.242 OA
BRANCH  10  12
ATOM     12  O   LIG    1       -0.011   0.963   0.007  0.00  0.00    -0.475 OA
ATOM     13  H   LIG    1       -0.804   1.462   0.018  0.00  0.00    +0.296 HD
ENDBRANCH  10  12
ENDBRANCH   7  10
TORSDOF 2
