REMARK  Name = ZINC00048044
REMARK                            x       y       z     vdW  Elec       q    Type
REMARK                         _______ _______ _______ _____ _____    ______ ____
ROOT
ATOM      1  N   LIG    1        4.304  -0.333  -0.041  0.00  0.00    -0.324 N 
ATOM      2  H   LIG    1        4.021  -0.837  -0.857  0.00  0.00    +0.148 HD
ENDROOT
BRANCH   1   3
ATOM      3  C   LIG    1        3.474   0.775  -0.027  0.00  0.00    +0.150 A 
ATOM      4  C   LIG    1        2.077   0.626  -0.014  0.00  0.00    +0.147 A 
ATOM      5  C   LIG    1        1.287   1.788  -0.001  0.00  0.00    +0.163 A 
ATOM      6  N   LIG    1        1.884   2.975  -0.000  0.00  0.00    -0.216 NA
ATOM      7  C   LIG    1        3.197   3.066  -0.013  0.00  0.00    +0.225 A 
ATOM      8  N   LIG    1       -0.016   1.359   0.009  0.00  0.00    -0.329 N 
ATOM      9  C   LIG    1        0.002  -0.004   0.002  0.00  0.00    +0.198 A 
ATOM     10  H   LIG    1       -0.831   1.940   0.020  0.00  0.00    +0.168 HD
ATOM     11  N   LIG    1        1.231  -0.432  -0.012  0.00  0.00    -0.231 NA
ATOM     12  N   LIG    1        3.981   2.003  -0.026  0.00  0.00    -0.219 NA
ENDBRANCH   1   3
BRANCH   1  14
ATOM     13  C   LIG    1        6.236   0.034  -1.495  0.00  0.00    +0.028 C 
ATOM     14  C   LIG    1        5.758  -0.159  -0.054  0.00  0.00    +0.073 C 
BRANCH  14  15
ATOM     15  C   LIG    1        6.426  -1.399   0.543  0.00  0.00    +0.057 C 
BRANCH  15  16
ATOM     16  C   LIG    1        6.052  -1.520   1.998  0.00  0.00    -0.046 A 
ATOM     17  C   LIG    1        6.838  -0.921   2.965  0.00  0.00    +0.004 A 
ATOM     18  C   LIG    1        6.493  -1.028   4.299  0.00  0.00    +0.000 A 
ATOM     19  C   LIG    1        5.367  -1.741   4.667  0.00  0.00    +0.000 A 
ATOM     20  C   LIG    1        4.584  -2.343   3.700  0.00  0.00    +0.000 A 
ATOM     21  C   LIG    1        4.927  -2.233   2.366  0.00  0.00    +0.004 A 
ENDBRANCH  15  16
ENDBRANCH  14  15
ENDBRANCH   1  14
TORSDOF 4
