REMARK  Name = ZINC00005359
REMARK                            x       y       z     vdW  Elec       q    Type
REMARK                         _______ _______ _______ _____ _____    ______ ____
ROOT
ATOM      1  C   LIG    1        0.675  -0.496  -1.283  0.00  0.00    +0.026 C 
ATOM      2  C   LIG    1        0.002  -0.004   0.002  0.00  0.00    -0.069 C 
ATOM      3  N   LIG    1       -0.031   1.474   0.035  0.00  0.00    +0.380 N 
ATOM      4  H   LIG    1       -0.485   1.778   0.904  0.00  0.00    -0.082 HD
ATOM      5  C   LIG    1       -0.802   1.988  -1.117  0.00  0.00    -0.079 C 
ATOM      6  C   LIG    1       -0.153   1.553  -2.433  0.00  0.00    -0.015 C 
ATOM      7  C   LIG    1        1.346   2.011   0.000  0.00  0.00    -0.079 C 
ATOM      8  C   LIG    1        2.073   1.566  -1.292  0.00  0.00    -0.015 C 
ATOM      9  C   LIG    1        1.096   0.720  -2.118  0.00  0.00    -0.007 C 
ENDROOT
BRANCH   1  11
ATOM     10  C   LIG    1       -1.643  -1.024  -2.070  0.00  0.00    +0.134 A 
ATOM     11  C   LIG    1       -0.295  -1.338  -2.071  0.00  0.00    +0.063 A 
ATOM     12  N   LIG    1        0.142  -2.373  -2.765  0.00  0.00    -0.237 NA
ATOM     13  C   LIG    1       -0.710  -3.116  -3.452  0.00  0.00    +0.148 A 
ATOM     14 CL   LIG    1       -0.138  -4.480  -4.360  0.00  0.00    -0.060 Cl
ATOM     15  C   LIG    1       -2.059  -2.800  -3.451  0.00  0.00    +0.150 A 
ATOM     16  N   LIG    1       -2.494  -1.762  -2.760  0.00  0.00    -0.258 NA
ENDBRANCH   1  11
TORSDOF 1
