REMARK  Name = ZINC00006170
REMARK                            x       y       z     vdW  Elec       q    Type
REMARK                         _______ _______ _______ _____ _____    ______ ____
ROOT
ATOM      1  N   LIG    1        5.450  -1.678   1.382  0.00  0.00    -0.246 N 
ATOM      2  C   LIG    1        5.608  -3.032   1.368  0.00  0.00    +0.165 A 
ATOM      3  C   LIG    1        6.990  -3.272   1.354  0.00  0.00    +0.083 A 
ATOM      4  C   LIG    1        7.445  -4.663   1.338  0.00  0.00    +0.172 A 
ATOM      5  N   LIG    1        8.626  -5.247   1.323  0.00  0.00    -0.203 NA
ATOM      6  C   LIG    1        8.470  -6.577   1.312  0.00  0.00    +0.218 A 
ATOM      7  N   LIG    1        7.182  -6.864   1.320  0.00  0.00    -0.139 NA
ATOM      8  N   LIG    1        6.490  -5.646   1.337  0.00  0.00    -0.181 N 
ATOM      9  C   LIG    1        5.167  -5.311   1.351  0.00  0.00    +0.218 A 
ATOM     10  C   LIG    1        7.633  -2.021   1.360  0.00  0.00    +0.148 A 
ATOM     11  N   LIG    1        4.756  -4.067   1.366  0.00  0.00    -0.195 NA
ATOM     12  N   LIG    1        6.720  -1.089   1.371  0.00  0.00    -0.177 NA
ENDROOT
BRANCH   6  13
ATOM     13  C   LIG    1        9.567  -7.566   1.294  0.00  0.00    +0.173 A 
ATOM     14  C   LIG    1        9.422  -8.918   1.277  0.00  0.00    +0.053 A 
ATOM     15  C   LIG    1       10.720  -9.466   1.263  0.00  0.00    +0.042 A 
ATOM     16  C   LIG    1       11.585  -8.432   1.271  0.00  0.00    +0.196 A 
ATOM     17  O   LIG    1       10.885  -7.286   1.285  0.00  0.00    -0.460 OA
ENDBRANCH   6  13
BRANCH   9  18
ATOM     18  N   LIG    1        4.230  -6.317   1.350  0.00  0.00    -0.327 N 
ATOM     19  H   LIG    1        3.284  -6.100   1.360  0.00  0.00    +0.145 HD
ATOM     20  H   LIG    1        4.514  -7.245   1.339  0.00  0.00    +0.145 HD
ENDBRANCH   9  18
BRANCH   1  21
ATOM     21  C   LIG    1        4.171  -0.963   1.399  0.00  0.00    +0.150 C 
BRANCH  21  22
ATOM     22  C   LIG    1        3.711  -0.707  -0.038  0.00  0.00    +0.058 C 
BRANCH  22  26
ATOM     23  C   LIG    1       -0.017   1.378   0.010  0.00  0.00    +0.000 A 
ATOM     24  C   LIG    1        1.171   2.086   0.002  0.00  0.00    +0.000 A 
ATOM     25  C   LIG    1        2.377   1.411  -0.013  0.00  0.00    +0.004 A 
ATOM     26  C   LIG    1        2.396   0.029  -0.020  0.00  0.00    -0.046 A 
ATOM     27  C   LIG    1        1.208  -0.679  -0.012  0.00  0.00    +0.004 A 
ATOM     28  C   LIG    1        0.002  -0.004   0.002  0.00  0.00    +0.000 A 
ENDBRANCH  22  26
ENDBRANCH  21  22
ENDBRANCH   1  21
TORSDOF 5
