REMARK  Name = ZINC00073524
REMARK                            x       y       z     vdW  Elec       q    Type
REMARK                         _______ _______ _______ _____ _____    ______ ____
ROOT
ATOM      1  C   LIG    1        1.407  -2.265  -2.659  0.00  0.00    +0.034 A 
ATOM      2  C   LIG    1        0.945  -3.437  -3.244  0.00  0.00    +0.025 A 
ATOM      3  C   LIG    1        1.501  -3.881  -4.428  0.00  0.00    +0.030 A 
ATOM      4  C   LIG    1        2.516  -3.161  -5.030  0.00  0.00    +0.105 A 
ATOM      5  C   LIG    1        2.979  -1.995  -4.449  0.00  0.00    +0.030 A 
ATOM      6  C   LIG    1        2.423  -1.542  -3.269  0.00  0.00    +0.025 A 
ENDROOT
BRANCH   1   8
ATOM      7  C   LIG    1        0.706  -0.490  -1.239  0.00  0.00    +0.223 C 
ATOM      8  N   LIG    1        0.847  -1.812  -1.460  0.00  0.00    -0.285 N 
ATOM      9  H   LIG    1        0.559  -2.450  -0.787  0.00  0.00    +0.155 HD
ATOM     10  O   LIG    1        1.141   0.308  -2.041  0.00  0.00    -0.275 OA
BRANCH   7  12
ATOM     11  C   LIG    1       -0.016   1.526   0.012  0.00  0.00    +0.020 C 
ATOM     12  C   LIG    1        0.008  -0.004   0.005  0.00  0.00    +0.039 C 
ATOM     13  C   LIG    1       -1.426  -0.537   0.027  0.00  0.00    +0.020 C 
ATOM     14  C   LIG    1        0.758  -0.508   1.240  0.00  0.00    +0.020 C 
ENDBRANCH   7  12
ENDBRANCH   1   8
BRANCH   4  15
ATOM     15  S   LIG    1        3.222  -3.732  -6.540  0.00  0.00    +0.056 S 
ATOM     16  O   LIG    1        2.990  -5.133  -6.593  0.00  0.00    -0.153 OA
ATOM     17  O   LIG    1        4.526  -3.172  -6.616  0.00  0.00    -0.153 OA
BRANCH  15  18
ATOM     18  N   LIG    1        2.347  -3.060  -7.775  0.00  0.00    -0.204 NA
ATOM     19  H   LIG    1        1.407  -2.856  -7.648  0.00  0.00    +0.144 HD
ATOM     20  H   LIG    1        2.774  -2.871  -8.625  0.00  0.00    +0.144 HD
ENDBRANCH  15  18
ENDBRANCH   4  15
TORSDOF 4
