REMARK  Name = ZINC00004726
REMARK                            x       y       z     vdW  Elec       q    Type
REMARK                         _______ _______ _______ _____ _____    ______ ____
ROOT
ATOM      1  C   LIG    1       -0.017   1.378   0.010  0.00  0.00    +0.030 A 
ATOM      2  C   LIG    1        1.171   2.086   0.002  0.00  0.00    +0.022 A 
ATOM      3  C   LIG    1        2.378   1.410  -0.013  0.00  0.00    +0.041 A 
ATOM      4 CL   LIG    1        3.870   2.298  -0.023  0.00  0.00    -0.084 Cl
ATOM      5  C   LIG    1        2.396   0.027  -0.021  0.00  0.00    +0.022 A 
ATOM      6  C   LIG    1        1.208  -0.679  -0.013  0.00  0.00    +0.030 A 
ATOM      7  C   LIG    1        0.002  -0.004   0.002  0.00  0.00    +0.105 A 
ENDROOT
BRANCH   7   8
ATOM      8  S   LIG    1       -1.512  -0.905   0.012  0.00  0.00    +0.056 S 
ATOM      9  O   LIG    1       -2.492  -0.046   0.577  0.00  0.00    -0.153 OA
ATOM     10  O   LIG    1       -1.218  -2.186   0.553  0.00  0.00    -0.153 OA
BRANCH   8  11
ATOM     11  N   LIG    1       -1.948  -1.147  -1.567  0.00  0.00    -0.204 NA
ATOM     12  H   LIG    1       -1.696  -0.501  -2.244  0.00  0.00    +0.144 HD
ATOM     13  H   LIG    1       -2.456  -1.936  -1.814  0.00  0.00    +0.144 HD
ENDBRANCH   8  11
ENDBRANCH   7   8
TORSDOF 2
