REMARK  Name = ZINC00008854
REMARK                            x       y       z     vdW  Elec       q    Type
REMARK                         _______ _______ _______ _____ _____    ______ ____
ROOT
ATOM      1  C   LIG    1        0.811   2.212   0.215  0.00  0.00    +0.001 A 
ATOM      2  C   LIG    1        2.105   2.727   0.156  0.00  0.00    +0.001 A 
ATOM      3  C   LIG    1        3.185   1.901   0.092  0.00  0.00    +0.010 A 
ATOM      4  C   LIG    1        2.996   0.508   0.086  0.00  0.00    +0.002 A 
ATOM      5  C   LIG    1        1.679  -0.016   0.146  0.00  0.00    -0.016 A 
ATOM      6  C   LIG    1        1.486  -1.408   0.141  0.00  0.00    +0.010 A 
ATOM      7  C   LIG    1        2.558  -2.242   0.078  0.00  0.00    +0.017 A 
ATOM      8  C   LIG    1        3.861  -1.735   0.018  0.00  0.00    +0.032 A 
ATOM      9  C   LIG    1        4.087  -0.374   0.021  0.00  0.00    +0.062 A 
ATOM     10 CL   LIG    1        5.708   0.244  -0.054  0.00  0.00    -0.082 Cl
ATOM     11  C   LIG    1        0.590   0.869   0.211  0.00  0.00    +0.008 A 
ENDROOT
BRANCH   8  12
ATOM     12  S   LIG    1        5.226  -2.846  -0.063  0.00  0.00    -0.087 S 
BRANCH  12  13
ATOM     13  C   LIG    1        5.727  -2.784  -1.752  0.00  0.00    +0.031 A 
ATOM     14  C   LIG    1        4.979  -2.061  -2.672  0.00  0.00    +0.018 A 
ATOM     15  C   LIG    1        5.371  -2.013  -3.995  0.00  0.00    +0.024 A 
ATOM     16  C   LIG    1        6.513  -2.687  -4.406  0.00  0.00    +0.026 A 
ATOM     17  C   LIG    1        7.262  -3.410  -3.487  0.00  0.00    +0.043 A 
ATOM     18  C   LIG    1        6.873  -3.454  -2.162  0.00  0.00    +0.056 A 
ATOM     19 CL   LIG    1        7.813  -4.353  -1.011  0.00  0.00    -0.082 Cl
BRANCH  16  20
ATOM     20  N   LIG    1        6.910  -2.638  -5.747  0.00  0.00    -0.358 N 
ATOM     21  H   LIG    1        7.708  -3.109  -6.035  0.00  0.00    +0.142 HD
ATOM     22  H   LIG    1        6.387  -2.133  -6.390  0.00  0.00    +0.142 HD
ENDBRANCH  16  20
ENDBRANCH  12  13
ENDBRANCH   8  12
TORSDOF 3
