REMARK  Name = ZINC00006651
REMARK                            x       y       z     vdW  Elec       q    Type
REMARK                         _______ _______ _______ _____ _____    ______ ____
ROOT
ATOM      1  C   LIG    1       -2.502   1.265   0.005  0.00  0.00    +0.005 A 
ATOM      2  C   LIG    1       -3.725   1.901  -0.033  0.00  0.00    +0.014 A 
ATOM      3  C   LIG    1       -3.790   3.281  -0.123  0.00  0.00    +0.013 A 
ATOM      4  I   LIG    1       -5.654   4.234  -0.189  0.00  0.00    -0.044 I 
ATOM      5  C   LIG    1       -2.629   4.034  -0.170  0.00  0.00    +0.014 A 
ATOM      6  C   LIG    1       -1.399   3.414  -0.127  0.00  0.00    +0.005 A 
ATOM      7  C   LIG    1       -1.325   2.020  -0.036  0.00  0.00    -0.042 A 
ENDROOT
BRANCH   7   8
ATOM      8  C   LIG    1       -0.016   1.350   0.009  0.00  0.00    +0.085 C 
BRANCH   8   9
ATOM      9  C   LIG    1        0.138   0.213   0.729  0.00  0.00    +0.084 C 
ATOM     10  S   LIG    1       -1.166  -0.355   1.770  0.00  0.00    -0.049 S 
BRANCH   9  11
ATOM     11  C   LIG    1        1.392  -0.547   0.642  0.00  0.00    +0.340 C 
ATOM     12  O   LIG    1        2.292  -0.155  -0.076  0.00  0.00    -0.245 OA
BRANCH  11  13
ATOM     13  O   LIG    1        1.546  -1.679   1.358  0.00  0.00    -0.477 OA
ATOM     14  H   LIG    1        0.853  -1.981   1.912  0.00  0.00    +0.295 HD
ENDBRANCH  11  13
ENDBRANCH   9  11
ENDBRANCH   8   9
ENDBRANCH   7   8
TORSDOF 4
