REMARK  Name = ZINC00007874
REMARK                            x       y       z     vdW  Elec       q    Type
REMARK                         _______ _______ _______ _____ _____    ______ ____
ROOT
ATOM      1  C   LIG    1        1.975   1.915   0.175  0.00  0.00    +0.159 A 
ATOM      2  N   LIG    1        2.334   0.670  -0.039  0.00  0.00    -0.225 NA
ATOM      3  C   LIG    1        1.448  -0.351  -0.041  0.00  0.00    +0.084 A 
ATOM      4  C   LIG    1        1.702  -1.725  -0.257  0.00  0.00    -0.018 A 
ATOM      5  C   LIG    1        3.111  -2.188  -0.525  0.00  0.00    +0.046 C 
ATOM      6  C   LIG    1        0.683  -2.641  -0.226  0.00  0.00    -0.004 A 
ATOM      7  C   LIG    1        0.993  -4.097  -0.460  0.00  0.00    +0.048 C 
ATOM      8  C   LIG    1       -0.632  -2.256   0.018  0.00  0.00    +0.125 A 
ATOM      9  C   LIG    1       -0.915  -0.915   0.233  0.00  0.00    +0.014 A 
ATOM     10  C   LIG    1        0.103   0.005   0.203  0.00  0.00    +0.048 A 
ATOM     11  S   LIG    1        0.210   1.766   0.415  0.00  0.00    -0.052 S 
ENDROOT
BRANCH   1  12
ATOM     12  N   LIG    1        2.760   3.050   0.206  0.00  0.00    -0.324 N 
ATOM     13  H   LIG    1        2.356   3.915   0.377  0.00  0.00    +0.148 HD
BRANCH  12  15
ATOM     14  C   LIG    1        4.833   4.340   0.067  0.00  0.00    +0.024 C 
ATOM     15  C   LIG    1        4.204   2.948  -0.020  0.00  0.00    +0.100 C 
ENDBRANCH  12  15
ENDBRANCH   1  12
BRANCH   8  16
ATOM     16  O   LIG    1       -1.627  -3.182   0.043  0.00  0.00    -0.506 OA
ATOM     17  H   LIG    1       -2.042  -3.337  -0.816  0.00  0.00    +0.292 HD
ENDBRANCH   8  16
BRANCH   9  18
ATOM     18  C   LIG    1       -2.331  -0.472   0.499  0.00  0.00    +0.076 C 
BRANCH  18  19
ATOM     19  C   LIG    1       -3.008  -0.143  -0.806  0.00  0.00    -0.025 A 
ATOM     20  C   LIG    1       -2.957   1.144  -1.319  0.00  0.00    +0.007 A 
ATOM     21  C   LIG    1       -3.590   1.400  -2.526  0.00  0.00    +0.020 A 
ATOM     22  C   LIG    1       -4.256   0.373  -3.167  0.00  0.00    +0.111 A 
ATOM     23  N   LIG    1       -4.289  -0.839  -2.647  0.00  0.00    -0.263 NA
ATOM     24  C   LIG    1       -3.693  -1.119  -1.505  0.00  0.00    +0.114 A 
ENDBRANCH  18  19
ENDBRANCH   9  18
TORSDOF 5
