REMARK  Name = ZINC00039356
REMARK                            x       y       z     vdW  Elec       q    Type
REMARK                         _______ _______ _______ _____ _____    ______ ____
ROOT
ATOM      1  C   LIG    1        1.058  -2.250  -0.021  0.00  0.00    +0.061 C 
ATOM      2  C   LIG    1        1.149  -0.746  -0.013  0.00  0.00    +0.021 C 
ATOM      3  C   LIG    1        2.362  -0.153  -0.022  0.00  0.00    +0.078 C 
ATOM      4  C   LIG    1        2.407   1.361  -0.014  0.00  0.00    +0.143 C 
ATOM      5  N   LIG    1        1.115   2.067   0.003  0.00  0.00    -0.288 N 
ATOM      6  H   LIG    1        1.079   3.037   0.008  0.00  0.00    +0.151 HD
ATOM      7  C   LIG    1       -0.016   1.335   0.009  0.00  0.00    +0.304 C 
ATOM      8  O   LIG    1       -1.088   1.908   0.018  0.00  0.00    -0.252 OA
ATOM      9  N   LIG    1        0.002  -0.004   0.002  0.00  0.00    -0.273 N 
ATOM     10  H   LIG    1       -0.847  -0.473   0.008  0.00  0.00    +0.156 HD
ENDROOT
BRANCH   4  11
ATOM     11  C   LIG    1        3.166   1.810  -1.237  0.00  0.00    -0.022 A 
ATOM     12  C   LIG    1        2.534   1.845  -2.466  0.00  0.00    +0.009 A 
ATOM     13  C   LIG    1        3.226   2.261  -3.587  0.00  0.00    +0.046 A 
ATOM     14  C   LIG    1        4.558   2.634  -3.481  0.00  0.00    +0.120 A 
ATOM     15  C   LIG    1        5.191   2.592  -2.247  0.00  0.00    +0.046 A 
ATOM     16  C   LIG    1        4.493   2.181  -1.128  0.00  0.00    +0.009 A 
BRANCH  14  17
ATOM     17  O   LIG    1        5.242   3.039  -4.583  0.00  0.00    -0.495 OA
ATOM     18  C   LIG    1        4.526   3.057  -5.820  0.00  0.00    +0.277 C 
ENDBRANCH  14  17
ENDBRANCH   4  11
BRANCH   3  19
ATOM     19  C   LIG    1        3.550  -0.920  -0.039  0.00  0.00    +0.339 C 
ATOM     20  O   LIG    1        3.490  -2.136  -0.046  0.00  0.00    -0.245 OA
BRANCH  19  21
ATOM     21  O   LIG    1        4.751  -0.304  -0.048  0.00  0.00    -0.458 OA
BRANCH  21  22
ATOM     22  C   LIG    1        5.909  -1.141  -0.065  0.00  0.00    +0.177 C 
ATOM     23  C   LIG    1        6.394  -1.401   1.376  0.00  0.00    +0.044 C 
ATOM     24  C   LIG    1        7.939  -1.404   1.262  0.00  0.00    +0.004 C 
ATOM     25  C   LIG    1        8.208  -0.283   0.227  0.00  0.00    +0.004 C 
ATOM     26  C   LIG    1        7.062  -0.430  -0.795  0.00  0.00    +0.044 C 
ENDBRANCH  21  22
ENDBRANCH  19  21
ENDBRANCH   3  19
TORSDOF 5
