REMARK  Name = ZINC00001148
REMARK                            x       y       z     vdW  Elec       q    Type
REMARK                         _______ _______ _______ _____ _____    ______ ____
ROOT
ATOM      1  C   LIG    1        0.658  -0.603   3.669  0.00  0.00    -0.020 C 
ATOM      2  C   LIG    1        0.987   0.250   4.647  0.00  0.00    -0.011 C 
ATOM      3  C   LIG    1        1.709  -0.251   5.840  0.00  0.00    -0.011 A 
ATOM      4  C   LIG    1        2.751  -1.161   5.601  0.00  0.00    +0.009 A 
ATOM      5  C   LIG    1        3.479  -1.687   6.642  0.00  0.00    +0.001 A 
ATOM      6  C   LIG    1        3.177  -1.312   7.940  0.00  0.00    +0.000 A 
ATOM      7  C   LIG    1        2.158  -0.419   8.180  0.00  0.00    +0.007 A 
ATOM      8  C   LIG    1        1.409   0.126   7.136  0.00  0.00    -0.003 A 
ATOM      9  C   LIG    1        0.336   1.094   7.559  0.00  0.00    +0.265 C 
ATOM     10  O   LIG    1       -0.575   1.444   6.548  0.00  0.00    -0.487 OA
ATOM     11  C   LIG    1       -0.190   2.213   5.511  0.00  0.00    +0.129 A 
ATOM     12  C   LIG    1       -0.593   3.539   5.421  0.00  0.00    +0.046 A 
ATOM     13  C   LIG    1       -0.145   4.318   4.353  0.00  0.00    +0.004 A 
ATOM     14  C   LIG    1        0.687   3.784   3.385  0.00  0.00    +0.001 A 
ATOM     15  C   LIG    1        1.079   2.460   3.461  0.00  0.00    +0.012 A 
ATOM     16  C   LIG    1        0.630   1.682   4.519  0.00  0.00    +0.024 A 
ENDROOT
BRANCH   1  17
ATOM     17  C   LIG    1       -0.071  -0.103   2.448  0.00  0.00    +0.009 C 
BRANCH  17  18
ATOM     18  C   LIG    1        0.713  -0.491   1.192  0.00  0.00    -0.075 C 
BRANCH  18  20
ATOM     19  C   LIG    1       -0.018   1.465   0.010  0.00  0.00    -0.097 C 
ATOM     20  N   LIG    1        0.002  -0.004   0.002  0.00  0.00    +0.376 N 
ATOM     21  H   LIG    1       -0.945  -0.353   0.009  0.00  0.00    -0.083 HD
ATOM     22  C   LIG    1        0.690  -0.478  -1.207  0.00  0.00    -0.097 C 
ENDBRANCH  18  20
ENDBRANCH  17  18
ENDBRANCH   1  17
TORSDOF 3
