REMARK  Name = ZINC00009252
REMARK                            x       y       z     vdW  Elec       q    Type
REMARK                         _______ _______ _______ _____ _____    ______ ____
ROOT
ATOM      1  C   LIG    1        2.818   1.077   0.763  0.00  0.00    +0.008 C 
ATOM      2  C   LIG    1        3.574   1.763  -0.110  0.00  0.00    +0.009 C 
ENDROOT
BRANCH   1   6
ATOM      3  C   LIG    1        0.823   3.121   3.904  0.00  0.00    +0.120 A 
ATOM      4  C   LIG    1        0.191   2.071   3.250  0.00  0.00    +0.046 A 
ATOM      5  C   LIG    1        0.837   1.401   2.234  0.00  0.00    +0.011 A 
ATOM      6  C   LIG    1        2.126   1.786   1.854  0.00  0.00    -0.025 A 
ATOM      7  C   LIG    1        2.755   2.848   2.511  0.00  0.00    +0.011 A 
ATOM      8  C   LIG    1        2.104   3.508   3.530  0.00  0.00    +0.046 A 
BRANCH   3  10
ATOM      9  C   LIG    1       -1.130   3.326   5.243  0.00  0.00    +0.277 C 
ATOM     10  O   LIG    1        0.185   3.775   4.909  0.00  0.00    -0.495 OA
ENDBRANCH   3  10
ENDBRANCH   1   6
BRANCH   2  11
ATOM     11  C   LIG    1        3.554   3.236  -0.104  0.00  0.00    -0.018 A 
ATOM     12  C   LIG    1        2.355   3.920   0.115  0.00  0.00    +0.053 A 
ATOM     13  C   LIG    1        2.343   5.305   0.124  0.00  0.00    +0.124 A 
ATOM     14  C   LIG    1        3.516   6.013  -0.093  0.00  0.00    +0.091 A 
ATOM     15  C   LIG    1        4.708   5.338  -0.316  0.00  0.00    +0.124 A 
ATOM     16  C   LIG    1        4.732   3.954  -0.322  0.00  0.00    +0.053 A 
BRANCH  13  17
ATOM     17  O   LIG    1        1.178   5.971   0.342  0.00  0.00    -0.495 OA
ATOM     18  C   LIG    1        1.237   7.399   0.333  0.00  0.00    +0.277 C 
ENDBRANCH  13  17
BRANCH  15  19
ATOM     19  O   LIG    1        5.854   6.038  -0.528  0.00  0.00    -0.495 OA
ATOM     20  C   LIG    1        5.757   7.463  -0.508  0.00  0.00    +0.277 C 
ENDBRANCH  15  19
ENDBRANCH   2  11
TORSDOF 5
