REMARK  Name = ZINC00009064
REMARK                            x       y       z     vdW  Elec       q    Type
REMARK                         _______ _______ _______ _____ _____    ______ ____
ROOT
ATOM      1  C   LIG    1       -0.015   1.319  -0.024  0.00  0.00    +0.120 A 
ATOM      2  C   LIG    1        1.247   2.055  -0.056  0.00  0.00    +0.015 A 
ATOM      3  C   LIG    1        1.288   3.452  -0.041  0.00  0.00    +0.060 A 
ATOM      4  C   LIG    1        2.507   4.094  -0.072  0.00  0.00    +0.159 A 
ATOM      5  C   LIG    1        3.704   3.361  -0.118  0.00  0.00    +0.159 A 
ATOM      6  C   LIG    1        3.687   1.996  -0.133  0.00  0.00    +0.057 A 
ATOM      7  C   LIG    1        2.460   1.316  -0.102  0.00  0.00    -0.010 A 
ATOM      8  C   LIG    1        2.384  -0.085  -0.115  0.00  0.00    +0.043 A 
ATOM      9  CA  LIG    1        1.138  -0.697  -0.083  0.00  0.00    +0.149 A 
ATOM     10  N   LIG    1        0.006  -0.001  -0.039  0.00  0.00    -0.236 NA
ENDROOT
BRANCH   1  11
ATOM     11  C   LIG    1       -1.302   2.045   0.019  0.00  0.00    +0.212 C 
ATOM     12  O   LIG    1       -1.314   3.255   0.145  0.00  0.00    -0.285 OA
BRANCH  11  18
ATOM     13  C   LIG    1       -2.566  -0.095  -0.104  0.00  0.00    +0.015 A 
ATOM     14  C   LIG    1       -3.754  -0.787  -0.200  0.00  0.00    +0.050 A 
ATOM     15  C   LIG    1       -4.956  -0.099  -0.295  0.00  0.00    +0.158 A 
ATOM     16  C   LIG    1       -4.968   1.296  -0.288  0.00  0.00    +0.159 A 
ATOM     17  C   LIG    1       -3.783   1.996  -0.186  0.00  0.00    +0.061 A 
ATOM     18  C   LIG    1       -2.571   1.303  -0.090  0.00  0.00    +0.028 A 
BRANCH  15  19
ATOM     19  O   LIG    1       -6.123  -0.786  -0.396  0.00  0.00    -0.503 OA
ATOM     20  H   LIG    1       -6.388  -0.980  -1.306  0.00  0.00    +0.292 HD
ENDBRANCH  15  19
BRANCH  16  21
ATOM     21  O   LIG    1       -6.148   1.966  -0.381  0.00  0.00    -0.503 OA
ATOM     22  H   LIG    1       -6.416   2.166  -1.288  0.00  0.00    +0.292 HD
ENDBRANCH  16  21
ENDBRANCH  11  18
ENDBRANCH   1  11
BRANCH   4  23
ATOM     23  O   LIG    1        2.551   5.451  -0.058  0.00  0.00    -0.503 OA
ATOM     24  H   LIG    1        2.536   5.854  -0.937  0.00  0.00    +0.292 HD
ENDBRANCH   4  23
BRANCH   5  25
ATOM     25  O   LIG    1        4.893   4.018  -0.148  0.00  0.00    -0.503 OA
ATOM     26  H   LIG    1        5.209   4.218  -1.039  0.00  0.00    +0.292 HD
ENDBRANCH   5  25
BRANCH   9  27
ATOM     27  C   LIG    1        1.067  -2.173  -0.097  0.00  0.00    +0.355 C 
ATOM     28  O   LIG    1        2.089  -2.830  -0.137  0.00  0.00    -0.243 OA
BRANCH  27  29
ATOM     29  OXT LIG    1       -0.129  -2.791  -0.066  0.00  0.00    -0.476 OA
ATOM     30  HXT LIG    1       -0.917  -2.285  -0.035  0.00  0.00    +0.295 HD
ENDBRANCH  27  29
ENDBRANCH   9  27
TORSDOF 8
