REMARK  Name = ZINC00009342
REMARK                            x       y       z     vdW  Elec       q    Type
REMARK                         _______ _______ _______ _____ _____    ______ ____
ROOT
ATOM      1  C   LIG    1        2.917  -0.488   2.470  0.00  0.00    +0.034 C 
ENDROOT
BRANCH   1   2
ATOM      2  C   LIG    1        2.162   0.079   1.267  0.00  0.00    +0.071 C 
ATOM      3  C   LIG    1        0.735  -0.474   1.253  0.00  0.00    +0.035 C 
ATOM      4  C   LIG    1       -0.020   0.093   0.050  0.00  0.00    +0.003 C 
ATOM      5  C   LIG    1       -0.066   1.619   0.149  0.00  0.00    +0.000 C 
ATOM      6  C   LIG    1        1.361   2.172   0.162  0.00  0.00    +0.003 C 
ATOM      7  C   LIG    1        2.116   1.605   1.365  0.00  0.00    +0.035 C 
BRANCH   2   8
ATOM      8  O   LIG    1        2.831  -0.301   0.062  0.00  0.00    -0.388 OA
ATOM      9  H   LIG    1        2.406   0.025  -0.743  0.00  0.00    +0.210 HD
ENDBRANCH   2   8
ENDBRANCH   1   2
BRANCH   1  10
ATOM     10  C   LIG    1        2.829  -1.992   2.456  0.00  0.00    -0.043 A 
ATOM     11  C   LIG    1        3.325  -2.703   1.379  0.00  0.00    +0.007 A 
ATOM     12  C   LIG    1        3.250  -4.082   1.366  0.00  0.00    +0.045 A 
ATOM     13  C   LIG    1        2.666  -4.754   2.430  0.00  0.00    +0.117 A 
ATOM     14  C   LIG    1        2.163  -4.038   3.507  0.00  0.00    +0.045 A 
ATOM     15  C   LIG    1        2.246  -2.660   3.518  0.00  0.00    +0.007 A 
BRANCH  13  16
ATOM     16  O   LIG    1        2.585  -6.111   2.416  0.00  0.00    -0.507 OA
ATOM     17  H   LIG    1        1.776  -6.452   2.013  0.00  0.00    +0.292 HD
ENDBRANCH  13  16
ENDBRANCH   1  10
BRANCH   1  18
ATOM     18  C   LIG    1        4.385  -0.063   2.397  0.00  0.00    -0.069 C 
BRANCH  18  20
ATOM     19  C   LIG    1        4.075   1.777   3.940  0.00  0.00    -0.097 C 
ATOM     20  N   LIG    1        4.466   1.403   2.564  0.00  0.00    +0.376 N 
ATOM     21  H   LIG    1        3.822   1.851   1.902  0.00  0.00    -0.083 HD
ATOM     22  C   LIG    1        5.841   1.869   2.286  0.00  0.00    -0.097 C 
ENDBRANCH  18  20
ENDBRANCH   1  18
TORSDOF 6
