REMARK  Name = ZINC00021702
REMARK                            x       y       z     vdW  Elec       q    Type
REMARK                         _______ _______ _______ _____ _____    ______ ____
ROOT
ATOM      1  S   LIG    1        2.759  -2.750   4.548  0.00  0.00    +0.059 S 
ATOM      2  O   LIG    1        3.741  -1.889   5.107  0.00  0.00    -0.153 OA
ATOM      3  O   LIG    1        3.065  -4.060   4.091  0.00  0.00    -0.153 OA
ENDROOT
BRANCH   1   7
ATOM      4  C   LIG    1        0.957  -0.535   1.029  0.00  0.00    +0.162 A 
ATOM      5  C   LIG    1        1.560   0.169   2.060  0.00  0.00    +0.051 A 
ATOM      6  C   LIG    1        2.108  -0.510   3.132  0.00  0.00    +0.032 A 
ATOM      7  C   LIG    1        2.058  -1.891   3.179  0.00  0.00    +0.109 A 
ATOM      8  C   LIG    1        1.458  -2.599   2.154  0.00  0.00    +0.078 A 
ATOM      9  C   LIG    1        0.901  -1.924   1.079  0.00  0.00    +0.163 A 
BRANCH   4  11
ATOM     10  C   LIG    1        0.511   1.557  -0.010  0.00  0.00    +0.277 C 
ATOM     11  O   LIG    1        0.417   0.131  -0.026  0.00  0.00    -0.491 OA
ENDBRANCH   4  11
BRANCH   9  12
ATOM     12  O   LIG    1        0.306  -2.619   0.073  0.00  0.00    -0.491 OA
ATOM     13  C   LIG    1        0.285  -4.043   0.192  0.00  0.00    +0.277 C 
ENDBRANCH   9  12
ENDBRANCH   1   7
BRANCH   1  14
ATOM     14  N   LIG    1        1.568  -2.912   5.687  0.00  0.00    -0.183 NA
ATOM     15  H   LIG    1        1.650  -2.462   6.542  0.00  0.00    +0.149 HD
BRANCH  14  16
ATOM     16  C   LIG    1        0.390  -3.735   5.402  0.00  0.00    +0.107 C 
ATOM     17  C   LIG    1        0.536  -5.125   6.057  0.00  0.00    +0.030 C 
ATOM     18  C   LIG    1       -0.917  -5.457   6.458  0.00  0.00    +0.037 C 
ATOM     19  C   LIG    1       -1.593  -4.115   6.644  0.00  0.00    -0.043 A 
ATOM     20  C   LIG    1       -2.771  -3.786   7.292  0.00  0.00    +0.004 A 
ATOM     21  C   LIG    1       -3.200  -2.469   7.328  0.00  0.00    +0.000 A 
ATOM     22  C   LIG    1       -2.449  -1.481   6.720  0.00  0.00    +0.000 A 
ATOM     23  C   LIG    1       -1.272  -1.809   6.075  0.00  0.00    +0.005 A 
ATOM     24  C   LIG    1       -0.843  -3.124   6.035  0.00  0.00    -0.026 A 
ENDBRANCH  14  16
ENDBRANCH   1  14
TORSDOF 5
