REMARK  Name = ZINC00004531
REMARK                            x       y       z     vdW  Elec       q    Type
REMARK                         _______ _______ _______ _____ _____    ______ ____
ROOT
ATOM      1  C   LIG    1        0.042   1.071   2.548  0.00  0.00    +0.202 C 
ENDROOT
BRANCH   1   5
ATOM      2  C   LIG    1       -1.216   2.630   6.321  0.00  0.00    +0.000 A 
ATOM      3  C   LIG    1       -0.185   3.239   5.630  0.00  0.00    +0.000 A 
ATOM      4  C   LIG    1        0.222   2.735   4.409  0.00  0.00    +0.007 A 
ATOM      5  C   LIG    1       -0.401   1.621   3.879  0.00  0.00    -0.007 A 
ATOM      6  C   LIG    1       -1.436   1.015   4.567  0.00  0.00    +0.007 A 
ATOM      7  C   LIG    1       -1.839   1.516   5.791  0.00  0.00    +0.000 A 
ENDBRANCH   1   5
BRANCH   1   8
ATOM      8  O   LIG    1       -0.070  -0.353   2.560  0.00  0.00    -0.484 OA
BRANCH   8   9
ATOM      9  C   LIG    1        0.857  -1.051   1.852  0.00  0.00    +0.121 A 
ATOM     10  C   LIG    1        0.779  -2.434   1.779  0.00  0.00    +0.046 A 
ATOM     11  C   LIG    1        1.720  -3.140   1.054  0.00  0.00    +0.016 A 
ATOM     12  C   LIG    1        2.745  -2.471   0.411  0.00  0.00    +0.055 A 
ATOM     13  C   LIG    1        2.828  -1.093   0.487  0.00  0.00    +0.016 A 
ATOM     14  C   LIG    1        1.887  -0.381   1.206  0.00  0.00    +0.046 A 
BRANCH  12  15
ATOM     15  C   LIG    1        3.773  -3.244  -0.373  0.00  0.00    +0.417 C 
ATOM     16  F   LIG    1        4.245  -2.455  -1.427  0.00  0.00    -0.166 F 
ATOM     17  F   LIG    1        3.189  -4.407  -0.887  0.00  0.00    -0.166 F 
ATOM     18  F   LIG    1        4.838  -3.588   0.466  0.00  0.00    -0.166 F 
ENDBRANCH  12  15
ENDBRANCH   8   9
ENDBRANCH   1   8
BRANCH   1  19
ATOM     19  C   LIG    1       -0.844   1.643   1.439  0.00  0.00    +0.030 C 
BRANCH  19  20
ATOM     20  C   LIG    1       -0.317   1.185   0.078  0.00  0.00    -0.083 C 
BRANCH  20  21
ATOM     21  N   LIG    1       -1.164   1.758  -0.983  0.00  0.00    +0.378 N 
ATOM     22  H   LIG    1       -1.109   2.783  -0.941  0.00  0.00    -0.090 HD
ATOM     23  H   LIG    1       -2.133   1.472  -0.850  0.00  0.00    -0.090 HD
ATOM     24  H   LIG    1       -0.840   1.445  -1.896  0.00  0.00    -0.090 HD
ENDBRANCH  20  21
ENDBRANCH  19  20
ENDBRANCH   1  19
TORSDOF 7
