REMARK  Name = ZINC00010402
REMARK                            x       y       z     vdW  Elec       q    Type
REMARK                         _______ _______ _______ _____ _____    ______ ____
ROOT
ATOM      1  N   LIG    1       -0.082  -0.239   4.890  0.00  0.00    -0.298 N 
ATOM      2  C   LIG    1        0.185   0.988   5.506  0.00  0.00    +0.048 A 
ATOM      3  C   LIG    1        1.483   1.471   5.571  0.00  0.00    +0.024 A 
ATOM      4  C   LIG    1        1.739   2.685   6.184  0.00  0.00    +0.002 A 
ATOM      5  C   LIG    1        0.708   3.424   6.732  0.00  0.00    +0.001 A 
ATOM      6  C   LIG    1       -0.593   2.951   6.673  0.00  0.00    +0.017 A 
ATOM      7  C   LIG    1       -0.854   1.739   6.062  0.00  0.00    +0.034 A 
ATOM      8  S   LIG    1       -2.501   1.110   5.970  0.00  0.00    -0.086 S 
ATOM      9  C   LIG    1       -2.236  -0.635   5.931  0.00  0.00    +0.034 A 
ATOM     10  C   LIG    1       -3.188  -1.506   6.428  0.00  0.00    +0.017 A 
ATOM     11  C   LIG    1       -2.969  -2.864   6.377  0.00  0.00    +0.001 A 
ATOM     12  C   LIG    1       -1.794  -3.354   5.842  0.00  0.00    +0.002 A 
ATOM     13  C   LIG    1       -0.833  -2.489   5.347  0.00  0.00    +0.024 A 
ATOM     14  C   LIG    1       -1.048  -1.121   5.386  0.00  0.00    +0.048 A 
ENDROOT
BRANCH   1  15
ATOM     15  C   LIG    1        0.669  -0.610   3.687  0.00  0.00    +0.109 C 
BRANCH  15  16
ATOM     16  C   LIG    1       -0.071  -0.103   2.448  0.00  0.00    +0.001 C 
BRANCH  16  17
ATOM     17  C   LIG    1        0.713  -0.491   1.192  0.00  0.00    -0.078 C 
BRANCH  17  19
ATOM     18  C   LIG    1       -0.018   1.465   0.010  0.00  0.00    -0.097 C 
ATOM     19  N   LIG    1        0.002  -0.004   0.002  0.00  0.00    +0.376 N 
ATOM     20  H   LIG    1       -0.945  -0.353   0.009  0.00  0.00    -0.083 HD
ATOM     21  C   LIG    1        0.690  -0.478  -1.207  0.00  0.00    -0.097 C 
ENDBRANCH  17  19
ENDBRANCH  16  17
ENDBRANCH  15  16
ENDBRANCH   1  15
TORSDOF 4
