REMARK  Name = ZINC00022202
REMARK                            x       y       z     vdW  Elec       q    Type
REMARK                         _______ _______ _______ _____ _____    ______ ____
ROOT
ATOM      1  C   LIG    1       -0.018   1.503   0.010  0.00  0.00    +0.164 C 
ATOM      2  O   LIG    1       -1.077   2.095   0.018  0.00  0.00    -0.292 OA
ENDROOT
BRANCH   1   3
ATOM      3  C   LIG    1        1.245   2.256   0.002  0.00  0.00    +0.019 A 
ATOM      4  C   LIG    1        2.468   1.576  -0.007  0.00  0.00    +0.013 A 
ATOM      5  C   LIG    1        3.648   2.287  -0.021  0.00  0.00    +0.022 A 
ATOM      6  C   LIG    1        3.627   3.672  -0.013  0.00  0.00    +0.059 A 
ATOM      7 CL   LIG    1        5.119   4.560  -0.024  0.00  0.00    -0.082 Cl
ATOM      8  C   LIG    1        2.419   4.353   0.002  0.00  0.00    +0.060 A 
ATOM      9 CL   LIG    1        2.404   6.089   0.012  0.00  0.00    -0.082 Cl
ATOM     10  C   LIG    1        1.230   3.654   0.010  0.00  0.00    +0.032 A 
ENDBRANCH   1   3
BRANCH   1  11
ATOM     11  C   LIG    1        0.002  -0.004   0.002  0.00  0.00    +0.094 C 
BRANCH  11  13
ATOM     12  C   LIG    1       -2.110  -0.145   1.329  0.00  0.00    +0.019 C 
ATOM     13  C   LIG    1       -1.433  -0.534   0.013  0.00  0.00    +0.102 C 
BRANCH  13  14
ATOM     14  C   LIG    1       -1.416  -2.035  -0.119  0.00  0.00    +0.308 C 
ATOM     15  O   LIG    1       -0.363  -2.621  -0.212  0.00  0.00    -0.251 OA
BRANCH  14  16
ATOM     16  O   LIG    1       -2.570  -2.721  -0.133  0.00  0.00    -0.480 OA
ATOM     17  H   LIG    1       -3.386  -2.266  -0.061  0.00  0.00    +0.295 HD
ENDBRANCH  14  16
ENDBRANCH  13  14
ENDBRANCH  11  13
ENDBRANCH   1  11
TORSDOF 5
