REMARK  Name = ZINC00056549
REMARK                            x       y       z     vdW  Elec       q    Type
REMARK                         _______ _______ _______ _____ _____    ______ ____
ROOT
ATOM      1  C   LIG    1        0.910  -0.742  -0.903  0.00  0.00    +0.026 C 
ENDROOT
BRANCH   1   2
ATOM      2  C   LIG    1        0.136  -0.854  -2.191  0.00  0.00    -0.043 A 
ATOM      3  C   LIG    1        0.696  -1.498  -3.279  0.00  0.00    +0.007 A 
ATOM      4  C   LIG    1       -0.012  -1.602  -4.461  0.00  0.00    +0.045 A 
ATOM      5  C   LIG    1       -1.285  -1.060  -4.556  0.00  0.00    +0.117 A 
ATOM      6  C   LIG    1       -1.845  -0.414  -3.463  0.00  0.00    +0.045 A 
ATOM      7  C   LIG    1       -1.135  -0.318  -2.281  0.00  0.00    +0.007 A 
BRANCH   5   8
ATOM      8  O   LIG    1       -1.983  -1.160  -5.718  0.00  0.00    -0.507 OA
ATOM      9  H   LIG    1       -2.531  -1.954  -5.780  0.00  0.00    +0.292 HD
ENDBRANCH   5   8
ENDBRANCH   1   2
BRANCH   1  11
ATOM     10  C   LIG    1        2.404  -1.964   0.684  0.00  0.00    +0.004 C 
ATOM     11  C   LIG    1        1.734  -2.014  -0.691  0.00  0.00    +0.005 C 
ENDBRANCH   1  11
BRANCH   1  12
ATOM     12  C   LIG    1        1.846   0.466  -0.974  0.00  0.00    +0.026 C 
BRANCH  12  13
ATOM     13  C   LIG    1        2.720   0.353  -2.196  0.00  0.00    -0.043 A 
ATOM     14  C   LIG    1        2.252   0.789  -3.422  0.00  0.00    +0.007 A 
ATOM     15  C   LIG    1        3.051   0.686  -4.544  0.00  0.00    +0.045 A 
ATOM     16  C   LIG    1        4.324   0.146  -4.441  0.00  0.00    +0.117 A 
ATOM     17  C   LIG    1        4.792  -0.291  -3.209  0.00  0.00    +0.045 A 
ATOM     18  C   LIG    1        3.991  -0.181  -2.089  0.00  0.00    +0.007 A 
BRANCH  16  19
ATOM     19  O   LIG    1        5.112   0.043  -5.543  0.00  0.00    -0.507 OA
ATOM     20  H   LIG    1        5.669   0.818  -5.702  0.00  0.00    +0.292 HD
ENDBRANCH  16  19
ENDBRANCH  12  13
BRANCH  12  21
ATOM     21  C   LIG    1        1.017   1.749  -1.057  0.00  0.00    +0.005 C 
ATOM     22  C   LIG    1        0.245   1.943   0.250  0.00  0.00    +0.004 C 
ENDBRANCH  12  21
ENDBRANCH   1  12
TORSDOF 7
