REMARK  Name = ZINC00003741
REMARK                            x       y       z     vdW  Elec       q    Type
REMARK                         _______ _______ _______ _____ _____    ______ ____
ROOT
ATOM      1  N   LIG    1       -2.938   0.762   1.401  0.00  0.00    -0.323 N 
ATOM      2  C   LIG    1       -2.703  -0.380   2.133  0.00  0.00    +0.106 A 
ATOM      3  C   LIG    1       -3.255  -0.190   3.344  0.00  0.00    +0.102 A 
ATOM      4  N   LIG    1       -3.815   1.030   3.365  0.00  0.00    -0.341 N 
ATOM      5  H   LIG    1       -4.313   1.441   4.163  0.00  0.00    +0.167 HD
ATOM      6  C   LIG    1       -3.628   1.616   2.206  0.00  0.00    +0.144 A 
ENDROOT
BRANCH   6   7
ATOM      7  S   LIG    1       -4.178   3.230   1.764  0.00  0.00    -0.107 S 
ATOM      8  H   LIG    1       -5.452   2.921   1.244  0.00  0.00    +0.110 HD
ENDBRANCH   6   7
BRANCH   1   9
ATOM      9  C   LIG    1       -2.521   1.012   0.019  0.00  0.00    +0.159 C 
BRANCH   9  14
ATOM     10  C   LIG    1       -0.013   1.076   0.008  0.00  0.00    +0.013 A 
ATOM     11  C   LIG    1        1.146   1.780   0.001  0.00  0.00    +0.045 A 
ATOM     12  S   LIG    1        0.555   3.464   0.015  0.00  0.00    -0.105 S 
ATOM     13  C   LIG    1       -1.196   3.116   0.030  0.00  0.00    +0.050 A 
ATOM     14  C   LIG    1       -1.213   1.761   0.017  0.00  0.00    -0.021 A 
ENDBRANCH   9  14
ENDBRANCH   1   9
TORSDOF 3
