REMARK  Name = ZINC00008795
REMARK                            x       y       z     vdW  Elec       q    Type
REMARK                         _______ _______ _______ _____ _____    ______ ____
ROOT
ATOM      1  C   LIG    1        1.168   2.085   0.002  0.00  0.00    +0.020 A 
ATOM      2  C   LIG    1       -0.017   1.371   0.010  0.00  0.00    +0.007 A 
ATOM      3  C   LIG    1        0.002  -0.004   0.002  0.00  0.00    -0.025 A 
ATOM      4  C   LIG    1        1.220  -0.699   0.001  0.00  0.00    +0.034 A 
ATOM      5  N   LIG    1        0.960  -2.049   0.048  0.00  0.00    -0.330 N 
ATOM      6  C   LIG    1        1.908  -3.027  -0.439  0.00  0.00    +0.086 C 
ATOM      7  C   LIG    1        1.415  -4.415   0.006  0.00  0.00    -0.063 C 
ATOM      8  N   LIG    1        0.028  -4.666  -0.445  0.00  0.00    +0.381 N 
ATOM      9  H   LIG    1        0.011  -4.703  -1.470  0.00  0.00    -0.086 HD
ATOM     10  H   LIG    1       -0.290  -5.565  -0.064  0.00  0.00    -0.086 HD
ATOM     11  C   LIG    1       -0.893  -3.589   0.018  0.00  0.00    -0.060 C 
ATOM     12  C   LIG    1       -0.377  -2.274  -0.558  0.00  0.00    +0.061 C 
ATOM     13  C   LIG    1        2.405   0.031  -0.023  0.00  0.00    +0.043 A 
ATOM     14  C   LIG    1       -1.121  -1.034  -0.032  0.00  0.00    +0.057 C 
ATOM     15  C   LIG    1        2.377   1.411  -0.021  0.00  0.00    +0.043 A 
ATOM     16 CL   LIG    1        3.864   2.305  -0.048  0.00  0.00    -0.083 Cl
ENDROOT
TORSDOF 0
