REMARK  Name = ZINC00001201
REMARK                            x       y       z     vdW  Elec       q    Type
REMARK                         _______ _______ _______ _____ _____    ______ ____
ROOT
ATOM      1  C   LIG    1       -0.017   1.390   0.010  0.00  0.00    +0.001 A 
ATOM      2  C   LIG    1        1.162   2.100   0.002  0.00  0.00    +0.001 A 
ATOM      3  C   LIG    1        2.385   1.432  -0.013  0.00  0.00    +0.012 A 
ATOM      4  C   LIG    1        2.415   0.050  -0.021  0.00  0.00    +0.028 A 
ATOM      5  C   LIG    1        3.523  -0.940  -0.038  0.00  0.00    +0.136 C 
ATOM      6  C   LIG    1        2.964  -2.225  -0.039  0.00  0.00    +0.071 C 
ATOM      7  C   LIG    1        1.567  -2.119  -0.025  0.00  0.00    +0.198 C 
ATOM      8  O   LIG    1        0.776  -3.053  -0.021  0.00  0.00    -0.286 OA
ATOM      9  C   LIG    1        1.210  -0.676  -0.013  0.00  0.00    +0.033 A 
ATOM     10  C   LIG    1        0.002  -0.004   0.002  0.00  0.00    +0.012 A 
ENDROOT
BRANCH   6  11
ATOM     11  C   LIG    1        3.728  -3.493  -0.054  0.00  0.00    -0.011 A 
ATOM     12  C   LIG    1        3.646  -4.347  -1.154  0.00  0.00    +0.010 A 
ATOM     13  C   LIG    1        4.360  -5.528  -1.161  0.00  0.00    +0.020 A 
ATOM     14  C   LIG    1        5.157  -5.865  -0.081  0.00  0.00    +0.041 A 
ATOM     15 CL   LIG    1        6.053  -7.352  -0.098  0.00  0.00    -0.084 Cl
ATOM     16  C   LIG    1        5.242  -5.021   1.014  0.00  0.00    +0.020 A 
ATOM     17  C   LIG    1        4.537  -3.835   1.030  0.00  0.00    +0.010 A 
ENDBRANCH   6  11
BRANCH   5  18
ATOM     18  O   LIG    1        4.719  -0.678  -0.048  0.00  0.00    -0.505 OA
ATOM     19  H   LIG    1        5.003   0.215  -0.046  0.00  0.00    +0.292 HD
ENDBRANCH   5  18
TORSDOF 2
