REMARK  Name = ZINC00015335
REMARK                            x       y       z     vdW  Elec       q    Type
REMARK                         _______ _______ _______ _____ _____    ______ ____
ROOT
ATOM      1  C   LIG    1        4.939  -2.712   0.065  0.00  0.00    +0.114 C 
ATOM      2  C   LIG    1        4.954  -4.077   0.247  0.00  0.00    +0.032 C 
ENDROOT
BRANCH   2   3
ATOM      3  C   LIG    1        6.225  -4.775   0.450  0.00  0.00    -0.020 A 
ATOM      4  C   LIG    1        6.370  -6.107   0.036  0.00  0.00    +0.012 A 
ATOM      5  C   LIG    1        7.567  -6.760   0.229  0.00  0.00    +0.050 A 
ATOM      6  C   LIG    1        8.632  -6.103   0.834  0.00  0.00    +0.158 A 
ATOM      7  C   LIG    1        8.495  -4.778   1.250  0.00  0.00    +0.159 A 
ATOM      8  C   LIG    1        7.302  -4.112   1.055  0.00  0.00    +0.057 A 
BRANCH   6   9
ATOM      9  O   LIG    1        9.808  -6.753   1.021  0.00  0.00    -0.503 OA
ATOM     10  H   LIG    1       10.428  -6.665   0.284  0.00  0.00    +0.292 HD
ENDBRANCH   6   9
BRANCH   7  11
ATOM     11  O   LIG    1        9.540  -4.141   1.842  0.00  0.00    -0.503 OA
ATOM     12  H   LIG    1       10.122  -3.679   1.222  0.00  0.00    +0.292 HD
ENDBRANCH   7  11
ENDBRANCH   2   3
BRANCH   1  15
ATOM     13  N   LIG    1        3.643  -0.654  -0.161  0.00  0.00    -0.281 N 
ATOM     14  H   LIG    1        4.472  -0.178  -0.332  0.00  0.00    +0.155 HD
ATOM     15  C   LIG    1        3.658  -1.990   0.017  0.00  0.00    +0.259 C 
ATOM     16  O   LIG    1        2.612  -2.599   0.137  0.00  0.00    -0.269 OA
BRANCH  13  20
ATOM     17  C   LIG    1        0.043   1.433   0.019  0.00  0.00    +0.000 A 
ATOM     18  C   LIG    1        1.202   2.014   0.499  0.00  0.00    +0.002 A 
ATOM     19  C   LIG    1        2.398   1.325   0.441  0.00  0.00    +0.023 A 
ATOM     20  C   LIG    1        2.435   0.047  -0.100  0.00  0.00    +0.034 A 
ATOM     21  C   LIG    1        1.269  -0.534  -0.581  0.00  0.00    +0.023 A 
ATOM     22  C   LIG    1        0.077   0.160  -0.520  0.00  0.00    +0.002 A 
ENDBRANCH  13  20
ENDBRANCH   1  15
BRANCH   1  23
ATOM     23  C   LIG    1        6.170  -1.995  -0.077  0.00  0.00    +0.104 C 
ATOM     24  N   LIG    1        7.147  -1.426  -0.190  0.00  0.00    -0.191 NA
ENDBRANCH   1  23
TORSDOF 6
