REMARK  Name = ZINC00004346
REMARK                            x       y       z     vdW  Elec       q    Type
REMARK                         _______ _______ _______ _____ _____    ______ ____
ROOT
ATOM      1  C   LIG    1       -1.983   4.694  -1.378  0.00  0.00    +0.085 A 
ATOM      2  N   LIG    1       -2.961   4.277  -2.145  0.00  0.00    -0.244 NA
ATOM      3  C   LIG    1       -3.112   4.730  -3.380  0.00  0.00    +0.078 A 
ATOM      4  C   LIG    1       -2.212   5.654  -3.838  0.00  0.00    +0.075 A 
ATOM      5  S   LIG    1       -1.161   5.829  -2.403  0.00  0.00    -0.080 S 
ENDROOT
BRANCH   3   6
ATOM      6  C   LIG    1       -4.222   4.252  -4.240  0.00  0.00    +0.001 A 
ATOM      7  C   LIG    1       -4.366   4.745  -5.535  0.00  0.00    +0.010 A 
ATOM      8  C   LIG    1       -5.398   4.293  -6.332  0.00  0.00    +0.001 A 
ATOM      9  C   LIG    1       -6.294   3.359  -5.844  0.00  0.00    +0.000 A 
ATOM     10  C   LIG    1       -6.159   2.869  -4.558  0.00  0.00    +0.001 A 
ATOM     11  C   LIG    1       -5.128   3.311  -3.753  0.00  0.00    +0.010 A 
ENDBRANCH   3   6
BRANCH   1  12
ATOM     12  C   LIG    1       -1.658   4.295   0.038  0.00  0.00    +0.117 C 
BRANCH  12  15
ATOM     13  C   LIG    1        1.470   4.417   0.011  0.00  0.00    +0.065 C 
ATOM     14  C   LIG    1        0.623   3.170   0.012  0.00  0.00    +0.034 A 
ATOM     15  C   LIG    1       -0.722   3.114   0.024  0.00  0.00    +0.042 A 
ATOM     16  N   LIG    1       -1.082   1.822   0.017  0.00  0.00    -0.349 N 
ATOM     17  H   LIG    1       -2.048   1.475   0.017  0.00  0.00    +0.166 HD
ATOM     18  C   LIG    1       -0.013   1.076   0.008  0.00  0.00    +0.171 A 
ATOM     19  N   LIG    1        1.074   1.878   0.002  0.00  0.00    -0.350 N 
ATOM     20  H   LIG    1        2.029   1.582  -0.008  0.00  0.00    +0.166 HD
ENDBRANCH  12  15
ENDBRANCH   1  12
TORSDOF 3
