REMARK  Name = ZINC00027320
REMARK                            x       y       z     vdW  Elec       q    Type
REMARK                         _______ _______ _______ _____ _____    ______ ____
ROOT
ATOM      1  C   LIG    1        3.168   6.409   0.004  0.00  0.00    +0.000 A 
ATOM      2  C   LIG    1        3.730   5.145  -0.007  0.00  0.00    +0.001 A 
ATOM      3  C   LIG    1        2.921   4.027  -0.005  0.00  0.00    +0.010 A 
ATOM      4  C   LIG    1        1.536   4.173   0.009  0.00  0.00    +0.004 A 
ATOM      5  C   LIG    1        0.975   5.448   0.015  0.00  0.00    +0.010 A 
ATOM      6  C   LIG    1        1.794   6.559   0.018  0.00  0.00    +0.001 A 
ENDROOT
BRANCH   4   7
ATOM      7  C   LIG    1        0.660   2.974   0.011  0.00  0.00    +0.112 A 
ATOM      8  C   LIG    1       -0.747   2.948   0.024  0.00  0.00    +0.164 A 
ATOM      9  N   LIG    1       -1.080   1.679   0.016  0.00  0.00    -0.163 NA
ATOM     10  N   LIG    1       -0.011   0.966   0.007  0.00  0.00    -0.196 N 
ATOM     11  H   LIG    1        0.003  -0.034   0.006  0.00  0.00    +0.213 HD
ATOM     12  N   LIG    1        1.039   1.708   0.001  0.00  0.00    -0.155 NA
ENDBRANCH   4   7
TORSDOF 1
