REMARK  Name = ZINC00057751
REMARK                            x       y       z     vdW  Elec       q    Type
REMARK                         _______ _______ _______ _____ _____    ______ ____
ROOT
ATOM      1  C   LIG    1        0.626  -0.619   1.042  0.00  0.00    +0.121 A 
ATOM      2  C   LIG    1        1.203   0.143   2.053  0.00  0.00    +0.049 A 
ATOM      3  C   LIG    1        1.840  -0.464   3.114  0.00  0.00    +0.050 A 
ATOM      4  C   LIG    1        1.910  -1.851   3.181  0.00  0.00    +0.139 A 
ATOM      5  C   LIG    1        1.327  -2.620   2.162  0.00  0.00    +0.067 A 
ATOM      6  C   LIG    1        1.414  -4.091   2.254  0.00  0.00    +0.193 A 
ATOM      7  C   LIG    1        2.086  -4.634   3.375  0.00  0.00    +0.098 A 
ATOM      8  C   LIG    1        2.616  -3.798   4.308  0.00  0.00    +0.139 A 
ATOM      9  O   LIG    1        0.927  -4.811   1.397  0.00  0.00    -0.287 OA
ATOM     10  O   LIG    1        2.530  -2.462   4.212  0.00  0.00    -0.455 OA
ATOM     11  C   LIG    1        0.680  -1.999   1.095  0.00  0.00    +0.061 A 
ENDROOT
BRANCH   8  12
ATOM     12  C   LIG    1        3.312  -4.383   5.471  0.00  0.00    +0.017 A 
ATOM     13  C   LIG    1        3.424  -5.769   5.598  0.00  0.00    +0.011 A 
ATOM     14  C   LIG    1        4.076  -6.309   6.686  0.00  0.00    +0.001 A 
ATOM     15  C   LIG    1        4.619  -5.480   7.652  0.00  0.00    +0.000 A 
ATOM     16  C   LIG    1        4.512  -4.105   7.533  0.00  0.00    +0.001 A 
ATOM     17  C   LIG    1        3.868  -3.552   6.447  0.00  0.00    +0.011 A 
ENDBRANCH   8  12
BRANCH   1  19
ATOM     18  C   LIG    1       -0.017   1.425   0.010  0.00  0.00    +0.277 C 
ATOM     19  O   LIG    1        0.002  -0.004   0.002  0.00  0.00    -0.495 OA
ENDBRANCH   1  19
TORSDOF 2
