REMARK  Name = ZINC00058239
REMARK                            x       y       z     vdW  Elec       q    Type
REMARK                         _______ _______ _______ _____ _____    ______ ____
ROOT
ATOM      1  C   LIG    1        2.474   4.321   0.001  0.00  0.00    +0.251 C 
ENDROOT
BRANCH   1   2
ATOM      2  S   LIG    1        2.129   6.102   0.013  0.00  0.00    +0.004 S 
ATOM      3  O   LIG    1        1.551   6.480   1.255  0.00  0.00    -0.169 OA
ATOM      4  O   LIG    1        1.528   6.492  -1.214  0.00  0.00    -0.169 OA
BRANCH   2   8
ATOM      5  C   LIG    1        6.201   8.078  -0.015  0.00  0.00    +0.000 A 
ATOM      6  C   LIG    1        5.568   7.782  -1.208  0.00  0.00    +0.002 A 
ATOM      7  C   LIG    1        4.325   7.179  -1.199  0.00  0.00    +0.027 A 
ATOM      8  C   LIG    1        3.714   6.871   0.002  0.00  0.00    +0.089 A 
ATOM      9  C   LIG    1        4.345   7.172   1.195  0.00  0.00    +0.027 A 
ATOM     10  C   LIG    1        5.590   7.771   1.187  0.00  0.00    +0.002 A 
ENDBRANCH   2   8
ENDBRANCH   1   2
BRANCH   1  11
ATOM     11  C   LIG    1        1.176   3.557   0.009  0.00  0.00    +0.184 C 
ATOM     12  O   LIG    1        0.121   4.155   0.022  0.00  0.00    -0.290 OA
BRANCH  11  13
ATOM     13  C   LIG    1        1.187   2.086   0.002  0.00  0.00    +0.019 A 
ATOM     14  C   LIG    1       -0.017   1.374   0.010  0.00  0.00    +0.013 A 
ATOM     15  C   LIG    1        0.002  -0.004   0.002  0.00  0.00    +0.020 A 
ATOM     16  C   LIG    1        1.209  -0.684  -0.013  0.00  0.00    +0.041 A 
ATOM     17 CL   LIG    1        1.223  -2.420  -0.022  0.00  0.00    -0.084 Cl
ATOM     18  C   LIG    1        2.406   0.015  -0.021  0.00  0.00    +0.020 A 
ATOM     19  C   LIG    1        2.402   1.393  -0.013  0.00  0.00    +0.013 A 
ENDBRANCH  11  13
ENDBRANCH   1  11
TORSDOF 4
