REMARK  Name = ZINC00005423
REMARK                            x       y       z     vdW  Elec       q    Type
REMARK                         _______ _______ _______ _____ _____    ______ ____
ROOT
ATOM      1  C   LIG    1        0.054  -2.948   2.243  0.00  0.00    +0.009 A 
ATOM      2  C   LIG    1        0.047  -2.443   3.548  0.00  0.00    +0.014 A 
ATOM      3  C   LIG    1        0.064  -3.302   4.624  0.00  0.00    +0.047 A 
ATOM      4  C   LIG    1        0.087  -4.675   4.423  0.00  0.00    +0.138 A 
ATOM      5  C   LIG    1        0.094  -5.193   3.119  0.00  0.00    +0.094 A 
ATOM      6  C   LIG    1        0.072  -4.324   2.030  0.00  0.00    +0.033 A 
ENDROOT
BRANCH   1  11
ATOM      7  C   LIG    1       -0.018   1.503   0.010  0.00  0.00    +0.067 C 
ATOM      8  C   LIG    1        0.002  -0.004   0.002  0.00  0.00    +0.060 A 
ATOM      9  C   LIG    1        0.006  -0.732  -1.185  0.00  0.00    +0.119 A 
ATOM     10  S   LIG    1        0.033  -2.400  -0.547  0.00  0.00    -0.060 S 
ATOM     11  C   LIG    1        0.036  -2.022   1.093  0.00  0.00    +0.109 A 
ATOM     12  N   LIG    1        0.022  -0.698   1.107  0.00  0.00    -0.243 NA
BRANCH   9  13
ATOM     13  C   LIG    1       -0.007  -0.276  -2.526  0.00  0.00    +0.345 C 
ATOM     14  O   LIG    1       -0.026   0.926  -2.765  0.00  0.00    -0.244 OA
BRANCH  13  15
ATOM     15  O   LIG    1       -0.001  -1.083  -3.448  0.00  0.00    -0.477 OA
ATOM     16  H   LIG    1        0.013  -2.002  -3.266  0.00  0.00    +0.295 HD
ENDBRANCH  13  15
ENDBRANCH   9  13
ENDBRANCH   1  11
BRANCH   5  17
ATOM     17  C   LIG    1        0.118  -6.610   2.908  0.00  0.00    +0.103 C 
ATOM     18  N   LIG    1        0.138  -7.733   2.741  0.00  0.00    -0.191 NA
ENDBRANCH   5  17
BRANCH   4  19
ATOM     19  O   LIG    1        0.105  -5.516   5.487  0.00  0.00    -0.490 OA
BRANCH  19  20
ATOM     20  C   LIG    1        0.098  -4.920   6.785  0.00  0.00    +0.232 C 
BRANCH  20  21
ATOM     21  C   LIG    1        0.119  -6.018   7.851  0.00  0.00    +0.020 C 
ATOM     22  C   LIG    1       -1.174  -6.831   7.772  0.00  0.00    +0.010 C 
ATOM     23  C   LIG    1        0.237  -5.381   9.237  0.00  0.00    +0.010 C 
ENDBRANCH  20  21
ENDBRANCH  19  20
ENDBRANCH   4  19
TORSDOF 7
