REMARK  Name = ZINC00007275
REMARK                            x       y       z     vdW  Elec       q    Type
REMARK                         _______ _______ _______ _____ _____    ______ ____
ROOT
ATOM      1  N   LIG    1        1.644  -3.200   3.123  0.00  0.00    -0.177 NA
ATOM      2  C   LIG    1        2.335  -2.205   3.947  0.00  0.00    +0.132 C 
ENDROOT
BRANCH   1   3
ATOM      3  S   LIG    1        0.057  -2.973   2.709  0.00  0.00    +0.061 S 
ATOM      4  O   LIG    1       -0.479  -4.260   2.433  0.00  0.00    -0.153 OA
ATOM      5  O   LIG    1       -0.500  -2.110   3.691  0.00  0.00    -0.153 OA
BRANCH   3  11
ATOM      6  C   LIG    1       -0.018   1.503   0.010  0.00  0.00    +0.044 C 
ATOM      7  C   LIG    1        0.002  -0.004   0.002  0.00  0.00    -0.049 A 
ATOM      8  C   LIG    1        0.006  -0.689  -1.199  0.00  0.00    +0.003 A 
ATOM      9  C   LIG    1        0.025  -2.071  -1.207  0.00  0.00    +0.002 A 
ATOM     10  C   LIG    1        0.040  -2.768  -0.013  0.00  0.00    +0.028 A 
ATOM     11  C   LIG    1        0.037  -2.084   1.188  0.00  0.00    +0.106 A 
ATOM     12  C   LIG    1        0.023  -0.702   1.195  0.00  0.00    +0.032 A 
ENDBRANCH   3  11
ENDBRANCH   1   3
BRANCH   1  13
ATOM     13  C   LIG    1        2.357  -4.395   2.666  0.00  0.00    +0.075 C 
ATOM     14  C   LIG    1        2.844  -5.193   3.878  0.00  0.00    +0.026 C 
BRANCH  13  15
ATOM     15  C   LIG    1        3.557  -3.978   1.813  0.00  0.00    +0.002 C 
BRANCH  15  16
ATOM     16  C   LIG    1        3.063  -3.290   0.539  0.00  0.00    -0.077 C 
BRANCH  16  17
ATOM     17  N   LIG    1        4.215  -2.890  -0.279  0.00  0.00    +0.380 N 
ATOM     18  H   LIG    1        4.795  -3.696  -0.458  0.00  0.00    -0.082 HD
ATOM     19  C   LIG    1        4.997  -1.878   0.441  0.00  0.00    -0.079 C 
ATOM     20  C   LIG    1        6.242  -1.517  -0.372  0.00  0.00    -0.016 C 
ATOM     21  C   LIG    1        5.813  -0.960  -1.733  0.00  0.00    -0.018 C 
ATOM     22  C   LIG    1        7.053  -0.671  -2.581  0.00  0.00    +0.007 C 
ATOM     23  C   LIG    1        4.936  -1.995  -2.443  0.00  0.00    -0.016 C 
ATOM     24  C   LIG    1        3.740  -2.338  -1.554  0.00  0.00    -0.079 C 
ENDBRANCH  16  17
ENDBRANCH  15  16
ENDBRANCH  13  15
ENDBRANCH   1  13
TORSDOF 6
