REMARK  Name = ZINC00002212
REMARK                            x       y       z     vdW  Elec       q    Type
REMARK                         _______ _______ _______ _____ _____    ______ ____
ROOT
ATOM      1  C   LIG    1       -0.180   1.664   0.344  0.00  0.00    +0.088 C 
ATOM      2  C   LIG    1       -0.094   0.166   0.204  0.00  0.00    +0.135 A 
ATOM      3  N   LIG    1       -0.145  -0.516  -0.910  0.00  0.00    -0.134 NA
ATOM      4  N   LIG    1       -0.022  -1.773  -0.661  0.00  0.00    -0.132 NA
ATOM      5  C   LIG    1        0.121  -1.953   0.621  0.00  0.00    +0.159 A 
ATOM      6  C   LIG    1        0.341  -3.257   1.345  0.00  0.00    +0.218 C 
ATOM      7  N   LIG    1        1.625  -3.156   2.061  0.00  0.00    -0.275 NA
ATOM      8  C   LIG    1        1.825  -2.273   2.976  0.00  0.00    +0.077 C 
ATOM      9  C   LIG    1        0.899  -1.236   3.446  0.00  0.00    +0.026 A 
ATOM     10  C   LIG    1        0.855  -0.965   4.822  0.00  0.00    +0.032 A 
ATOM     11  C   LIG    1        0.059   0.046   5.310  0.00  0.00    +0.042 A 
ATOM     12 CL   LIG    1        0.018   0.367   7.016  0.00  0.00    -0.084 Cl
ATOM     13  C   LIG    1       -0.709   0.809   4.445  0.00  0.00    +0.022 A 
ATOM     14  C   LIG    1       -0.690   0.544   3.091  0.00  0.00    +0.028 A 
ATOM     15  C   LIG    1        0.099  -0.483   2.584  0.00  0.00    +0.059 A 
ATOM     16  N   LIG    1        0.058  -0.733   1.212  0.00  0.00    -0.281 N 
ENDROOT
BRANCH   8  17
ATOM     17  C   LIG    1        3.150  -2.308   3.634  0.00  0.00    +0.019 A 
ATOM     18  C   LIG    1        3.516  -3.404   4.416  0.00  0.00    +0.011 A 
ATOM     19  C   LIG    1        4.752  -3.431   5.026  0.00  0.00    +0.001 A 
ATOM     20  C   LIG    1        5.631  -2.373   4.866  0.00  0.00    +0.001 A 
ATOM     21  C   LIG    1        5.275  -1.283   4.093  0.00  0.00    +0.020 A 
ATOM     22  C   LIG    1        4.042  -1.246   3.472  0.00  0.00    +0.050 A 
ATOM     23 CL   LIG    1        3.600   0.120   2.496  0.00  0.00    -0.083 Cl
ENDBRANCH   8  17
TORSDOF 1
