REMARK  Name = ZINC00002275
REMARK                            x       y       z     vdW  Elec       q    Type
REMARK                         _______ _______ _______ _____ _____    ______ ____
ROOT
ATOM      1  C   LIG    1        2.223   5.299  -0.103  0.00  0.00    +0.230 C 
ENDROOT
BRANCH   1   2
ATOM      2  C   LIG    1        2.263   5.915   1.297  0.00  0.00    +0.146 C 
ATOM      3  C   LIG    1        1.087   5.386   2.122  0.00  0.00    -0.046 C 
ATOM      4  N   LIG    1        1.086   6.035   3.447  0.00  0.00    +0.382 N 
ATOM      5  H   LIG    1        0.286   5.694   3.991  0.00  0.00    -0.086 HD
ATOM      6  H   LIG    1        1.958   5.804   3.938  0.00  0.00    -0.086 HD
ATOM      7  C   LIG    1        0.984   7.499   3.296  0.00  0.00    -0.054 C 
ATOM      8  C   LIG    1        2.161   8.007   2.458  0.00  0.00    +0.141 C 
ATOM      9  O   LIG    1        2.164   7.338   1.194  0.00  0.00    -0.376 OA
ENDBRANCH   1   2
BRANCH   1  10
ATOM     10  C   LIG    1        3.377   5.824  -0.916  0.00  0.00    -0.005 A 
ATOM     11  C   LIG    1        4.618   5.222  -0.825  0.00  0.00    +0.007 A 
ATOM     12  C   LIG    1        5.676   5.701  -1.575  0.00  0.00    +0.000 A 
ATOM     13  C   LIG    1        5.496   6.789  -2.409  0.00  0.00    +0.000 A 
ATOM     14  C   LIG    1        4.256   7.395  -2.496  0.00  0.00    +0.000 A 
ATOM     15  C   LIG    1        3.197   6.912  -1.750  0.00  0.00    +0.007 A 
ENDBRANCH   1  10
BRANCH   1  16
ATOM     16  O   LIG    1        2.321   3.877  -0.000  0.00  0.00    -0.478 OA
BRANCH  16  22
ATOM     17  C   LIG    1        1.196   1.779  -0.119  0.00  0.00    +0.162 A 
ATOM     18  C   LIG    1        0.013   1.063  -0.213  0.00  0.00    +0.049 A 
ATOM     19  C   LIG    1       -1.196   1.731  -0.284  0.00  0.00    +0.004 A 
ATOM     20  C   LIG    1       -1.228   3.112  -0.251  0.00  0.00    +0.004 A 
ATOM     21  C   LIG    1       -0.052   3.833  -0.158  0.00  0.00    +0.049 A 
ATOM     22  C   LIG    1        1.163   3.170  -0.091  0.00  0.00    +0.163 A 
BRANCH  17  23
ATOM     23  O   LIG    1        2.385   1.123  -0.055  0.00  0.00    -0.489 OA
BRANCH  23  25
ATOM     24  C   LIG    1        3.766  -0.860  -0.008  0.00  0.00    +0.048 C 
ATOM     25  C   LIG    1        2.342  -0.304  -0.089  0.00  0.00    +0.226 C 
ENDBRANCH  23  25
ENDBRANCH  17  23
ENDBRANCH  16  22
ENDBRANCH   1  16
TORSDOF 6
