REMARK  Name = ZINC00067093
REMARK                            x       y       z     vdW  Elec       q    Type
REMARK                         _______ _______ _______ _____ _____    ______ ____
ROOT
ATOM      1  C   LIG    1       -0.013   1.076   0.008  0.00  0.00    +0.027 A 
ATOM      2  C   LIG    1       -1.218   1.750   0.017  0.00  0.00    +0.040 A 
ATOM      3  C   LIG    1       -1.237   3.135   0.031  0.00  0.00    +0.124 A 
ATOM      4  F   LIG    1       -2.417   3.793   0.045  0.00  0.00    -0.205 F 
ATOM      5  C   LIG    1       -0.049   3.846   0.023  0.00  0.00    +0.040 A 
ATOM      6  C   LIG    1        1.158   3.175   0.008  0.00  0.00    +0.027 A 
ATOM      7  C   LIG    1        1.180   1.787   0.000  0.00  0.00    +0.045 A 
ENDROOT
BRANCH   7   8
ATOM      8  N   LIG    1        2.405   1.103  -0.015  0.00  0.00    -0.203 N 
ATOM      9  C   LIG    1        2.546  -0.235  -0.019  0.00  0.00    +0.250 C 
ATOM     10  C   LIG    1        3.991  -0.551  -0.041  0.00  0.00    +0.073 C 
ATOM     11  C   LIG    1        4.646   0.622  -0.040  0.00  0.00    +0.073 C 
ATOM     12  O   LIG    1        1.642  -1.044  -0.009  0.00  0.00    -0.270 OA
ATOM     13  C   LIG    1        3.617   1.685  -0.024  0.00  0.00    +0.250 C 
ATOM     14  O   LIG    1        3.831   2.880  -0.019  0.00  0.00    -0.270 OA
ENDBRANCH   7   8
TORSDOF 1
