REMARK  Name = ZINC00006562
REMARK                            x       y       z     vdW  Elec       q    Type
REMARK                         _______ _______ _______ _____ _____    ______ ____
ROOT
ATOM      1  O   LIG    1       -0.811  -1.954  -1.171  0.00  0.00    -0.492 OA
ENDROOT
BRANCH   1   4
ATOM      2  C   LIG    1       -0.967  -4.774  -1.086  0.00  0.00    +0.069 C 
ATOM      3  C   LIG    1       -1.549  -3.966  -2.217  0.00  0.00    +0.080 A 
ATOM      4  C   LIG    1       -1.439  -2.583  -2.200  0.00  0.00    +0.141 A 
ATOM      5  C   LIG    1       -1.976  -1.849  -3.253  0.00  0.00    +0.049 A 
ATOM      6  C   LIG    1       -2.607  -2.535  -4.278  0.00  0.00    +0.023 A 
ATOM      7  C   LIG    1       -2.682  -3.914  -4.222  0.00  0.00    +0.111 A 
ATOM      8  N   LIG    1       -2.163  -4.580  -3.209  0.00  0.00    -0.257 NA
ENDBRANCH   1   4
BRANCH   1   9
ATOM      9  C   LIG    1       -0.734  -0.528  -1.232  0.00  0.00    +0.213 C 
BRANCH   9  10
ATOM     10  C   LIG    1        0.002  -0.004   0.002  0.00  0.00    -0.034 C 
ATOM     11  N   LIG    1        1.412  -0.397  -0.035  0.00  0.00    +0.383 N 
ATOM     12  H   LIG    1        1.552  -1.254   0.512  0.00  0.00    -0.085 HD
ATOM     13  H   LIG    1        1.706  -0.558  -1.005  0.00  0.00    -0.085 HD
ATOM     14  C   LIG    1        2.191   0.705   0.550  0.00  0.00    -0.082 C 
ATOM     15  C   LIG    1        1.468   1.960  -0.001  0.00  0.00    -0.021 C 
ATOM     16  C   LIG    1       -0.019   1.536   0.011  0.00  0.00    -0.014 C 
ENDBRANCH   9  10
ENDBRANCH   1   9
TORSDOF 3
