REMARK  Name = ZINC00005833
REMARK                            x       y       z     vdW  Elec       q    Type
REMARK                         _______ _______ _______ _____ _____    ______ ____
ROOT
ATOM      1  C   LIG    1        5.436   2.857   3.538  0.00  0.00    +0.001 A 
ATOM      2  C   LIG    1        4.237   2.145   3.565  0.00  0.00    +0.001 A 
ATOM      3  C   LIG    1        3.661   1.698   2.416  0.00  0.00    +0.009 A 
ATOM      4  C   LIG    1        4.280   1.959   1.181  0.00  0.00    -0.015 A 
ATOM      5  C   LIG    1        5.500   2.679   1.154  0.00  0.00    -0.018 A 
ATOM      6  C   LIG    1        6.121   2.936  -0.080  0.00  0.00    +0.008 A 
ATOM      7  C   LIG    1        5.545   2.488  -1.230  0.00  0.00    +0.001 A 
ATOM      8  C   LIG    1        4.348   1.777  -1.202  0.00  0.00    +0.004 A 
ATOM      9  C   LIG    1        3.719   1.508  -0.025  0.00  0.00    -0.038 A 
ATOM     10  C   LIG    1        6.065   3.125   2.361  0.00  0.00    +0.008 A 
ENDROOT
BRANCH   9  11
ATOM     11  C   LIG    1        2.424   0.737  -0.017  0.00  0.00    +0.054 C 
BRANCH  11  12
ATOM     12  C   LIG    1        1.248   1.716  -0.001  0.00  0.00    +0.109 C 
BRANCH  12  13
ATOM     13  N   LIG    1       -0.011   0.966   0.007  0.00  0.00    -0.315 N 
ATOM     14  H   LIG    1        0.002  -0.004   0.002  0.00  0.00    +0.149 HD
ATOM     15  C   LIG    1       -1.187   1.624   0.017  0.00  0.00    +0.216 C 
ATOM     16  O   LIG    1       -1.204   2.837   0.023  0.00  0.00    -0.276 OA
BRANCH  15  17
ATOM     17  C   LIG    1       -2.482   0.853   0.018  0.00  0.00    +0.075 C 
ATOM     18  C   LIG    1       -2.924   0.387  -1.379  0.00  0.00    +0.013 C 
ATOM     19  C   LIG    1       -4.358   0.751  -0.961  0.00  0.00    +0.001 C 
ATOM     20  C   LIG    1       -3.732   1.748   0.029  0.00  0.00    +0.013 C 
ENDBRANCH  15  17
ENDBRANCH  12  13
ENDBRANCH  11  12
ENDBRANCH   9  11
TORSDOF 4
