REMARK  Name = ZINC00063844
REMARK                            x       y       z     vdW  Elec       q    Type
REMARK                         _______ _______ _______ _____ _____    ______ ____
ROOT
ATOM      1  C   LIG    1        0.013   1.377   0.267  0.00  0.00    +0.003 A 
ATOM      2  C   LIG    1        1.166   2.089   0.007  0.00  0.00    +0.015 A 
ATOM      3  C   LIG    1        2.358   1.413  -0.267  0.00  0.00    +0.061 A 
ATOM      4  C   LIG    1        2.375   0.016  -0.276  0.00  0.00    +0.039 A 
ATOM      5  C   LIG    1        1.212  -0.688  -0.013  0.00  0.00    +0.045 A 
ATOM      6  C   LIG    1        0.032  -0.005   0.258  0.00  0.00    +0.024 A 
ENDROOT
BRANCH   5   7
ATOM      7  N   LIG    1        1.224  -2.090  -0.021  0.00  0.00    -0.210 N 
ATOM      8  C   LIG    1        1.881  -2.814   0.894  0.00  0.00    +0.227 C 
ATOM      9  C   LIG    1        1.689  -4.285   0.596  0.00  0.00    +0.106 C 
ATOM     10  C   LIG    1        0.798  -4.286  -0.663  0.00  0.00    +0.106 C 
ATOM     11  O   LIG    1        2.526  -2.363   1.815  0.00  0.00    -0.275 OA
ATOM     12  C   LIG    1        0.576  -2.815  -0.941  0.00  0.00    +0.227 C 
ATOM     13  O   LIG    1       -0.083  -2.365  -1.854  0.00  0.00    -0.275 OA
ENDBRANCH   5   7
BRANCH   3  14
ATOM     14  C   LIG    1        3.592   2.171  -0.546  0.00  0.00    +0.337 C 
ATOM     15  O   LIG    1        3.574   3.393  -0.538  0.00  0.00    -0.245 OA
BRANCH  14  16
ATOM     16  O   LIG    1        4.634   1.576  -0.785  0.00  0.00    -0.477 OA
ATOM     17  H   LIG    1        4.648   0.639  -0.791  0.00  0.00    +0.295 HD
ENDBRANCH  14  16
ENDBRANCH   3  14
TORSDOF 3
