REMARK  Name = ZINC00039811
REMARK                            x       y       z     vdW  Elec       q    Type
REMARK                         _______ _______ _______ _____ _____    ______ ____
ROOT
ATOM      1  C   LIG    1       -0.013   1.076   0.008  0.00  0.00    +0.011 A 
ATOM      2  C   LIG    1       -1.213   1.749   0.017  0.00  0.00    +0.046 A 
ATOM      3  C   LIG    1       -1.233   3.139   0.030  0.00  0.00    +0.117 A 
ATOM      4  C   LIG    1       -0.043   3.857   0.022  0.00  0.00    +0.046 A 
ATOM      5  C   LIG    1        1.163   3.193   0.008  0.00  0.00    +0.011 A 
ATOM      6  C   LIG    1        1.189   1.793   0.000  0.00  0.00    -0.025 A 
ENDROOT
BRANCH   3   7
ATOM      7  O   LIG    1       -2.420   3.798   0.044  0.00  0.00    -0.507 OA
ATOM      8  H   LIG    1       -2.772   3.994  -0.835  0.00  0.00    +0.292 HD
ENDBRANCH   3   7
BRANCH   6   9
ATOM      9  C   LIG    1        2.474   1.080  -0.016  0.00  0.00    +0.015 C 
ATOM     10  C   LIG    1        3.633   1.775  -0.023  0.00  0.00    +0.092 C 
BRANCH  10  11
ATOM     11  C   LIG    1        4.872   1.086  -0.039  0.00  0.00    +0.330 C 
ATOM     12  O   LIG    1        4.892  -0.130  -0.045  0.00  0.00    -0.246 OA
BRANCH  11  13
ATOM     13  O   LIG    1        6.029   1.780  -0.046  0.00  0.00    -0.478 OA
ATOM     14  H   LIG    1        6.014   2.717  -0.041  0.00  0.00    +0.295 HD
ENDBRANCH  11  13
ENDBRANCH  10  11
ENDBRANCH   6   9
TORSDOF 4
