REMARK  Name = ZINC00050619
REMARK                            x       y       z     vdW  Elec       q    Type
REMARK                         _______ _______ _______ _____ _____    ______ ____
ROOT
ATOM      1  C   LIG    1        6.920  -2.095   1.852  0.00  0.00    +0.028 C 
ATOM      2  C   LIG    1        5.982  -1.731   0.941  0.00  0.00    +0.079 C 
ATOM      3  C   LIG    1        5.272  -2.550  -0.068  0.00  0.00    +0.276 C 
ATOM      4  N   LIG    1        4.398  -1.919  -0.822  0.00  0.00    -0.154 NA
ATOM      5  C   LIG    1        4.165  -0.622  -0.704  0.00  0.00    +0.154 C 
ATOM      6  O   LIG    1        5.482  -3.747  -0.190  0.00  0.00    -0.267 OA
ATOM      7  S   LIG    1        5.255  -0.129   0.622  0.00  0.00    -0.052 S 
ENDROOT
BRANCH   1  11
ATOM      8  C   LIG    1        7.829  -6.189   2.439  0.00  0.00    +0.030 A 
ATOM      9  C   LIG    1        8.847  -5.240   2.475  0.00  0.00    +0.024 A 
ATOM     10  C   LIG    1        8.558  -3.914   2.286  0.00  0.00    +0.010 A 
ATOM     11  C   LIG    1        7.235  -3.514   2.055  0.00  0.00    -0.024 A 
ATOM     12  C   LIG    1        6.213  -4.471   2.025  0.00  0.00    +0.010 A 
ATOM     13  C   LIG    1        6.513  -5.796   2.210  0.00  0.00    +0.024 A 
BRANCH   8  14
ATOM     14  N   LIG    1        8.127  -7.535   2.632  0.00  0.00    -0.330 N 
BRANCH  14  16
ATOM     15  C   LIG    1        6.884  -9.043   1.162  0.00  0.00    +0.024 C 
ATOM     16  C   LIG    1        7.057  -8.535   2.595  0.00  0.00    +0.102 C 
ENDBRANCH  14  16
BRANCH  14  17
ATOM     17  C   LIG    1        9.511  -7.951   2.873  0.00  0.00    +0.102 C 
ATOM     18  C   LIG    1        9.793  -7.936   4.377  0.00  0.00    +0.024 C 
ENDBRANCH  14  17
ENDBRANCH   8  14
ENDBRANCH   1  11
BRANCH   5  19
ATOM     19  N   LIG    1        3.293   0.154  -1.421  0.00  0.00    -0.311 N 
ATOM     20  C   LIG    1        2.470  -0.435  -2.487  0.00  0.00    +0.107 C 
ATOM     21  C   LIG    1        2.685   0.366  -3.775  0.00  0.00    +0.019 C 
ATOM     22  C   LIG    1        2.401   1.845  -3.506  0.00  0.00    +0.003 C 
ATOM     23  C   LIG    1        3.372   2.368  -2.445  0.00  0.00    +0.019 C 
ATOM     24  C   LIG    1        3.164   1.590  -1.141  0.00  0.00    +0.107 C 
ENDBRANCH   5  19
TORSDOF 5
