REMARK  Name = ZINC00013246
REMARK                            x       y       z     vdW  Elec       q    Type
REMARK                         _______ _______ _______ _____ _____    ______ ____
ROOT
ATOM      1  C   LIG    1       -0.017   1.394   0.010  0.00  0.00    +0.019 A 
ATOM      2  C   LIG    1        1.167   2.099   0.002  0.00  0.00    +0.050 A 
ATOM      3  C   LIG    1        2.380   1.424  -0.013  0.00  0.00    +0.158 A 
ATOM      4  C   LIG    1        2.407   0.030  -0.021  0.00  0.00    +0.159 A 
ATOM      5  C   LIG    1        1.225  -0.684  -0.014  0.00  0.00    +0.064 A 
ATOM      6  C   LIG    1        0.002  -0.004   0.002  0.00  0.00    +0.063 A 
ENDROOT
BRANCH   3   7
ATOM      7  O   LIG    1        3.544   2.124  -0.022  0.00  0.00    -0.503 OA
ATOM      8  H   LIG    1        3.890   2.322   0.859  0.00  0.00    +0.292 HD
ENDBRANCH   3   7
BRANCH   4   9
ATOM      9  O   LIG    1        3.598  -0.627  -0.037  0.00  0.00    -0.503 OA
ATOM     10  H   LIG    1        3.951  -0.822   0.842  0.00  0.00    +0.292 HD
ENDBRANCH   4   9
BRANCH   6  11
ATOM     11  C   LIG    1       -1.262  -0.759   0.011  0.00  0.00    +0.337 C 
ATOM     12  O   LIG    1       -2.330  -0.164   0.024  0.00  0.00    -0.245 OA
BRANCH  11  13
ATOM     13  O   LIG    1       -1.243  -1.983   0.004  0.00  0.00    -0.477 OA
ATOM     14  H   LIG    1       -0.425  -2.439  -0.007  0.00  0.00    +0.295 HD
ENDBRANCH  11  13
ENDBRANCH   6  11
TORSDOF 4
