REMARK  Name = ZINC00004413
REMARK                            x       y       z     vdW  Elec       q    Type
REMARK                         _______ _______ _______ _____ _____    ______ ____
ROOT
ATOM      1  C   LIG    1       -0.203  -1.295  -4.512  0.00  0.00    +0.133 A 
ATOM      2  C   LIG    1       -1.548  -0.969  -4.412  0.00  0.00    +0.046 A 
ATOM      3  C   LIG    1       -2.379  -1.128  -5.503  0.00  0.00    +0.004 A 
ATOM      4  C   LIG    1       -1.873  -1.614  -6.695  0.00  0.00    +0.002 A 
ATOM      5  C   LIG    1       -0.533  -1.940  -6.797  0.00  0.00    -0.058 A 
ATOM      6  C   LIG    1        0.304  -1.776  -5.710  0.00  0.00    +0.048 A 
ENDROOT
BRANCH   5   7
ATOM      7  C   LIG    1        0.015  -2.470  -8.097  0.00  0.00    -0.041 C 
ATOM      8  C   LIG    1        0.265  -1.306  -9.058  0.00  0.00    -0.008 C 
BRANCH   7   9
ATOM      9  N   LIG    1       -0.953  -3.399  -8.695  0.00  0.00    +0.380 N 
ATOM     10  H   LIG    1       -1.821  -2.915  -8.868  0.00  0.00    -0.082 HD
ATOM     11  C   LIG    1       -1.193  -4.517  -7.772  0.00  0.00    -0.096 C 
ATOM     12  C   LIG    1       -0.418  -3.916  -9.962  0.00  0.00    -0.096 C 
ENDBRANCH   7   9
ENDBRANCH   5   7
BRANCH   1  13
ATOM     13  O   LIG    1        0.617  -1.139  -3.440  0.00  0.00    -0.411 OA
BRANCH  13  15
ATOM     14  N   LIG    1        2.198   0.177  -2.337  0.00  0.00    -0.270 N 
ATOM     15  C   LIG    1        1.440  -0.072  -3.423  0.00  0.00    +0.408 C 
ATOM     16  O   LIG    1        1.498   0.665  -4.387  0.00  0.00    -0.226 OA
ATOM     17  C   LIG    1        2.127  -0.712  -1.175  0.00  0.00    +0.135 C 
BRANCH  14  19
ATOM     18  C   LIG    1        4.463   0.933  -2.866  0.00  0.00    +0.024 C 
ATOM     19  C   LIG    1        3.092   1.337  -2.318  0.00  0.00    +0.107 C 
ENDBRANCH  14  19
ENDBRANCH  13  15
ENDBRANCH   1  13
TORSDOF 5
