REMARK  Name = ZINC00017088
REMARK                            x       y       z     vdW  Elec       q    Type
REMARK                         _______ _______ _______ _____ _____    ______ ____
ROOT
ATOM      1  C   LIG    1       -0.240   1.093  -0.110  0.00  0.00    +0.176 C 
ATOM      2  N   LIG    1       -0.807   1.562   1.157  0.00  0.00    -0.232 N 
ATOM      3  C   LIG    1       -0.829   2.885   1.415  0.00  0.00    +0.275 A 
ATOM      4  C   LIG    1       -1.402   3.354   2.684  0.00  0.00    +0.050 A 
ATOM      5  C   LIG    1       -1.459   4.708   3.010  0.00  0.00    +0.014 A 
ATOM      6  C   LIG    1       -2.003   5.094   4.216  0.00  0.00    +0.001 A 
ATOM      7  C   LIG    1       -2.492   4.148   5.107  0.00  0.00    +0.001 A 
ATOM      8  C   LIG    1       -2.445   2.805   4.804  0.00  0.00    +0.011 A 
ATOM      9  C   LIG    1       -1.899   2.392   3.590  0.00  0.00    +0.016 A 
ATOM     10  C   LIG    1       -1.824   0.971   3.217  0.00  0.00    +0.107 A 
ATOM     11  O   LIG    1       -0.384   3.680   0.606  0.00  0.00    -0.266 OA
ATOM     12  N   LIG    1       -1.303   0.626   2.065  0.00  0.00    -0.167 NA
ENDROOT
BRANCH  10  13
ATOM     13  C   LIG    1       -2.333  -0.064   4.139  0.00  0.00    +0.059 A 
ATOM     14  C   LIG    1       -1.912  -1.357   4.325  0.00  0.00    +0.128 A 
ATOM     15  N   LIG    1       -2.536  -2.085   5.221  0.00  0.00    -0.255 NA
ATOM     16  C   LIG    1       -3.542  -1.607   5.919  0.00  0.00    +0.156 A 
ATOM     17  S   LIG    1       -3.675   0.016   5.317  0.00  0.00    -0.074 S 
ENDBRANCH  10  13
TORSDOF 1
