REMARK  Name = ZINC00056583
REMARK                            x       y       z     vdW  Elec       q    Type
REMARK                         _______ _______ _______ _____ _____    ______ ____
ROOT
ATOM      1  C   LIG    1       -2.945   0.708   1.462  0.00  0.00    -0.036 C 
ATOM      2  N   LIG    1       -1.953  -0.164   2.105  0.00  0.00    +0.384 N 
ATOM      3  H   LIG    1       -1.805  -0.998   1.524  0.00  0.00    -0.085 HD
ATOM      4  H   LIG    1       -1.066   0.344   2.205  0.00  0.00    -0.085 HD
ATOM      5  C   LIG    1       -2.434  -0.575   3.437  0.00  0.00    -0.077 C 
ATOM      6  C   LIG    1       -3.586  -1.564   3.254  0.00  0.00    +0.016 C 
ATOM      7  C   LIG    1       -4.603  -0.999   2.296  0.00  0.00    -0.044 A 
ATOM      8  C   LIG    1       -5.869  -1.567   2.267  0.00  0.00    +0.053 A 
ATOM      9  C   LIG    1       -6.832  -1.085   1.401  0.00  0.00    +0.158 A 
ATOM     10  C   LIG    1       -6.529  -0.022   0.555  0.00  0.00    +0.158 A 
ATOM     11  C   LIG    1       -5.266   0.543   0.590  0.00  0.00    +0.051 A 
ATOM     12  C   LIG    1       -4.302   0.056   1.461  0.00  0.00    -0.054 A 
ENDROOT
BRANCH   9  13
ATOM     13  O   LIG    1       -8.071  -1.646   1.376  0.00  0.00    -0.503 OA
ATOM     14  H   LIG    1       -8.159  -2.377   0.750  0.00  0.00    +0.292 HD
ENDBRANCH   9  13
BRANCH  10  15
ATOM     15  O   LIG    1       -7.469   0.459  -0.301  0.00  0.00    -0.503 OA
ATOM     16  H   LIG    1       -7.469   0.029  -1.167  0.00  0.00    +0.292 HD
ENDBRANCH  10  15
BRANCH   1  17
ATOM     17  C   LIG    1       -2.513   0.978   0.019  0.00  0.00    +0.024 C 
BRANCH  17  23
ATOM     18  C   LIG    1       -1.242   3.133   0.031  0.00  0.00    +0.007 A 
ATOM     19  C   LIG    1       -0.057   3.846   0.023  0.00  0.00    +0.049 A 
ATOM     20  C   LIG    1        1.155   3.176   0.008  0.00  0.00    +0.158 A 
ATOM     21  C   LIG    1        1.177   1.785   0.000  0.00  0.00    +0.158 A 
ATOM     22  C   LIG    1       -0.013   1.076   0.008  0.00  0.00    +0.052 A 
ATOM     23  C   LIG    1       -1.219   1.751   0.017  0.00  0.00    -0.045 A 
BRANCH  20  24
ATOM     24  O   LIG    1        2.321   3.877   0.000  0.00  0.00    -0.503 OA
ATOM     25  H   LIG    1        2.649   4.084  -0.885  0.00  0.00    +0.292 HD
ENDBRANCH  20  24
BRANCH  21  26
ATOM     26  O   LIG    1        2.365   1.122  -0.014  0.00  0.00    -0.503 OA
ATOM     27  H   LIG    1        2.700   0.935  -0.902  0.00  0.00    +0.292 HD
ENDBRANCH  21  26
ENDBRANCH  17  23
ENDBRANCH   1  17
TORSDOF 6
