REMARK  Name = ZINC00006427
REMARK                            x       y       z     vdW  Elec       q    Type
REMARK                         _______ _______ _______ _____ _____    ______ ____
ROOT
ATOM      1  C   LIG    1        0.565   1.422   0.193  0.00  0.00    +0.138 C 
ATOM      2  N   LIG    1        0.324  -0.020   0.105  0.00  0.00    -0.272 N 
ATOM      3  C   LIG    1       -0.993  -0.453   0.163  0.00  0.00    +0.045 A 
ATOM      4  C   LIG    1       -1.946   0.299  -0.527  0.00  0.00    +0.025 A 
ATOM      5  C   LIG    1       -3.273  -0.067  -0.515  0.00  0.00    +0.022 A 
ATOM      6  C   LIG    1       -3.678  -1.192   0.187  0.00  0.00    +0.042 A 
ATOM      7 CL   LIG    1       -5.352  -1.650   0.203  0.00  0.00    -0.084 Cl
ATOM      8  C   LIG    1       -2.752  -1.945   0.873  0.00  0.00    +0.032 A 
ATOM      9  C   LIG    1       -1.395  -1.585   0.867  0.00  0.00    +0.023 A 
ATOM     10  C   LIG    1       -0.461  -2.439   1.617  0.00  0.00    +0.075 C 
ATOM     11  N   LIG    1        0.715  -2.772   1.217  0.00  0.00    -0.273 NA
ATOM     12  C   LIG    1        1.254  -2.311  -0.062  0.00  0.00    +0.238 C 
ATOM     13  C   LIG    1        1.385  -0.813  -0.030  0.00  0.00    +0.241 C 
ATOM     14  O   LIG    1        2.486  -0.314  -0.124  0.00  0.00    -0.273 OA
ENDROOT
BRANCH  10  15
ATOM     15  C   LIG    1       -0.908  -2.954   2.933  0.00  0.00    +0.001 A 
ATOM     16  C   LIG    1       -0.333  -4.108   3.465  0.00  0.00    +0.010 A 
ATOM     17  C   LIG    1       -0.753  -4.583   4.690  0.00  0.00    +0.001 A 
ATOM     18  C   LIG    1       -1.743  -3.916   5.391  0.00  0.00    +0.000 A 
ATOM     19  C   LIG    1       -2.317  -2.771   4.868  0.00  0.00    +0.001 A 
ATOM     20  C   LIG    1       -1.901  -2.283   3.647  0.00  0.00    +0.010 A 
ENDBRANCH  10  15
TORSDOF 1
