REMARK  Name = ZINC00003275
REMARK                            x       y       z     vdW  Elec       q    Type
REMARK                         _______ _______ _______ _____ _____    ______ ____
ROOT
ATOM      1  C   LIG    1        4.817   0.028  -0.073  0.00  0.00    +0.000 A 
ATOM      2  C   LIG    1        4.833   1.364   0.288  0.00  0.00    +0.000 A 
ATOM      3  C   LIG    1        3.659   2.092   0.299  0.00  0.00    +0.005 A 
ATOM      4  C   LIG    1        2.462   1.474  -0.052  0.00  0.00    -0.027 A 
ATOM      5  C   LIG    1        2.453   0.134  -0.431  0.00  0.00    -0.043 A 
ATOM      6  C   LIG    1        1.162  -0.524  -0.841  0.00  0.00    +0.036 C 
ATOM      7  C   LIG    1        0.002  -0.004   0.002  0.00  0.00    +0.011 C 
ATOM      8  C   LIG    1       -0.018   1.501   0.010  0.00  0.00    +0.028 C 
ATOM      9  C   LIG    1       -1.225   2.175   0.031  0.00  0.00    +0.060 C 
ATOM     10  C   LIG    1       -1.195   3.591   0.048  0.00  0.00    +0.023 C 
ATOM     11  C   LIG    1       -2.378   4.343   0.062  0.00  0.00    +0.006 C 
ATOM     12  C   LIG    1       -2.312   5.704   0.090  0.00  0.00    +0.000 C 
ATOM     13  C   LIG    1       -1.082   6.358   0.103  0.00  0.00    +0.002 C 
ATOM     14  C   LIG    1        0.085   5.658   0.087  0.00  0.00    +0.019 C 
ATOM     15  C   LIG    1        0.057   4.253   0.056  0.00  0.00    +0.059 C 
ATOM     16  N   LIG    1        1.260   3.582   0.034  0.00  0.00    -0.306 NA
ATOM     17  H   LIG    1        2.159   4.076   0.040  0.00  0.00    +0.123 HD
ATOM     18  C   LIG    1        1.181   2.222   0.003  0.00  0.00    +0.089 C 
ATOM     19  C   LIG    1        3.631  -0.586  -0.432  0.00  0.00    +0.004 A 
ENDROOT
BRANCH   9  20
ATOM     20  N   LIG    1       -2.428   1.486   0.032  0.00  0.00    -0.327 NA
ATOM     21  H   LIG    1       -3.267   1.974   0.047  0.00  0.00    +0.118 HD
ATOM     22  H   LIG    1       -2.432   0.516   0.018  0.00  0.00    +0.118 HD
ENDBRANCH   9  20
TORSDOF 1
