REMARK  Name = ZINC00036613
REMARK                            x       y       z     vdW  Elec       q    Type
REMARK                         _______ _______ _______ _____ _____    ______ ____
ROOT
ATOM      1  S   LIG    1        0.063  -4.530  -0.023  0.00  0.00    +0.029 S 
ATOM      2  O   LIG    1       -0.490  -4.937  -1.267  0.00  0.00    -0.164 OA
ATOM      3  O   LIG    1       -0.476  -4.950   1.223  0.00  0.00    -0.164 OA
ENDROOT
BRANCH   1   8
ATOM      4  C   LIG    1       -0.018   1.503   0.010  0.00  0.00    +0.044 C 
ATOM      5  C   LIG    1        0.002  -0.004   0.002  0.00  0.00    -0.050 A 
ATOM      6  C   LIG    1        0.006  -0.689  -1.199  0.00  0.00    +0.005 A 
ATOM      7  C   LIG    1        0.025  -2.071  -1.206  0.00  0.00    +0.027 A 
ATOM      8  C   LIG    1        0.040  -2.768  -0.013  0.00  0.00    +0.094 A 
ATOM      9  C   LIG    1        0.037  -2.084   1.188  0.00  0.00    +0.027 A 
ATOM     10  C   LIG    1        0.023  -0.702   1.195  0.00  0.00    +0.005 A 
ENDBRANCH   1   8
BRANCH   1  11
ATOM     11  C   LIG    1        1.752  -5.029  -0.035  0.00  0.00    +0.138 A 
ATOM     12  C   LIG    1        2.276  -5.721   1.040  0.00  0.00    +0.076 A 
ATOM     13  C   LIG    1        3.606  -6.114   1.031  0.00  0.00    +0.119 A 
ATOM     14  C   LIG    1        4.410  -5.813  -0.059  0.00  0.00    +0.049 A 
ATOM     15  C   LIG    1        3.887  -5.122  -1.134  0.00  0.00    +0.051 A 
ATOM     16  C   LIG    1        2.555  -4.733  -1.126  0.00  0.00    +0.142 A 
BRANCH  13  17
ATOM     17  O   LIG    1        4.122  -6.794   2.089  0.00  0.00    -0.507 OA
ATOM     18  H   LIG    1        4.042  -7.755   2.016  0.00  0.00    +0.292 HD
ENDBRANCH  13  17
BRANCH  16  19
ATOM     19  O   LIG    1        2.038  -4.058  -2.187  0.00  0.00    -0.505 OA
ATOM     20  H   LIG    1        2.118  -3.096  -2.118  0.00  0.00    +0.292 HD
ENDBRANCH  16  19
ENDBRANCH   1  11
TORSDOF 4
