REMARK  Name = ZINC00037168
REMARK                            x       y       z     vdW  Elec       q    Type
REMARK                         _______ _______ _______ _____ _____    ______ ____
ROOT
ATOM      1  C   LIG    1        5.600   3.872   0.288  0.00  0.00    -0.042 A 
ATOM      2  C   LIG    1        5.028   5.132   0.300  0.00  0.00    +0.005 A 
ATOM      3  C   LIG    1        3.659   5.272   0.210  0.00  0.00    +0.013 A 
ATOM      4  C   LIG    1        2.849   4.138   0.107  0.00  0.00    +0.041 A 
ATOM      5  C   LIG    1        3.433   2.870   0.102  0.00  0.00    +0.013 A 
ATOM      6  C   LIG    1        4.804   2.745   0.187  0.00  0.00    +0.005 A 
ENDROOT
BRANCH   4   7
ATOM      7  C   LIG    1        1.383   4.280   0.011  0.00  0.00    +0.279 C 
ATOM      8  N   LIG    1        0.596   3.186   0.036  0.00  0.00    -0.202 N 
ATOM      9  C   LIG    1       -0.766   3.176   0.059  0.00  0.00    +0.137 A 
ATOM     10  C   LIG    1       -1.164   1.885   0.074  0.00  0.00    +0.079 A 
ATOM     11 CL   LIG    1       -2.807   1.323   0.099  0.00  0.00    -0.080 Cl
ATOM     12  C   LIG    1       -0.017   1.078   0.071  0.00  0.00    +0.154 A 
ATOM     13  N   LIG    1        1.034   1.855   0.045  0.00  0.00    -0.171 NA
ATOM     14  O   LIG    1        0.885   5.384  -0.092  0.00  0.00    -0.265 OA
ENDBRANCH   4   7
BRANCH   1  16
ATOM     15  C   LIG    1        7.584   4.345   1.698  0.00  0.00    +0.015 C 
ATOM     16  C   LIG    1        7.097   3.727   0.386  0.00  0.00    -0.013 C 
ATOM     17  C   LIG    1        7.757   4.447  -0.792  0.00  0.00    +0.015 C 
ATOM     18  C   LIG    1        7.469   2.244   0.351  0.00  0.00    +0.015 C 
ENDBRANCH   1  16
TORSDOF 2
