REMARK  Name = ZINC00057719
REMARK                            x       y       z     vdW  Elec       q    Type
REMARK                         _______ _______ _______ _____ _____    ______ ____
ROOT
ATOM      1  C   LIG    1       -0.017   1.381   0.010  0.00  0.00    +0.124 A 
ATOM      2  C   LIG    1        1.174   2.106   0.002  0.00  0.00    +0.046 A 
ATOM      3  C   LIG    1        2.376   1.460  -0.012  0.00  0.00    +0.015 A 
ATOM      4  C   LIG    1        2.414   0.061  -0.021  0.00  0.00    +0.018 A 
ATOM      5  C   LIG    1        3.689  -0.659  -0.037  0.00  0.00    +0.018 A 
ATOM      6  C   LIG    1        3.659  -2.017  -0.044  0.00  0.00    +0.092 A 
ATOM      7  C   LIG    1        2.421  -2.692  -0.035  0.00  0.00    +0.337 A 
ATOM      8  O   LIG    1        1.256  -2.026  -0.020  0.00  0.00    -0.422 OA
ATOM      9  O   LIG    1        2.409  -3.910  -0.042  0.00  0.00    -0.245 OA
ATOM     10  C   LIG    1        1.215  -0.676  -0.013  0.00  0.00    +0.143 A 
ATOM     11  C   LIG    1        0.002  -0.004   0.002  0.00  0.00    +0.092 A 
ENDROOT
BRANCH   1  12
ATOM     12  O   LIG    1       -1.204   2.038   0.019  0.00  0.00    -0.492 OA
BRANCH  12  14
ATOM     13  C   LIG    1       -2.580   4.025   0.036  0.00  0.00    +0.048 C 
ATOM     14  C   LIG    1       -1.156   3.466   0.026  0.00  0.00    +0.225 C 
ENDBRANCH  12  14
ENDBRANCH   1  12
TORSDOF 2
