REMARK  Name = ZINC00033341
REMARK                            x       y       z     vdW  Elec       q    Type
REMARK                         _______ _______ _______ _____ _____    ______ ____
ROOT
ATOM      1  C   LIG    1       -1.318  -1.726  -1.159  0.00  0.00    +0.041 A 
ATOM      2  C   LIG    1       -1.844  -1.319  -2.374  0.00  0.00    +0.124 A 
ATOM      3  C   LIG    1       -1.868  -2.189  -3.462  0.00  0.00    +0.046 A 
ATOM      4  C   LIG    1       -1.383  -3.459  -3.342  0.00  0.00    +0.015 A 
ATOM      5  C   LIG    1       -0.853  -3.889  -2.121  0.00  0.00    +0.018 A 
ATOM      6  C   LIG    1       -0.324  -5.246  -1.963  0.00  0.00    +0.018 A 
ATOM      7  C   LIG    1        0.177  -5.603  -0.752  0.00  0.00    +0.092 A 
ATOM      8  C   LIG    1        0.178  -4.673   0.308  0.00  0.00    +0.337 A 
ATOM      9  O   LIG    1        0.630  -5.006   1.389  0.00  0.00    -0.245 OA
ATOM     10  O   LIG    1       -0.308  -3.431   0.158  0.00  0.00    -0.422 OA
ATOM     11  C   LIG    1       -0.821  -3.013  -1.019  0.00  0.00    +0.146 A 
ENDROOT
BRANCH   2  12
ATOM     12  O   LIG    1       -2.336  -0.061  -2.507  0.00  0.00    -0.506 OA
ATOM     13  H   LIG    1       -1.681   0.589  -2.796  0.00  0.00    +0.292 HD
ENDBRANCH   2  12
BRANCH   1  14
ATOM     14  C   LIG    1       -1.293  -0.775   0.010  0.00  0.00    +0.069 C 
BRANCH  14  16
ATOM     15  C   LIG    1       -0.016   1.306   0.009  0.00  0.00    +0.004 C 
ATOM     16  C   LIG    1        0.002  -0.004   0.002  0.00  0.00    -0.030 C 
ENDBRANCH  14  16
ENDBRANCH   1  14
TORSDOF 3
