REMARK  Name = ZINC00005994
REMARK                            x       y       z     vdW  Elec       q    Type
REMARK                         _______ _______ _______ _____ _____    ______ ____
ROOT
ATOM      1  C   LIG    1        0.006   1.461   0.009  0.00  0.00    +0.149 C 
ATOM      2  N   LIG    1        0.019  -0.004   0.001  0.00  0.00    -0.350 N 
ATOM      3  C   LIG    1        0.019  -0.784  -1.122  0.00  0.00    +0.086 A 
ATOM      4  C   LIG    1        0.033  -2.082  -0.779  0.00  0.00    +0.027 A 
ATOM      5  C   LIG    1        0.043  -2.139   0.685  0.00  0.00    +0.002 A 
ATOM      6  C   LIG    1        0.059  -3.179   1.613  0.00  0.00    +0.033 A 
ATOM      7  C   LIG    1        0.079  -2.896   2.974  0.00  0.00    +0.042 A 
ATOM      8  N   LIG    1        0.099  -3.783   4.059  0.00  0.00    -0.255 N 
ATOM      9  C   LIG    1        0.111  -5.127   3.959  0.00  0.00    +0.311 C 
ATOM     10  N   LIG    1        0.130  -5.885   5.072  0.00  0.00    -0.268 N 
ATOM     11  H   LIG    1        0.204  -5.466   5.944  0.00  0.00    +0.156 HD
ATOM     12  O   LIG    1        0.103  -5.654   2.863  0.00  0.00    -0.252 OA
ATOM     13  C   LIG    1        0.106  -3.034   5.318  0.00  0.00    +0.120 C 
ATOM     14  C   LIG    1        0.088  -1.553   4.911  0.00  0.00    +0.056 C 
ATOM     15  C   LIG    1        0.072  -1.571   3.398  0.00  0.00    -0.022 A 
ATOM     16  C   LIG    1        0.052  -0.535   2.489  0.00  0.00    +0.032 A 
ATOM     17  C   LIG    1        0.039  -0.802   1.125  0.00  0.00    +0.049 A 
ENDROOT
BRANCH  10  18
ATOM     18  C   LIG    1        0.043  -7.279   4.971  0.00  0.00    +0.053 A 
ATOM     19  C   LIG    1        0.637  -7.949   3.905  0.00  0.00    +0.026 A 
ATOM     20  C   LIG    1        0.524  -9.328   3.849  0.00  0.00    +0.021 A 
ATOM     21  C   LIG    1       -0.170  -9.989   4.845  0.00  0.00    +0.111 A 
ATOM     22  N   LIG    1       -0.722  -9.326   5.842  0.00  0.00    -0.261 NA
ATOM     23  C   LIG    1       -0.633  -8.014   5.936  0.00  0.00    +0.134 A 
ENDBRANCH  10  18
TORSDOF 1
