REMARK  Name = ZINC00057060
REMARK                            x       y       z     vdW  Elec       q    Type
REMARK                         _______ _______ _______ _____ _____    ______ ____
ROOT
ATOM      1  C   LIG    1       -1.043   0.325   4.560  0.00  0.00    -0.021 A 
ATOM      2  C   LIG    1       -0.482  -0.086   5.708  0.00  0.00    +0.087 A 
ATOM      3  N   LIG    1       -0.681   0.851   6.686  0.00  0.00    -0.360 N 
ATOM      4  C   LIG    1       -1.395   1.915   6.176  0.00  0.00    +0.047 A 
ATOM      5  C   LIG    1       -1.858   3.105   6.727  0.00  0.00    +0.030 A 
ATOM      6  C   LIG    1       -2.550   4.003   5.944  0.00  0.00    +0.047 A 
ATOM      7  C   LIG    1       -2.804   3.726   4.603  0.00  0.00    +0.121 A 
ATOM      8  C   LIG    1       -2.357   2.547   4.039  0.00  0.00    +0.056 A 
ATOM      9  H   LIG    1       -0.367   0.777   7.601  0.00  0.00    +0.165 HD
ATOM     10  C   LIG    1       -1.647   1.634   4.822  0.00  0.00    +0.006 A 
ENDROOT
BRANCH   7  11
ATOM     11  O   LIG    1       -3.494   4.619   3.846  0.00  0.00    -0.495 OA
ATOM     12  C   LIG    1       -3.928   5.818   4.492  0.00  0.00    +0.277 C 
ENDBRANCH   7  11
BRANCH   1  13
ATOM     13  C   LIG    1       -1.046  -0.417   3.248  0.00  0.00    +0.060 C 
BRANCH  13  14
ATOM     14  C   LIG    1        0.121   0.068   2.386  0.00  0.00    +0.150 C 
BRANCH  14  17
ATOM     15  C   LIG    1       -0.201   1.488   0.019  0.00  0.00    +0.108 C 
ATOM     16  C   LIG    1       -0.085  -0.015   0.008  0.00  0.00    +0.179 C 
ATOM     17  N   LIG    1        0.119  -0.654   1.111  0.00  0.00    -0.255 NA
BRANCH  16  18
ATOM     18  O   LIG    1       -0.195  -0.692  -1.153  0.00  0.00    -0.496 OA
ATOM     19  H   LIG    1       -0.347  -0.129  -1.924  0.00  0.00    +0.293 HD
ENDBRANCH  16  18
ENDBRANCH  14  17
ENDBRANCH  13  14
ENDBRANCH   1  13
TORSDOF 5
