REMARK  Name = ZINC00021814
REMARK                            x       y       z     vdW  Elec       q    Type
REMARK                         _______ _______ _______ _____ _____    ______ ____
ROOT
ATOM      1  C   LIG    1        0.762  -2.018   1.233  0.00  0.00    +0.055 C 
ATOM      2  C   LIG    1       -0.314  -2.717   1.742  0.00  0.00    +0.022 C 
ATOM      3  C   LIG    1       -0.290  -4.105   1.732  0.00  0.00    -0.010 C 
ATOM      4  C   LIG    1       -1.447  -4.899   2.280  0.00  0.00    +0.007 C 
ATOM      5  C   LIG    1        0.821  -4.742   1.208  0.00  0.00    +0.037 C 
ATOM      6  C   LIG    1        1.870  -3.975   0.712  0.00  0.00    +0.119 C 
ATOM      7  N   LIG    1        1.807  -2.652   0.735  0.00  0.00    -0.299 NA
ATOM      8  H   LIG    1        2.548  -2.137   0.380  0.00  0.00    +0.124 HD
ENDROOT
BRANCH   6   9
ATOM      9  N   LIG    1        2.992  -4.602   0.183  0.00  0.00    -0.316 NA
ATOM     10  H   LIG    1        3.726  -4.071  -0.164  0.00  0.00    +0.120 HD
ATOM     11  H   LIG    1        3.041  -5.570   0.162  0.00  0.00    +0.120 HD
ENDBRANCH   6   9
BRANCH   1  12
ATOM     12  C   LIG    1        0.742  -0.511   1.242  0.00  0.00    +0.018 C 
BRANCH  12  14
ATOM     13  C   LIG    1       -0.019   1.526   0.010  0.00  0.00    +0.004 C 
ATOM     14  C   LIG    1        0.002  -0.004   0.002  0.00  0.00    -0.002 C 
ENDBRANCH  12  14
ENDBRANCH   1  12
TORSDOF 3
