REMARK  Name = ZINC00001732
REMARK                            x       y       z     vdW  Elec       q    Type
REMARK                         _______ _______ _______ _____ _____    ______ ____
ROOT
ATOM      1  C   LIG    1       -0.177   1.665   0.332  0.00  0.00    +0.086 C 
ATOM      2  C   LIG    1       -0.092   0.167   0.196  0.00  0.00    +0.111 A 
ATOM      3  N   LIG    1       -0.146  -0.504  -0.925  0.00  0.00    -0.240 NA
ATOM      4  C   LIG    1       -0.016  -1.816  -0.666  0.00  0.00    +0.136 A 
ATOM      5  C   LIG    1        0.123  -1.963   0.661  0.00  0.00    +0.062 A 
ATOM      6  C   LIG    1        0.328  -3.246   1.425  0.00  0.00    +0.168 C 
ATOM      7  N   LIG    1        1.611  -3.134   2.142  0.00  0.00    -0.378 N 
ATOM      8  H   LIG    1        2.321  -3.763   1.943  0.00  0.00    +0.160 HD
ATOM      9  C   LIG    1        1.812  -2.222   3.030  0.00  0.00    +0.055 C 
ATOM     10  C   LIG    1        0.892  -1.166   3.465  0.00  0.00    +0.024 A 
ATOM     11  C   LIG    1        0.845  -0.858   4.834  0.00  0.00    +0.032 A 
ATOM     12  C   LIG    1        0.054   0.171   5.293  0.00  0.00    +0.042 A 
ATOM     13 CL   LIG    1        0.010   0.538   6.989  0.00  0.00    -0.084 Cl
ATOM     14  C   LIG    1       -0.707   0.914   4.405  0.00  0.00    +0.022 A 
ATOM     15  C   LIG    1       -0.685   0.614   3.059  0.00  0.00    +0.028 A 
ATOM     16  C   LIG    1        0.099  -0.431   2.582  0.00  0.00    +0.057 A 
ATOM     17  N   LIG    1        0.059  -0.716   1.215  0.00  0.00    -0.298 N 
ENDROOT
BRANCH   9  18
ATOM     18  C   LIG    1        3.136  -2.244   3.692  0.00  0.00    +0.034 A 
ATOM     19  C   LIG    1        3.496  -3.318   4.505  0.00  0.00    +0.013 A 
ATOM     20  C   LIG    1        4.731  -3.333   5.120  0.00  0.00    +0.001 A 
ATOM     21  C   LIG    1        5.614  -2.283   4.932  0.00  0.00    +0.003 A 
ATOM     22  C   LIG    1        5.266  -1.214   4.128  0.00  0.00    +0.039 A 
ATOM     23  C   LIG    1        4.034  -1.190   3.500  0.00  0.00    +0.132 A 
ATOM     24  F   LIG    1        3.696  -0.148   2.710  0.00  0.00    -0.205 F 
ENDBRANCH   9  18
TORSDOF 1
