REMARK  Name = ZINC00005824
REMARK                            x       y       z     vdW  Elec       q    Type
REMARK                         _______ _______ _______ _____ _____    ______ ____
ROOT
ATOM      1  C   LIG    1       -1.333   2.112   0.020  0.00  0.00    +0.075 C 
ENDROOT
BRANCH   1   4
ATOM      2  C   LIG    1        1.212  -0.683  -0.014  0.00  0.00    +0.138 A 
ATOM      3  C   LIG    1        0.002  -0.004   0.002  0.00  0.00    +0.051 A 
ATOM      4  C   LIG    1       -0.017   1.378   0.010  0.00  0.00    -0.036 A 
ATOM      5  C   LIG    1        1.169   2.087   0.002  0.00  0.00    +0.051 A 
ATOM      6  C   LIG    1        2.382   1.414  -0.013  0.00  0.00    +0.138 A 
ATOM      7  C   LIG    1        2.404   0.027  -0.021  0.00  0.00    +0.101 A 
ATOM      8 BR   LIG    1        4.055  -0.894  -0.042  0.00  0.00    -0.043 Br
BRANCH   2  10
ATOM      9  C   LIG    1       -0.035  -2.707  -0.014  0.00  0.00    +0.277 C 
ATOM     10  O   LIG    1        1.230  -2.042  -0.022  0.00  0.00    -0.494 OA
ENDBRANCH   2  10
BRANCH   6  11
ATOM     11  O   LIG    1        3.548   2.112  -0.020  0.00  0.00    -0.494 OA
ATOM     12  C   LIG    1        3.450   3.538  -0.011  0.00  0.00    +0.277 C 
ENDBRANCH   6  11
ENDBRANCH   1   4
BRANCH   1  13
ATOM     13  C   LIG    1       -1.765   2.349   1.444  0.00  0.00    +0.015 A 
ATOM     14  C   LIG    1       -2.629   1.475   2.075  0.00  0.00    +0.121 A 
ATOM     15  N   LIG    1       -2.989   1.711   3.328  0.00  0.00    -0.223 NA
ATOM     16  C   LIG    1       -2.533   2.771   3.979  0.00  0.00    +0.214 A 
ATOM     17  N   LIG    1       -1.703   3.632   3.411  0.00  0.00    -0.200 NA
ATOM     18  C   LIG    1       -1.296   3.454   2.158  0.00  0.00    +0.125 A 
BRANCH  16  19
ATOM     19  N   LIG    1       -2.933   2.982   5.287  0.00  0.00    -0.327 N 
ATOM     20  H   LIG    1       -2.606   3.754   5.776  0.00  0.00    +0.145 HD
ATOM     21  H   LIG    1       -3.540   2.359   5.715  0.00  0.00    +0.145 HD
ENDBRANCH  16  19
BRANCH  18  22
ATOM     22  N   LIG    1       -0.424   4.354   1.567  0.00  0.00    -0.343 N 
ATOM     23  H   LIG    1       -0.103   5.119   2.070  0.00  0.00    +0.144 HD
ATOM     24  H   LIG    1       -0.134   4.219   0.651  0.00  0.00    +0.144 HD
ENDBRANCH  18  22
ENDBRANCH   1  13
TORSDOF 6
