REMARK  Name = ZINC00044904
REMARK                            x       y       z     vdW  Elec       q    Type
REMARK                         _______ _______ _______ _____ _____    ______ ____
ROOT
ATOM      1  C   LIG    1        1.209  -2.191  -0.035  0.00  0.00    +0.072 A 
ATOM      2  C   LIG    1       -0.021  -2.860  -0.135  0.00  0.00    +0.044 A 
ATOM      3  C   LIG    1       -0.043  -4.247  -0.130  0.00  0.00    +0.070 A 
ATOM      4  C   LIG    1        1.241  -4.940  -0.019  0.00  0.00    +0.014 A 
ATOM      5  C   LIG    1        1.320  -6.337  -0.007  0.00  0.00    +0.011 A 
ATOM      6  C   LIG    1        2.538  -6.941   0.098  0.00  0.00    +0.001 A 
ATOM      7  C   LIG    1        3.704  -6.186   0.192  0.00  0.00    +0.002 A 
ATOM      8  C   LIG    1        3.663  -4.825   0.182  0.00  0.00    +0.028 A 
ATOM      9  C   LIG    1        2.425  -4.165   0.076  0.00  0.00    +0.072 A 
ATOM     10  N   LIG    1        2.354  -2.834   0.058  0.00  0.00    -0.247 NA
ENDROOT
BRANCH   1  16
ATOM     11  C   LIG    1        2.392   4.146  -0.068  0.00  0.00    +0.001 A 
ATOM     12  C   LIG    1        3.603   3.457  -0.070  0.00  0.00    +0.001 A 
ATOM     13  C   LIG    1        3.635   2.096  -0.064  0.00  0.00    +0.008 A 
ATOM     14  C   LIG    1        2.429   1.372  -0.055  0.00  0.00    -0.017 A 
ATOM     15  C   LIG    1        2.425  -0.031  -0.049  0.00  0.00    +0.018 A 
ATOM     16  C   LIG    1        1.220  -0.708  -0.041  0.00  0.00    +0.001 A 
ATOM     17  C   LIG    1        0.005  -0.003  -0.040  0.00  0.00    +0.010 A 
ATOM     18  C   LIG    1       -0.013   1.355  -0.045  0.00  0.00    +0.009 A 
ATOM     19  C   LIG    1        1.197   2.073  -0.053  0.00  0.00    -0.018 A 
ATOM     20  C   LIG    1        1.205   3.478  -0.060  0.00  0.00    +0.008 A 
ENDBRANCH   1  16
BRANCH   3  21
ATOM     21  C   LIG    1       -1.314  -4.996  -0.233  0.00  0.00    +0.338 C 
ATOM     22  O   LIG    1       -1.299  -6.206  -0.330  0.00  0.00    -0.245 OA
BRANCH  21  23
ATOM     23  O   LIG    1       -2.488  -4.335  -0.219  0.00  0.00    -0.477 OA
ATOM     24  H   LIG    1       -2.499  -3.401  -0.144  0.00  0.00    +0.295 HD
ENDBRANCH  21  23
ENDBRANCH   3  21
TORSDOF 3
