REMARK  Name = ZINC00039092
REMARK                            x       y       z     vdW  Elec       q    Type
REMARK                         _______ _______ _______ _____ _____    ______ ____
ROOT
ATOM      1  C   LIG    1        2.507  -2.501  -4.386  0.00  0.00    +0.211 C 
ATOM      2  C   LIG    1        4.017  -2.606  -4.123  0.00  0.00    +0.129 C 
ATOM      3  C   LIG    1        4.643  -3.249  -5.348  0.00  0.00    +0.174 C 
ATOM      4  C   LIG    1        4.123  -2.822  -6.652  0.00  0.00    +0.101 A 
ATOM      5  C   LIG    1        4.797  -3.158  -7.836  0.00  0.00    +0.134 A 
ATOM      6  C   LIG    1        4.279  -2.753  -9.053  0.00  0.00    +0.091 A 
ATOM      7  C   LIG    1        3.101  -2.018  -9.098  0.00  0.00    +0.124 A 
ATOM      8  C   LIG    1        2.433  -1.677  -7.929  0.00  0.00    +0.092 A 
ATOM      9  C   LIG    1        2.935  -2.070  -6.701  0.00  0.00    +0.139 A 
ATOM     10  O   LIG    1        5.528  -4.074  -5.253  0.00  0.00    -0.292 OA
ATOM     11  O   LIG    1        2.285  -1.725  -5.564  0.00  0.00    -0.483 OA
ENDROOT
BRANCH   1  15
ATOM     12  C   LIG    1        0.606  -0.608  -1.056  0.00  0.00    +0.161 A 
ATOM     13  C   LIG    1        1.173   0.159  -2.062  0.00  0.00    +0.050 A 
ATOM     14  C   LIG    1        1.787  -0.456  -3.137  0.00  0.00    +0.011 A 
ATOM     15  C   LIG    1        1.837  -1.836  -3.212  0.00  0.00    -0.003 A 
ATOM     16  C   LIG    1        1.273  -2.606  -2.212  0.00  0.00    +0.056 A 
ATOM     17  C   LIG    1        0.662  -1.996  -1.129  0.00  0.00    +0.159 A 
BRANCH  12  19
ATOM     18  C   LIG    1       -0.017   1.425   0.010  0.00  0.00    +0.277 C 
ATOM     19  O   LIG    1        0.002  -0.004   0.002  0.00  0.00    -0.491 OA
ENDBRANCH  12  19
BRANCH  17  20
ATOM     20  O   LIG    1        0.112  -2.753  -0.142  0.00  0.00    -0.503 OA
ATOM     21  H   LIG    1       -0.816  -2.979  -0.291  0.00  0.00    +0.292 HD
ENDBRANCH  17  20
ENDBRANCH   1  15
BRANCH   5  22
ATOM     22  O   LIG    1        5.948  -3.874  -7.788  0.00  0.00    -0.506 OA
ATOM     23  H   LIG    1        5.817  -4.832  -7.825  0.00  0.00    +0.292 HD
ENDBRANCH   5  22
BRANCH   7  24
ATOM     24  O   LIG    1        2.598  -1.627 -10.296  0.00  0.00    -0.507 OA
ATOM     25  H   LIG    1        1.986  -2.263 -10.692  0.00  0.00    +0.292 HD
ENDBRANCH   7  24
TORSDOF 5
