REMARK  Name = ZINC00004090
REMARK                            x       y       z     vdW  Elec       q    Type
REMARK                         _______ _______ _______ _____ _____    ______ ____
ROOT
ATOM      1  N   LIG    1       -0.762   1.985  -1.172  0.00  0.00    +0.384 N 
ATOM      2  H   LIG    1       -0.347   1.565  -2.013  0.00  0.00    -0.081 HD
ATOM      3  C   LIG    1       -0.019   1.528   0.010  0.00  0.00    -0.023 C 
ATOM      4  C   LIG    1        1.426   2.022  -0.001  0.00  0.00    +0.214 C 
ATOM      5  O   LIG    1        2.045   1.610   1.222  0.00  0.00    -0.493 OA
ATOM      6  C   LIG    1        1.859   0.335   1.653  0.00  0.00    +0.124 A 
ATOM      7  C   LIG    1        0.883  -0.492   1.116  0.00  0.00    -0.001 A 
ATOM      8  C   LIG    1        0.718  -1.775   1.603  0.00  0.00    +0.052 A 
ATOM      9  C   LIG    1        1.527  -2.244   2.626  0.00  0.00    +0.117 A 
ATOM     10  C   LIG    1        2.507  -1.422   3.161  0.00  0.00    +0.049 A 
ATOM     11  C   LIG    1        2.672  -0.141   2.677  0.00  0.00    +0.049 A 
ATOM     12  C   LIG    1        0.002  -0.004   0.002  0.00  0.00    +0.012 C 
ATOM     13  C   LIG    1       -1.431  -0.513   0.141  0.00  0.00    +0.005 C 
ATOM     14  C   LIG    1       -2.250   0.033  -1.036  0.00  0.00    -0.018 C 
ATOM     15  C   LIG    1       -2.172   1.559  -1.066  0.00  0.00    -0.078 C 
ENDROOT
BRANCH   9  16
ATOM     16  O   LIG    1        1.360  -3.506   3.104  0.00  0.00    -0.507 OA
ATOM     17  H   LIG    1        1.890  -4.173   2.646  0.00  0.00    +0.292 HD
ENDBRANCH   9  16
BRANCH   1  18
ATOM     18  C   LIG    1       -0.683   3.459  -1.281  0.00  0.00    -0.079 C 
BRANCH  18  20
ATOM     19  C   LIG    1       -1.171   5.411  -2.763  0.00  0.00    +0.002 C 
ATOM     20  C   LIG    1       -1.262   3.889  -2.631  0.00  0.00    -0.022 C 
ENDBRANCH  18  20
ENDBRANCH   1  18
TORSDOF 3
