REMARK  Name = ZINC00009350
REMARK                            x       y       z     vdW  Elec       q    Type
REMARK                         _______ _______ _______ _____ _____    ______ ____
ROOT
ATOM      1  C   LIG    1       -0.018   1.503   0.010  0.00  0.00    +0.064 C 
ATOM      2  C   LIG    1        0.002  -0.004   0.002  0.00  0.00    +0.021 A 
ATOM      3  C   LIG    1        0.007  -0.779  -1.113  0.00  0.00    +0.006 A 
ATOM      4  C   LIG    1        0.029  -2.179  -0.653  0.00  0.00    +0.009 A 
ATOM      5  C   LIG    1        0.042  -3.411  -1.305  0.00  0.00    +0.030 A 
ATOM      6  C   LIG    1        0.061  -4.573  -0.566  0.00  0.00    +0.042 A 
ATOM      7 CL   LIG    1        0.077  -6.110  -1.373  0.00  0.00    -0.084 Cl
ATOM      8  C   LIG    1        0.066  -4.521   0.822  0.00  0.00    +0.022 A 
ATOM      9  C   LIG    1        0.052  -3.311   1.479  0.00  0.00    +0.027 A 
ATOM     10  C   LIG    1        0.034  -2.126   0.751  0.00  0.00    +0.047 A 
ATOM     11  N   LIG    1        0.024  -0.795   1.113  0.00  0.00    -0.358 N 
ATOM     12  H   LIG    1        0.029  -0.469   2.027  0.00  0.00    +0.166 HD
ENDROOT
BRANCH   3  13
ATOM     13  C   LIG    1       -0.006  -0.311  -2.513  0.00  0.00    -0.045 C 
ATOM     14  C   LIG    1        1.142  -0.100  -3.122  0.00  0.00    -0.042 C 
ATOM     15  C   LIG    1        1.236   0.382  -4.541  0.00  0.00    -0.055 C 
ATOM     16  N   LIG    1       -0.034   0.160  -5.242  0.00  0.00    +0.382 N 
ATOM     17  H   LIG    1       -0.192  -0.831  -5.349  0.00  0.00    -0.085 HD
ATOM     18  H   LIG    1        0.001   0.598  -6.151  0.00  0.00    -0.085 HD
ATOM     19  C   LIG    1       -1.126   0.751  -4.452  0.00  0.00    -0.078 C 
ATOM     20  C   LIG    1       -1.330  -0.099  -3.194  0.00  0.00    +0.016 C 
ENDBRANCH   3  13
TORSDOF 1
