REMARK  Name = ZINC00039101
REMARK                            x       y       z     vdW  Elec       q    Type
REMARK                         _______ _______ _______ _____ _____    ______ ____
ROOT
ATOM      1  C   LIG    1       -1.740  -1.828   0.009  0.00  0.00    +0.149 C 
ATOM      2  N   LIG    1       -1.308  -0.428   0.012  0.00  0.00    -0.349 N 
ATOM      3  C   LIG    1       -2.147   0.653   0.026  0.00  0.00    +0.090 A 
ATOM      4  C   LIG    1       -1.430   1.788   0.031  0.00  0.00    -0.023 A 
ATOM      5  C   LIG    1       -0.017   1.403   0.010  0.00  0.00    +0.003 A 
ATOM      6  C   LIG    1        1.183   2.116   0.002  0.00  0.00    +0.010 A 
ATOM      7  C   LIG    1        2.372   1.442  -0.013  0.00  0.00    +0.001 A 
ATOM      8  C   LIG    1        2.396   0.055  -0.020  0.00  0.00    +0.002 A 
ATOM      9  C   LIG    1        1.224  -0.669  -0.013  0.00  0.00    +0.026 A 
ATOM     10  C   LIG    1        0.002  -0.004   0.002  0.00  0.00    +0.049 A 
ENDROOT
BRANCH   4  11
ATOM     11  C   LIG    1       -1.976   3.193   0.046  0.00  0.00    +0.032 C 
BRANCH  11  12
ATOM     12  CA  LIG    1       -2.063   3.721  -1.387  0.00  0.00    +0.040 C 
BRANCH  12  13
ATOM     13  N   LIG    1       -0.717   3.845  -1.973  0.00  0.00    +0.387 N 
ATOM     14  H1  LIG    1       -0.795   4.232  -2.921  0.00  0.00    -0.089 HD
ATOM     15  H2  LIG    1       -0.272   2.930  -2.023  0.00  0.00    -0.089 HD
ATOM     16  H3  LIG    1       -0.145   4.469  -1.405  0.00  0.00    -0.089 HD
ENDBRANCH  12  13
BRANCH  12  17
ATOM     17  C   LIG    1       -2.723   5.077  -1.383  0.00  0.00    +0.290 C 
ATOM     18  O   LIG    1       -2.048   6.077  -1.454  0.00  0.00    -0.253 OA
BRANCH  17  19
ATOM     19  OXT LIG    1       -4.059   5.173  -1.302  0.00  0.00    -0.482 OA
ATOM     20  HXT LIG    1       -4.582   4.397  -1.248  0.00  0.00    +0.295 HD
ENDBRANCH  17  19
ENDBRANCH  12  17
ENDBRANCH  11  12
ENDBRANCH   4  11
TORSDOF 5
