REMARK  Name = ZINC00056653
REMARK                            x       y       z     vdW  Elec       q    Type
REMARK                         _______ _______ _______ _____ _____    ______ ____
ROOT
ATOM      1  C   LIG    1        0.700  -0.626   3.637  0.00  0.00    +0.128 C 
ENDROOT
BRANCH   1   2
ATOM      2  C   LIG    1       -0.131  -0.353   4.865  0.00  0.00    -0.017 A 
ATOM      3  C   LIG    1       -0.141   0.912   5.423  0.00  0.00    +0.010 A 
ATOM      4  C   LIG    1       -0.902   1.167   6.549  0.00  0.00    +0.049 A 
ATOM      5  C   LIG    1       -1.655   0.154   7.120  0.00  0.00    +0.158 A 
ATOM      6  C   LIG    1       -1.645  -1.119   6.558  0.00  0.00    +0.159 A 
ATOM      7  C   LIG    1       -0.884  -1.366   5.426  0.00  0.00    +0.055 A 
BRANCH   5   8
ATOM      8  O   LIG    1       -2.404   0.404   8.228  0.00  0.00    -0.503 OA
ATOM      9  H   LIG    1       -3.305   0.697   8.036  0.00  0.00    +0.292 HD
ENDBRANCH   5   8
BRANCH   6  10
ATOM     10  O   LIG    1       -2.383  -2.116   7.115  0.00  0.00    -0.503 OA
ATOM     11  H   LIG    1       -3.282  -2.183   6.763  0.00  0.00    +0.292 HD
ENDBRANCH   6  10
ENDBRANCH   1   2
BRANCH   1  12
ATOM     12  O   LIG    1        1.955   0.049   3.752  0.00  0.00    -0.389 OA
ATOM     13  H   LIG    1        1.879   1.009   3.837  0.00  0.00    +0.210 HD
ENDBRANCH   1  12
BRANCH   1  14
ATOM     14  C   LIG    1       -0.040  -0.119   2.398  0.00  0.00    -0.046 C 
BRANCH  14  15
ATOM     15  N   LIG    1        0.713  -0.491   1.192  0.00  0.00    +0.382 N 
ATOM     16  H   LIG    1        1.632  -0.076   1.228  0.00  0.00    -0.085 HD
ATOM     17  H   LIG    1        0.798  -1.495   1.145  0.00  0.00    -0.085 HD
BRANCH  15  19
ATOM     18  C   LIG    1       -0.019   1.526   0.010  0.00  0.00    -0.014 C 
ATOM     19  C   LIG    1        0.002  -0.004   0.002  0.00  0.00    -0.078 C 
ATOM     20  C   LIG    1        0.718  -0.497  -1.257  0.00  0.00    -0.014 C 
ENDBRANCH  15  19
ENDBRANCH  14  15
ENDBRANCH   1  14
TORSDOF 7
