REMARK  Name = ZINC00075022
REMARK                            x       y       z     vdW  Elec       q    Type
REMARK                         _______ _______ _______ _____ _____    ______ ____
ROOT
ATOM      1  C   LIG    1        1.325  -4.106  -2.289  0.00  0.00    +0.105 C 
ATOM      2  C   LIG    1        2.675  -4.566  -1.779  0.00  0.00    +0.029 C 
ATOM      3  C   LIG    1        2.565  -4.775  -0.242  0.00  0.00    +0.033 C 
ATOM      4  C   LIG    1        2.207  -6.237  -0.091  0.00  0.00    -0.030 C 
ATOM      5  C   LIG    1        2.474  -6.900  -1.188  0.00  0.00    -0.023 C 
ATOM      6  C   LIG    1        3.062  -5.969  -2.244  0.00  0.00    +0.049 C 
ATOM      7  C   LIG    1        2.617  -6.306  -3.627  0.00  0.00    -0.019 A 
ATOM      8  C   LIG    1        3.177  -7.388  -4.259  0.00  0.00    +0.021 A 
ATOM      9  C   LIG    1        2.792  -7.725  -5.559  0.00  0.00    +0.059 A 
ATOM     10  C   LIG    1        1.830  -6.954  -6.223  0.00  0.00    +0.017 A 
ATOM     11  C   LIG    1        1.271  -5.883  -5.590  0.00  0.00    +0.024 A 
ATOM     12  C   LIG    1        1.652  -5.554  -4.288  0.00  0.00    +0.031 A 
ATOM     13  N   LIG    1        1.040  -4.502  -3.650  0.00  0.00    -0.336 N 
ATOM     14  H   LIG    1        0.392  -3.985  -4.152  0.00  0.00    +0.147 HD
ENDROOT
BRANCH   1  19
ATOM     15  C   LIG    1        0.606  -0.607  -1.056  0.00  0.00    +0.120 A 
ATOM     16  C   LIG    1        1.173   0.161  -2.063  0.00  0.00    +0.045 A 
ATOM     17  C   LIG    1        1.786  -0.455  -3.136  0.00  0.00    +0.004 A 
ATOM     18  C   LIG    1        1.836  -1.835  -3.208  0.00  0.00    +0.006 A 
ATOM     19  C   LIG    1        1.271  -2.602  -2.207  0.00  0.00    -0.024 A 
ATOM     20  C   LIG    1        0.661  -1.991  -1.128  0.00  0.00    +0.051 A 
BRANCH  15  22
ATOM     21  C   LIG    1       -0.017   1.425   0.010  0.00  0.00    +0.277 C 
ATOM     22  O   LIG    1        0.002  -0.004   0.002  0.00  0.00    -0.495 OA
ENDBRANCH  15  22
ENDBRANCH   1  19
BRANCH   9  23
ATOM     23  C   LIG    1        3.397  -8.887  -6.229  0.00  0.00    +0.337 C 
ATOM     24  O   LIG    1        4.237  -9.560  -5.648  0.00  0.00    -0.245 OA
BRANCH  23  25
ATOM     25  O   LIG    1        3.058  -9.181  -7.368  0.00  0.00    -0.477 OA
ATOM     26  H   LIG    1        2.414  -8.666  -7.813  0.00  0.00    +0.295 HD
ENDBRANCH  23  25
ENDBRANCH   9  23
TORSDOF 4
