REMARK  Name = ZINC00002698
REMARK                            x       y       z     vdW  Elec       q    Type
REMARK                         _______ _______ _______ _____ _____    ______ ____
ROOT
ATOM      1  N   LIG    1       -2.718   4.385   1.432  0.00  0.00    -0.322 N 
ATOM      2  C   LIG    1       -3.695   3.766   2.178  0.00  0.00    +0.106 A 
ATOM      3  C   LIG    1       -3.694   4.350   3.388  0.00  0.00    +0.102 A 
ATOM      4  N   LIG    1       -2.747   5.302   3.396  0.00  0.00    -0.341 N 
ATOM      5  H   LIG    1       -2.526   5.913   4.191  0.00  0.00    +0.167 HD
ATOM      6  C   LIG    1       -2.148   5.330   2.229  0.00  0.00    +0.144 A 
ENDROOT
BRANCH   6   7
ATOM      7  S   LIG    1       -0.834   6.410   1.769  0.00  0.00    -0.107 S 
ATOM      8  H   LIG    1       -1.576   7.495   1.257  0.00  0.00    +0.110 HD
ENDBRANCH   6   7
BRANCH   1   9
ATOM      9  C   LIG    1       -2.355   4.080   0.046  0.00  0.00    +0.166 C 
BRANCH   9  12
ATOM     10  C   LIG    1       -0.013   1.076   0.008  0.00  0.00    +0.008 A 
ATOM     11  C   LIG    1       -1.213   1.761   0.017  0.00  0.00    +0.013 A 
ATOM     12  C   LIG    1       -1.196   3.116   0.030  0.00  0.00    +0.009 A 
ATOM     13  S   LIG    1        0.555   3.464   0.015  0.00  0.00    -0.100 S 
ATOM     14  C   LIG    1        1.146   1.780   0.001  0.00  0.00    +0.045 A 
ENDBRANCH   9  12
ENDBRANCH   1   9
TORSDOF 3
