REMARK  Name = ZINC00008926
REMARK                            x       y       z     vdW  Elec       q    Type
REMARK                         _______ _______ _______ _____ _____    ______ ____
ROOT
ATOM      1  C   LIG    1       -0.581   5.940   3.554  0.00  0.00    +0.012 C 
ATOM      2  C   LIG    1       -2.022   6.431   3.705  0.00  0.00    -0.021 C 
ATOM      3  C   LIG    1       -2.144   7.286   4.968  0.00  0.00    +0.012 C 
ATOM      4  C   LIG    1       -2.413   7.261   2.482  0.00  0.00    +0.081 C 
ATOM      5  C   LIG    1       -2.328   6.407   1.238  0.00  0.00    +0.115 C 
ATOM      6  C   LIG    1       -2.574   5.086   1.296  0.00  0.00    +0.046 C 
ATOM      7  C   LIG    1       -2.899   4.454   2.511  0.00  0.00    +0.164 C 
ATOM      8  O   LIG    1       -3.127   3.260   2.521  0.00  0.00    -0.292 OA
ATOM      9  C   LIG    1       -2.508   4.237   0.049  0.00  0.00    +0.101 C 
ATOM     10  C   LIG    1       -2.591   5.108  -1.173  0.00  0.00    +0.098 C 
ATOM     11  C   LIG    1       -2.338   6.436  -1.087  0.00  0.00    +0.198 C 
ATOM     12  O   LIG    1       -2.003   7.010   0.079  0.00  0.00    -0.445 OA
ATOM     13  C   LIG    1       -2.968   5.229   3.799  0.00  0.00    +0.086 C 
ENDROOT
BRANCH   9  14
ATOM     14  C   LIG    1       -1.207   3.475   0.032  0.00  0.00    -0.034 A 
ATOM     15  C   LIG    1       -0.002   4.175   0.024  0.00  0.00    +0.005 A 
ATOM     16  C   LIG    1        1.190   3.518   0.009  0.00  0.00    +0.009 A 
ATOM     17  C   LIG    1        1.209   2.113   0.002  0.00  0.00    -0.018 A 
ATOM     18  C   LIG    1        2.419   1.399  -0.013  0.00  0.00    +0.008 A 
ATOM     19  C   LIG    1        2.399   0.038  -0.021  0.00  0.00    +0.001 A 
ATOM     20  C   LIG    1        1.194  -0.661  -0.013  0.00  0.00    +0.001 A 
ATOM     21  C   LIG    1        0.002  -0.004   0.002  0.00  0.00    +0.008 A 
ATOM     22  C   LIG    1       -0.017   1.401   0.010  0.00  0.00    -0.018 A 
ATOM     23  C   LIG    1       -1.228   2.115   0.019  0.00  0.00    +0.013 A 
ENDBRANCH   9  14
BRANCH  11  24
ATOM     24  N   LIG    1       -2.426   7.212  -2.217  0.00  0.00    -0.328 N 
ATOM     25  H   LIG    1       -2.246   8.164  -2.167  0.00  0.00    +0.145 HD
ATOM     26  H   LIG    1       -2.667   6.808  -3.065  0.00  0.00    +0.145 HD
ENDBRANCH  11  24
BRANCH  10  27
ATOM     27  C   LIG    1       -2.942   4.530  -2.436  0.00  0.00    +0.101 C 
ATOM     28  N   LIG    1       -3.219   4.072  -3.438  0.00  0.00    -0.191 NA
ENDBRANCH  10  27
TORSDOF 3
