REMARK  Name = ZINC00024132
REMARK                            x       y       z     vdW  Elec       q    Type
REMARK                         _______ _______ _______ _____ _____    ______ ____
ROOT
ATOM      1  C   LIG    1       -0.176   1.472  -0.057  0.00  0.00    +0.052 C 
ATOM      2  C   LIG    1       -0.782   2.000   1.218  0.00  0.00    -0.009 A 
ATOM      3  C   LIG    1       -0.167   2.273   2.394  0.00  0.00    -0.029 A 
ATOM      4  C   LIG    1       -0.959   2.765   3.462  0.00  0.00    -0.003 A 
ATOM      5  C   LIG    1       -0.309   3.075   4.782  0.00  0.00    +0.004 C 
ATOM      6  C   LIG    1        1.020   3.235   4.792  0.00  0.00    -0.016 C 
ATOM      7  C   LIG    1        1.851   3.139   3.548  0.00  0.00    +0.032 C 
ATOM      8  C   LIG    1       -2.297   2.937   3.242  0.00  0.00    -0.005 A 
ATOM      9  C   LIG    1       -3.352   3.441   4.194  0.00  0.00    +0.052 C 
ATOM     10  C   LIG    1        1.333   2.070   2.591  0.00  0.00    +0.040 C 
ATOM     11  S   LIG    1       -2.481   2.424   1.546  0.00  0.00    -0.098 S 
ENDROOT
BRANCH   5  12
ATOM     12  C   LIG    1       -1.109   3.199   6.024  0.00  0.00    +0.064 A 
ATOM     13  N   LIG    1       -1.784   2.208   6.639  0.00  0.00    -0.346 N 
ATOM     14  H   LIG    1       -1.829   1.233   6.319  0.00  0.00    +0.167 HD
ATOM     15  C   LIG    1       -2.369   2.680   7.702  0.00  0.00    +0.171 A 
ATOM     16  N   LIG    1       -2.096   4.000   7.803  0.00  0.00    -0.352 N 
ATOM     17  H   LIG    1       -2.418   4.617   8.521  0.00  0.00    +0.166 HD
ATOM     18  C   LIG    1       -1.300   4.336   6.745  0.00  0.00    +0.110 A 
ENDBRANCH   5  12
TORSDOF 1
