REMARK  Name = ZINC00057844
REMARK                            x       y       z     vdW  Elec       q    Type
REMARK                         _______ _______ _______ _____ _____    ______ ____
ROOT
ATOM      1  C   LIG    1       -1.209   3.295   0.032  0.00  0.00    +0.140 A 
ATOM      2  C   LIG    1       -1.232   1.934   0.018  0.00  0.00    +0.098 A 
ATOM      3  C   LIG    1       -0.015   1.216   0.009  0.00  0.00    +0.193 A 
ATOM      4  C   LIG    1        1.236   2.000   0.001  0.00  0.00    +0.068 A 
ATOM      5  C   LIG    1        2.482   1.374  -0.015  0.00  0.00    +0.019 A 
ATOM      6  C   LIG    1        3.622   2.129  -0.022  0.00  0.00    +0.050 A 
ATOM      7  C   LIG    1        3.546   3.519  -0.014  0.00  0.00    +0.162 A 
ATOM      8  C   LIG    1        2.314   4.157   0.002  0.00  0.00    +0.202 A 
ATOM      9  C   LIG    1        1.146   3.401   0.009  0.00  0.00    +0.184 A 
ATOM     10  O   LIG    1        0.002  -0.004   0.002  0.00  0.00    -0.287 OA
ATOM     11  O   LIG    1       -0.065   3.997   0.025  0.00  0.00    -0.451 OA
ENDROOT
BRANCH   1  17
ATOM     12  C   LIG    1       -3.698   3.323   0.051  0.00  0.00    +0.015 A 
ATOM     13  C   LIG    1       -4.894   4.008   0.072  0.00  0.00    +0.050 A 
ATOM     14  C   LIG    1       -4.902   5.396   0.079  0.00  0.00    +0.158 A 
ATOM     15  C   LIG    1       -3.701   6.104   0.072  0.00  0.00    +0.159 A 
ATOM     16  C   LIG    1       -2.499   5.424   0.057  0.00  0.00    +0.060 A 
ATOM     17  C   LIG    1       -2.490   4.026   0.049  0.00  0.00    +0.021 A 
BRANCH  14  18
ATOM     18  O   LIG    1       -6.084   6.066   0.094  0.00  0.00    -0.503 OA
ATOM     19  H   LIG    1       -6.434   6.264  -0.785  0.00  0.00    +0.292 HD
ENDBRANCH  14  18
BRANCH  15  20
ATOM     20  O   LIG    1       -3.713   7.464   0.080  0.00  0.00    -0.503 OA
ATOM     21  H   LIG    1       -3.725   7.862  -0.801  0.00  0.00    +0.292 HD
ENDBRANCH  15  20
ENDBRANCH   1  17
BRANCH   7  22
ATOM     22  O   LIG    1        4.688   4.256  -0.021  0.00  0.00    -0.503 OA
ATOM     23  H   LIG    1        5.009   4.474  -0.907  0.00  0.00    +0.292 HD
ENDBRANCH   7  22
BRANCH   8  24
ATOM     24  O   LIG    1        2.248   5.517   0.010  0.00  0.00    -0.501 OA
ATOM     25  H   LIG    1        2.220   5.914  -0.871  0.00  0.00    +0.292 HD
ENDBRANCH   8  24
TORSDOF 5
