REMARK  Name = ZINC00036634
REMARK                            x       y       z     vdW  Elec       q    Type
REMARK                         _______ _______ _______ _____ _____    ______ ____
ROOT
ATOM      1  C   LIG    1        3.696  -0.686  -0.038  0.00  0.00    +0.266 C 
ATOM      2  N   LIG    1        3.717  -2.017  -0.045  0.00  0.00    -0.288 N 
ATOM      3  H   LIG    1        4.565  -2.488  -0.057  0.00  0.00    +0.301 HD
ATOM      4  H   LIG    1        2.885  -2.515  -0.040  0.00  0.00    +0.301 HD
ENDROOT
BRANCH   1   8
ATOM      5  C   LIG    1       -0.017   1.379   0.010  0.00  0.00    +0.000 A 
ATOM      6  C   LIG    1        1.168   2.093   0.002  0.00  0.00    +0.001 A 
ATOM      7  C   LIG    1        2.377   1.428  -0.013  0.00  0.00    +0.016 A 
ATOM      8  C   LIG    1        2.403   0.034  -0.021  0.00  0.00    +0.061 A 
ATOM      9  C   LIG    1        1.204  -0.680  -0.013  0.00  0.00    +0.016 A 
ATOM     10  C   LIG    1        0.002  -0.004   0.002  0.00  0.00    +0.001 A 
ENDBRANCH   1   8
BRANCH   1  11
ATOM     11  N   LIG    1        4.838  -0.002  -0.046  0.00  0.00    -0.250 N 
ATOM     12  H   LIG    1        5.686  -0.473  -0.058  0.00  0.00    +0.288 HD
ATOM     13  H   LIG    1        4.823   0.968  -0.041  0.00  0.00    +0.288 HD
ENDBRANCH   1  11
TORSDOF 2
