REMARK  Name = ZINC00003911
REMARK                            x       y       z     vdW  Elec       q    Type
REMARK                         _______ _______ _______ _____ _____    ______ ____
ROOT
ATOM      1  N   LIG    1        0.713  -0.491   1.192  0.00  0.00    +0.381 N 
ATOM      2  H   LIG    1        0.655  -1.497   1.230  0.00  0.00    -0.086 HD
ATOM      3  H   LIG    1        0.290  -0.099   2.020  0.00  0.00    -0.086 HD
ENDROOT
BRANCH   1   5
ATOM      4  C   LIG    1       -0.019   1.526   0.010  0.00  0.00    -0.014 C 
ATOM      5  C   LIG    1        0.002  -0.004   0.002  0.00  0.00    -0.075 C 
BRANCH   5   6
ATOM      6  C   LIG    1       -1.433  -0.534   0.013  0.00  0.00    -0.011 C 
BRANCH   6   7
ATOM      7  C   LIG    1       -1.416  -2.058  -0.121  0.00  0.00    +0.033 C 
BRANCH   7   8
ATOM      8  C   LIG    1       -2.829  -2.579  -0.111  0.00  0.00    -0.047 A 
ATOM      9  C   LIG    1       -3.431  -2.917   1.087  0.00  0.00    +0.007 A 
ATOM     10  C   LIG    1       -4.727  -3.396   1.100  0.00  0.00    +0.045 A 
ATOM     11  C   LIG    1       -5.425  -3.537  -0.091  0.00  0.00    +0.117 A 
ATOM     12  C   LIG    1       -4.819  -3.197  -1.292  0.00  0.00    +0.045 A 
ATOM     13  C   LIG    1       -3.525  -2.714  -1.298  0.00  0.00    +0.007 A 
BRANCH  11  14
ATOM     14  O   LIG    1       -6.699  -4.008  -0.081  0.00  0.00    -0.507 OA
ATOM     15  H   LIG    1       -7.373  -3.320   0.002  0.00  0.00    +0.292 HD
ENDBRANCH  11  14
ENDBRANCH   7   8
ENDBRANCH   6   7
ENDBRANCH   5   6
ENDBRANCH   1   5
BRANCH   1  16
ATOM     16  C   LIG    1        2.122  -0.083   1.122  0.00  0.00    -0.078 C 
BRANCH  16  17
ATOM     17  C   LIG    1        2.862  -0.589   2.361  0.00  0.00    +0.016 C 
BRANCH  17  18
ATOM     18  C   LIG    1        4.308  -0.171   2.290  0.00  0.00    -0.045 A 
ATOM     19  C   LIG    1        5.235  -0.994   1.677  0.00  0.00    +0.007 A 
ATOM     20  C   LIG    1        6.562  -0.614   1.608  0.00  0.00    +0.049 A 
ATOM     21  C   LIG    1        6.966   0.594   2.154  0.00  0.00    +0.158 A 
ATOM     22  C   LIG    1        6.034   1.422   2.770  0.00  0.00    +0.158 A 
ATOM     23  C   LIG    1        4.704   1.038   2.831  0.00  0.00    +0.052 A 
BRANCH  21  24
ATOM     24  O   LIG    1        8.272   0.969   2.088  0.00  0.00    -0.503 OA
ATOM     25  H   LIG    1        8.495   1.477   1.296  0.00  0.00    +0.292 HD
ENDBRANCH  21  24
BRANCH  22  26
ATOM     26  O   LIG    1        6.425   2.609   3.307  0.00  0.00    -0.503 OA
ATOM     27  H   LIG    1        6.384   3.352   2.691  0.00  0.00    +0.292 HD
ENDBRANCH  22  26
ENDBRANCH  17  18
ENDBRANCH  16  17
ENDBRANCH   1  16
TORSDOF 10
