REMARK  Name = ZINC00012346
REMARK                            x       y       z     vdW  Elec       q    Type
REMARK                         _______ _______ _______ _____ _____    ______ ____
ROOT
ATOM      1  C   LIG    1       -0.017   1.406   0.010  0.00  0.00    +0.061 A 
ATOM      2  C   LIG    1        1.159   2.078   0.002  0.00  0.00    +0.096 A 
ATOM      3  N   LIG    1        2.327   1.377  -0.013  0.00  0.00    -0.272 N 
ATOM      4  C   LIG    1        2.312   0.031  -0.020  0.00  0.00    +0.352 A 
ATOM      5  N   LIG    1        1.164  -0.644  -0.013  0.00  0.00    -0.178 NA
ATOM      6  O   LIG    1        3.368  -0.580  -0.033  0.00  0.00    -0.244 OA
ATOM      7  C   LIG    1        0.002  -0.004   0.002  0.00  0.00    +0.123 A 
ENDROOT
BRANCH   3   8
ATOM      8  C   LIG    1        3.606   2.091  -0.022  0.00  0.00    +0.235 C 
ATOM      9  C   LIG    1        4.437   1.693   1.237  0.00  0.00    +0.126 C 
ATOM     10  S   LIG    1        5.574   3.148   1.284  0.00  0.00    -0.123 S 
ATOM     11  C   LIG    1        4.562   4.285   0.246  0.00  0.00    +0.203 C 
ATOM     12  O   LIG    1        3.367   3.505   0.013  0.00  0.00    -0.340 OA
BRANCH  11  13
ATOM     13  C   LIG    1        4.235   5.571   1.007  0.00  0.00    +0.198 C 
BRANCH  13  14
ATOM     14  O   LIG    1        3.529   5.248   2.207  0.00  0.00    -0.392 OA
ATOM     15  H   LIG    1        3.289   6.018   2.741  0.00  0.00    +0.210 HD
ENDBRANCH  13  14
ENDBRANCH  11  13
ENDBRANCH   3   8
BRANCH   7  16
ATOM     16  N   LIG    1       -1.177  -0.712   0.009  0.00  0.00    -0.343 N 
ATOM     17  H   LIG    1       -1.161  -1.682   0.004  0.00  0.00    +0.144 HD
ATOM     18  H   LIG    1       -2.026  -0.241   0.020  0.00  0.00    +0.144 HD
ENDBRANCH   7  16
TORSDOF 4
