REMARK  Name = ZINC00070745
REMARK                            x       y       z     vdW  Elec       q    Type
REMARK                         _______ _______ _______ _____ _____    ______ ____
ROOT
ATOM      1  N   LIG    1       -0.017   1.387   0.010  0.00  0.00    -0.294 N 
ATOM      2  H   LIG    1       -0.861   1.829   0.192  0.00  0.00    +0.154 HD
ENDROOT
BRANCH   1   3
ATOM      3  C   LIG    1        0.014   0.016  -0.226  0.00  0.00    +0.036 A 
ATOM      4  C   LIG    1       -0.886  -0.822   0.430  0.00  0.00    +0.024 A 
ATOM      5  C   LIG    1       -0.865  -2.168   0.206  0.00  0.00    +0.020 A 
ATOM      6  C   LIG    1        0.064  -2.716  -0.687  0.00  0.00    +0.100 A 
ATOM      7  C   LIG    1        0.972  -1.876  -1.351  0.00  0.00    +0.133 A 
ATOM      8  C   LIG    1        0.938  -0.512  -1.120  0.00  0.00    +0.069 A 
BRANCH   6   9
ATOM      9  C   LIG    1        0.087  -4.166  -0.929  0.00  0.00    +0.340 C 
ATOM     10  O   LIG    1        0.894  -4.640  -1.705  0.00  0.00    -0.245 OA
BRANCH   9  11
ATOM     11  O   LIG    1       -0.786  -4.970  -0.290  0.00  0.00    -0.477 OA
ATOM     12  H   LIG    1       -1.408  -4.605   0.308  0.00  0.00    +0.295 HD
ENDBRANCH   9  11
ENDBRANCH   6   9
BRANCH   7  13
ATOM     13  O   LIG    1        1.875  -2.398  -2.218  0.00  0.00    -0.506 OA
ATOM     14  H   LIG    1        1.561  -2.448  -3.131  0.00  0.00    +0.292 HD
ENDBRANCH   7  13
ENDBRANCH   1   3
BRANCH   1  18
ATOM     15  C   LIG    1        2.538   3.969   0.021  0.00  0.00    +0.080 A 
ATOM     16  C   LIG    1        3.629   3.160  -0.129  0.00  0.00    +0.076 A 
ATOM     17  S   LIG    1        2.844   1.555  -0.198  0.00  0.00    -0.060 S 
ATOM     18  C   LIG    1        1.158   2.123  -0.022  0.00  0.00    +0.163 A 
ATOM     19  N   LIG    1        1.329   3.429   0.065  0.00  0.00    -0.225 NA
BRANCH  15  23
ATOM     20  C   LIG    1        0.573   8.499   0.759  0.00  0.00    +0.047 C 
ATOM     21  C   LIG    1        1.764   7.619   0.481  0.00  0.00    -0.015 A 
ATOM     22  C   LIG    1        1.603   6.252   0.378  0.00  0.00    +0.016 A 
ATOM     23  C   LIG    1        2.706   5.439   0.126  0.00  0.00    +0.001 A 
ATOM     24  C   LIG    1        3.967   6.012  -0.031  0.00  0.00    +0.013 A 
ATOM     25  C   LIG    1        4.119   7.380   0.068  0.00  0.00    +0.039 A 
ATOM     26  C   LIG    1        3.020   8.184   0.324  0.00  0.00    +0.126 A 
ATOM     27  F   LIG    1        3.173   9.522   0.420  0.00  0.00    -0.205 F 
ENDBRANCH  15  23
ENDBRANCH   1  18
TORSDOF 6
