REMARK  Name = ZINC00037161
REMARK                            x       y       z     vdW  Elec       q    Type
REMARK                         _______ _______ _______ _____ _____    ______ ____
ROOT
ATOM      1  C   LIG    1       -1.494   4.241   0.037  0.00  0.00    +0.280 C 
ATOM      2  N   LIG    1       -0.679   3.169   0.005  0.00  0.00    -0.202 N 
ATOM      3  C   LIG    1        0.684   3.195  -0.013  0.00  0.00    +0.137 A 
ATOM      4  C   LIG    1        1.116   1.915  -0.045  0.00  0.00    +0.079 A 
ATOM      5 CL   LIG    1        2.773   1.398  -0.076  0.00  0.00    -0.080 Cl
ATOM      6  C   LIG    1       -0.009   1.078  -0.047  0.00  0.00    +0.154 A 
ATOM      7  N   LIG    1       -1.080   1.827  -0.023  0.00  0.00    -0.171 NA
ATOM      8  O   LIG    1       -1.026   5.357   0.147  0.00  0.00    -0.265 OA
ENDROOT
BRANCH   1  14
ATOM      9  C   LIG    1       -4.872   2.615  -0.154  0.00  0.00    +0.001 A 
ATOM     10  C   LIG    1       -5.699   3.721  -0.245  0.00  0.00    +0.001 A 
ATOM     11  C   LIG    1       -5.163   4.996  -0.245  0.00  0.00    +0.021 A 
ATOM     12  C   LIG    1       -3.797   5.174  -0.148  0.00  0.00    +0.053 A 
ATOM     13 CL   LIG    1       -3.126   6.775  -0.141  0.00  0.00    -0.083 Cl
ATOM     14  C   LIG    1       -2.955   4.061  -0.061  0.00  0.00    +0.060 A 
ATOM     15  C   LIG    1       -3.506   2.776  -0.063  0.00  0.00    +0.015 A 
ENDBRANCH   1  14
TORSDOF 1
