REMARK  Name = ZINC00066629
REMARK                            x       y       z     vdW  Elec       q    Type
REMARK                         _______ _______ _______ _____ _____    ______ ____
ROOT
ATOM      1  C   LIG    1        5.319  -1.605   1.467  0.00  0.00    +0.122 A 
ATOM      2  C   LIG    1        6.048  -2.008   0.349  0.00  0.00    +0.048 A 
ATOM      3  C   LIG    1        7.243  -2.675   0.494  0.00  0.00    +0.030 A 
ATOM      4  C   LIG    1        7.734  -2.956   1.766  0.00  0.00    +0.047 A 
ATOM      5  C   LIG    1        7.001  -2.552   2.900  0.00  0.00    +0.004 A 
ATOM      6  C   LIG    1        7.734  -2.967   4.036  0.00  0.00    +0.043 A 
ATOM      7  CA  LIG    1        8.860  -3.594   3.598  0.00  0.00    +0.125 A 
ATOM      8  N   LIG    1        8.868  -3.592   2.215  0.00  0.00    -0.349 N 
ATOM      9  H   LIG    1        9.560  -3.976   1.654  0.00  0.00    +0.166 HD
ATOM     10  C   LIG    1        5.789  -1.867   2.736  0.00  0.00    +0.055 A 
ENDROOT
BRANCH   7  11
ATOM     11  C   LIG    1        9.897  -4.178   4.454  0.00  0.00    +0.353 C 
ATOM     12  O   LIG    1       10.872  -4.720   3.951  0.00  0.00    -0.243 OA
BRANCH  11  13
ATOM     13  OXT LIG    1        9.788  -4.122   5.672  0.00  0.00    -0.476 OA
ATOM     14  HXT LIG    1        9.041  -3.706   6.057  0.00  0.00    +0.295 HD
ENDBRANCH  11  13
ENDBRANCH   7  11
BRANCH   1  15
ATOM     15  O   LIG    1        4.141  -0.946   1.304  0.00  0.00    -0.487 OA
BRANCH  15  16
ATOM     16  C   LIG    1        3.711  -0.707  -0.038  0.00  0.00    +0.264 C 
BRANCH  16  20
ATOM     17  C   LIG    1       -0.017   1.378   0.010  0.00  0.00    +0.000 A 
ATOM     18  C   LIG    1        1.171   2.086   0.002  0.00  0.00    +0.000 A 
ATOM     19  C   LIG    1        2.377   1.411  -0.013  0.00  0.00    +0.007 A 
ATOM     20  C   LIG    1        2.396   0.029  -0.020  0.00  0.00    -0.010 A 
ATOM     21  C   LIG    1        1.208  -0.679  -0.012  0.00  0.00    +0.007 A 
ATOM     22  C   LIG    1        0.002  -0.004   0.002  0.00  0.00    +0.000 A 
ENDBRANCH  16  20
ENDBRANCH  15  16
ENDBRANCH   1  15
TORSDOF 5
