REMARK  Name = ZINC00016380
REMARK                            x       y       z     vdW  Elec       q    Type
REMARK                         _______ _______ _______ _____ _____    ______ ____
ROOT
ATOM      1  N   LIG    1       -1.242   2.678   0.246  0.00  0.00    -0.246 N 
ATOM      2  H   LIG    1       -2.155   2.429   0.031  0.00  0.00    +0.265 HD
ENDROOT
BRANCH   1  10
ATOM      3  C   LIG    1        0.411   4.405  -0.100  0.00  0.00    +0.044 A 
ATOM      4  C   LIG    1        0.772   5.738  -0.078  0.00  0.00    +0.025 A 
ATOM      5  C   LIG    1       -0.141   6.697   0.326  0.00  0.00    +0.059 A 
ATOM      6 CL   LIG    1        0.318   8.370   0.358  0.00  0.00    -0.082 Cl
ATOM      7  C   LIG    1       -1.420   6.323   0.704  0.00  0.00    +0.062 A 
ATOM      8 CL   LIG    1       -2.562   7.528   1.210  0.00  0.00    -0.082 Cl
ATOM      9  C   LIG    1       -1.787   4.991   0.678  0.00  0.00    +0.063 A 
ATOM     10  C   LIG    1       -0.873   4.027   0.273  0.00  0.00    +0.101 A 
ENDBRANCH   1  10
BRANCH   1  11
ATOM     11  C   LIG    1       -0.310   1.704   0.525  0.00  0.00    +0.346 C 
ATOM     12  N   LIG    1        0.887   2.111   0.921  0.00  0.00    -0.292 N 
ATOM     13  H   LIG    1        1.087   3.114   1.004  0.00  0.00    +0.255 HD
ATOM     14  H   LIG    1        1.610   1.426   1.144  0.00  0.00    +0.255 HD
BRANCH  11  15
ATOM     15  N   LIG    1       -0.643   0.376   0.394  0.00  0.00    -0.292 N 
ATOM     16  H   LIG    1       -1.506   0.127   0.028  0.00  0.00    +0.255 HD
ATOM     17  H   LIG    1       -0.015  -0.311   0.666  0.00  0.00    +0.255 HD
ENDBRANCH  11  15
ENDBRANCH   1  11
TORSDOF 3
