REMARK  Name = ZINC00075008
REMARK                            x       y       z     vdW  Elec       q    Type
REMARK                         _______ _______ _______ _____ _____    ______ ____
ROOT
ATOM      1  C   LIG    1        0.742  -0.511   1.242  0.00  0.00    +0.104 C 
ATOM      2  C   LIG    1        0.712  -2.060   1.298  0.00  0.00    +0.046 C 
ATOM      3  C   LIG    1        2.116  -2.397   0.729  0.00  0.00    +0.236 C 
ATOM      4  O   LIG    1        2.931  -1.318   1.235  0.00  0.00    -0.464 OA
ATOM      5  C   LIG    1        2.218  -0.174   1.155  0.00  0.00    +0.311 C 
ATOM      6  O   LIG    1        2.679   0.936   1.032  0.00  0.00    -0.251 OA
ENDROOT
BRANCH   1   8
ATOM      7  C   LIG    1       -0.019   1.526   0.010  0.00  0.00    +0.004 C 
ATOM      8  C   LIG    1        0.002  -0.004   0.002  0.00  0.00    +0.012 C 
ENDBRANCH   1   8
BRANCH   2   9
ATOM      9  C   LIG    1       -0.396  -2.623   0.405  0.00  0.00    +0.062 C 
BRANCH   9  10
ATOM     10  C   LIG    1       -0.472  -4.118   0.582  0.00  0.00    +0.036 A 
ATOM     11  C   LIG    1       -1.157  -4.780   1.534  0.00  0.00    +0.105 A 
ATOM     12  N   LIG    1       -0.966  -6.094   1.344  0.00  0.00    -0.352 N 
ATOM     13  H   LIG    1       -1.346  -6.801   1.889  0.00  0.00    +0.166 HD
ATOM     14  C   LIG    1       -0.190  -6.271   0.310  0.00  0.00    +0.173 A 
ATOM     15  N   LIG    1        0.137  -5.063  -0.198  0.00  0.00    -0.339 N 
ATOM     16  C   LIG    1        0.987  -4.812  -1.365  0.00  0.00    +0.150 C 
ENDBRANCH   9  10
ENDBRANCH   2   9
TORSDOF 3
