REMARK  Name = ZINC00057523
REMARK                            x       y       z     vdW  Elec       q    Type
REMARK                         _______ _______ _______ _____ _____    ______ ____
ROOT
ATOM      1  C   LIG    1       -0.037   1.395  -0.163  0.00  0.00    +0.057 A 
ATOM      2  C   LIG    1        1.172   2.092  -0.034  0.00  0.00    -0.016 A 
ATOM      3  C   LIG    1        2.379   1.385   0.053  0.00  0.00    +0.057 A 
ATOM      4  C   LIG    1        2.373   0.005   0.012  0.00  0.00    +0.163 A 
ATOM      5  C   LIG    1        1.169  -0.685  -0.117  0.00  0.00    +0.201 A 
ATOM      6  C   LIG    1       -0.034   0.014  -0.204  0.00  0.00    +0.163 A 
ENDROOT
BRANCH   2   7
ATOM      7  C   LIG    1        1.174   3.557   0.009  0.00  0.00    +0.038 C 
ATOM      8  C   LIG    1        0.091   4.232   0.527  0.00  0.00    +0.129 C 
BRANCH   8   9
ATOM      9  C   LIG    1       -0.972   3.506   1.155  0.00  0.00    +0.110 C 
ATOM     10  N   LIG    1       -1.815   2.930   1.652  0.00  0.00    -0.190 NA
ENDBRANCH   8   9
BRANCH   8  11
ATOM     11  C   LIG    1        0.028   5.660   0.438  0.00  0.00    +0.110 C 
ATOM     12  N   LIG    1       -0.022   6.792   0.367  0.00  0.00    -0.190 NA
ENDBRANCH   8  11
ENDBRANCH   2   7
BRANCH   4  13
ATOM     13  O   LIG    1        3.543  -0.683   0.096  0.00  0.00    -0.503 OA
ATOM     14  H   LIG    1        3.803  -0.908   1.000  0.00  0.00    +0.292 HD
ENDBRANCH   4  13
BRANCH   5  15
ATOM     15  O   LIG    1        1.167  -2.043  -0.159  0.00  0.00    -0.501 OA
ATOM     16  H   LIG    1        1.088  -2.463   0.709  0.00  0.00    +0.292 HD
ENDBRANCH   5  15
BRANCH   6  17
ATOM     17  O   LIG    1       -1.206  -0.664  -0.329  0.00  0.00    -0.503 OA
ATOM     18  H   LIG    1       -1.466  -0.834  -1.244  0.00  0.00    +0.292 HD
ENDBRANCH   6  17
TORSDOF 6
