REMARK  Name = ZINC00056408
REMARK                            x       y       z     vdW  Elec       q    Type
REMARK                         _______ _______ _______ _____ _____    ______ ____
ROOT
ATOM      1  C   LIG    1        0.321   1.960   0.229  0.00  0.00    +0.105 C 
ATOM      2  N   LIG    1        0.093   0.529  -0.013  0.00  0.00    -0.298 NA
ATOM      3  C   LIG    1       -1.346   0.226  -0.067  0.00  0.00    +0.089 C 
ATOM      4  C   LIG    1       -1.526  -1.165  -0.675  0.00  0.00    +0.051 C 
ATOM      5  C   LIG    1       -0.636  -2.155   0.033  0.00  0.00    -0.038 A 
ATOM      6  C   LIG    1       -0.905  -3.508  -0.117  0.00  0.00    +0.053 A 
ATOM      7  C   LIG    1       -0.113  -4.452   0.510  0.00  0.00    +0.158 A 
ATOM      8  C   LIG    1        0.961  -4.040   1.295  0.00  0.00    +0.159 A 
ATOM      9  C   LIG    1        1.223  -2.690   1.442  0.00  0.00    +0.054 A 
ATOM     10  C   LIG    1        0.424  -1.746   0.813  0.00  0.00    -0.023 A 
ATOM     11  C   LIG    1        0.746  -0.288   1.015  0.00  0.00    +0.091 C 
ENDROOT
BRANCH   7  12
ATOM     12  O   LIG    1       -0.381  -5.777   0.361  0.00  0.00    -0.503 OA
ATOM     13  H   LIG    1        0.070  -6.187  -0.390  0.00  0.00    +0.292 HD
ENDBRANCH   7  12
BRANCH   8  14
ATOM     14  O   LIG    1        1.747  -4.960   1.915  0.00  0.00    -0.503 OA
ATOM     15  H   LIG    1        2.502  -5.252   1.386  0.00  0.00    +0.292 HD
ENDBRANCH   8  14
BRANCH  11  16
ATOM     16  C   LIG    1        2.260  -0.089   0.932  0.00  0.00    +0.059 C 
BRANCH  16  17
ATOM     17  C   LIG    1        2.751  -0.527  -0.424  0.00  0.00    -0.042 A 
ATOM     18  C   LIG    1        3.244  -1.806  -0.599  0.00  0.00    +0.007 A 
ATOM     19  C   LIG    1        3.696  -2.212  -1.841  0.00  0.00    +0.049 A 
ATOM     20  C   LIG    1        3.653  -1.337  -2.914  0.00  0.00    +0.158 A 
ATOM     21  C   LIG    1        3.155  -0.049  -2.738  0.00  0.00    +0.158 A 
ATOM     22  C   LIG    1        2.700   0.350  -1.492  0.00  0.00    +0.052 A 
BRANCH  20  23
ATOM     23  O   LIG    1        4.096  -1.735  -4.137  0.00  0.00    -0.503 OA
ATOM     24  H   LIG    1        3.414  -2.136  -4.692  0.00  0.00    +0.292 HD
ENDBRANCH  20  23
BRANCH  21  25
ATOM     25  O   LIG    1        3.111   0.814  -3.788  0.00  0.00    -0.503 OA
ATOM     26  H   LIG    1        2.287   0.778  -4.293  0.00  0.00    +0.292 HD
ENDBRANCH  21  25
ENDBRANCH  16  17
ENDBRANCH  11  16
TORSDOF 6
