REMARK  Name = ZINC00075126
REMARK                            x       y       z     vdW  Elec       q    Type
REMARK                         _______ _______ _______ _____ _____    ______ ____
ROOT
ATOM      1  C   LIG    1       -1.406  -0.098   2.953  0.00  0.00    +0.080 C 
ATOM      2  C   LIG    1       -1.389   0.488   4.364  0.00  0.00    +0.019 C 
ATOM      3  C   LIG    1       -2.818   0.751   4.853  0.00  0.00    +0.055 C 
ATOM      4  C   LIG    1       -3.590  -0.544   4.762  0.00  0.00    +0.030 A 
ATOM      5  C   LIG    1       -3.252  -1.539   3.851  0.00  0.00    +0.046 A 
ATOM      6  C   LIG    1       -4.197  -2.624   4.058  0.00  0.00    +0.011 A 
ATOM      7  C   LIG    1       -4.360  -3.872   3.456  0.00  0.00    +0.011 A 
ATOM      8  C   LIG    1       -5.396  -4.662   3.924  0.00  0.00    +0.001 A 
ATOM      9  C   LIG    1       -6.235  -4.240   4.940  0.00  0.00    +0.002 A 
ATOM     10  C   LIG    1       -6.091  -3.006   5.550  0.00  0.00    +0.026 A 
ATOM     11  C   LIG    1       -5.056  -2.191   5.098  0.00  0.00    +0.050 A 
ATOM     12  N   LIG    1       -4.652  -0.939   5.484  0.00  0.00    -0.346 N 
ATOM     13  C   LIG    1       -5.288  -0.143   6.537  0.00  0.00    +0.149 C 
ATOM     14  C   LIG    1       -2.174  -1.401   2.945  0.00  0.00    +0.170 C 
ATOM     15  O   LIG    1       -1.878  -2.300   2.183  0.00  0.00    -0.292 OA
ENDROOT
BRANCH   1  16
ATOM     16  C   LIG    1        0.030  -0.353   2.491  0.00  0.00    +0.134 C 
BRANCH  16  22
ATOM     17  C   LIG    1       -0.018   1.503   0.010  0.00  0.00    +0.086 C 
ATOM     18  C   LIG    1        0.002  -0.004   0.002  0.00  0.00    +0.107 A 
ATOM     19  N   LIG    1        0.008  -0.759  -1.063  0.00  0.00    -0.241 NA
ATOM     20  C   LIG    1        0.028  -2.047  -0.691  0.00  0.00    +0.130 A 
ATOM     21  C   LIG    1        0.034  -2.093   0.655  0.00  0.00    +0.107 A 
ATOM     22  N   LIG    1        0.023  -0.797   1.095  0.00  0.00    -0.334 N 
ENDBRANCH  16  22
ENDBRANCH   1  16
TORSDOF 2
