REMARK  Name = ZINC00026126
REMARK                            x       y       z     vdW  Elec       q    Type
REMARK                         _______ _______ _______ _____ _____    ______ ____
ROOT
ATOM      1  C   LIG    1        2.042  -0.670   1.154  0.00  0.00    +0.132 C 
ATOM      2  S   LIG    1        2.903  -0.361  -0.293  0.00  0.00    -0.019 S 
ENDROOT
BRANCH   1   3
ATOM      3  N   LIG    1        0.701  -0.538   1.182  0.00  0.00    -0.320 N 
ATOM      4  H   LIG    1        0.214  -0.714   2.002  0.00  0.00    +0.148 HD
BRANCH   3   6
ATOM      5  C   LIG    1       -0.018   1.397  -0.129  0.00  0.00    +0.033 C 
ATOM      6  C   LIG    1       -0.020  -0.130  -0.026  0.00  0.00    +0.099 C 
BRANCH   6   7
ATOM      7  C   LIG    1       -1.441  -0.627   0.045  0.00  0.00    -0.028 A 
ATOM      8  C   LIG    1       -2.133  -0.575   1.241  0.00  0.00    +0.005 A 
ATOM      9  C   LIG    1       -3.436  -1.031   1.306  0.00  0.00    +0.000 A 
ATOM     10  C   LIG    1       -4.048  -1.539   0.175  0.00  0.00    +0.000 A 
ATOM     11  C   LIG    1       -3.356  -1.590  -1.021  0.00  0.00    +0.000 A 
ATOM     12  C   LIG    1       -2.054  -1.130  -1.087  0.00  0.00    +0.005 A 
ENDBRANCH   6   7
ENDBRANCH   3   6
ENDBRANCH   1   3
BRANCH   1  13
ATOM     13  N   LIG    1        2.706  -1.046   2.266  0.00  0.00    -0.311 N 
ATOM     14  H   LIG    1        2.225  -1.168   3.099  0.00  0.00    +0.149 HD
BRANCH  13  15
ATOM     15  C   LIG    1        4.082  -1.260   2.217  0.00  0.00    +0.140 C 
ATOM     16  C   LIG    1        4.641  -2.313   2.931  0.00  0.00    +0.040 C 
ATOM     17  C   LIG    1        6.009  -2.515   2.874  0.00  0.00    +0.024 C 
ATOM     18  C   LIG    1        6.774  -1.651   2.100  0.00  0.00    +0.094 C 
ATOM     19 CL   LIG    1        8.494  -1.858   1.994  0.00  0.00    -0.120 Cl
ATOM     20  C   LIG    1        6.151  -0.625   1.416  0.00  0.00    +0.102 C 
ATOM     21  N   LIG    1        4.844  -0.461   1.486  0.00  0.00    -0.297 NA
ATOM     22  H   LIG    1        4.431   0.266   0.994  0.00  0.00    +0.124 HD
ENDBRANCH  13  15
ENDBRANCH   1  13
TORSDOF 5
