REMARK  Name = ZINC00023738
REMARK                            x       y       z     vdW  Elec       q    Type
REMARK                         _______ _______ _______ _____ _____    ______ ____
ROOT
ATOM      1  C   LIG    1       -1.360   7.364   0.056  0.00  0.00    -0.037 A 
ATOM      2  C   LIG    1       -1.309   6.006   0.047  0.00  0.00    +0.012 A 
ATOM      3  C   LIG    1       -0.078   5.332   0.032  0.00  0.00    -0.017 A 
ATOM      4  C   LIG    1        1.111   6.038   0.031  0.00  0.00    +0.017 A 
ATOM      5  C   LIG    1        1.081   7.441   0.034  0.00  0.00    -0.017 A 
ATOM      6  C   LIG    1        2.269   8.193   0.027  0.00  0.00    +0.012 A 
ATOM      7  C   LIG    1        2.208   9.552   0.034  0.00  0.00    +0.046 A 
ATOM      8  C   LIG    1        0.977  10.215   0.050  0.00  0.00    +0.121 A 
ATOM      9  C   LIG    1       -0.196   9.516   0.057  0.00  0.00    +0.054 A 
ATOM     10  C   LIG    1       -0.169   8.112   0.050  0.00  0.00    -0.011 A 
ENDROOT
BRANCH   3  11
ATOM     11  C   LIG    1       -0.052   3.849   0.023  0.00  0.00    -0.016 A 
ATOM     12  C   LIG    1       -1.246   3.129   0.031  0.00  0.00    +0.008 A 
ATOM     13  C   LIG    1       -1.220   1.749   0.017  0.00  0.00    +0.002 A 
ATOM     14  C   LIG    1       -0.013   1.076   0.008  0.00  0.00    +0.023 A 
ATOM     15  C   LIG    1        1.182   1.785   0.000  0.00  0.00    +0.025 A 
ATOM     16  C   LIG    1        1.165   3.172   0.008  0.00  0.00    +0.031 A 
BRANCH  15  17
ATOM     17  N   LIG    1        2.401   1.102  -0.015  0.00  0.00    -0.358 N 
ATOM     18  H   LIG    1        3.235   1.597  -0.020  0.00  0.00    +0.142 HD
ATOM     19  H   LIG    1        2.413   0.132  -0.019  0.00  0.00    +0.142 HD
ENDBRANCH  15  17
ENDBRANCH   3  11
BRANCH   8  20
ATOM     20  O   LIG    1        0.948  11.574   0.058  0.00  0.00    -0.495 OA
ATOM     21  C   LIG    1        2.207  12.250   0.050  0.00  0.00    +0.277 C 
ENDBRANCH   8  20
BRANCH   1  22
ATOM     22  C   LIG    1       -2.692   8.068   0.073  0.00  0.00    +0.054 C 
BRANCH  22  23
ATOM     23  C   LIG    1       -3.098   8.426  -1.358  0.00  0.00    +0.109 C 
BRANCH  23  26
ATOM     24  C   LIG    1       -6.285  10.226  -2.480  0.00  0.00    +0.109 C 
ATOM     25  C   LIG    1       -4.953   9.522  -2.497  0.00  0.00    +0.210 C 
ATOM     26  N   LIG    1       -4.393   9.110  -1.342  0.00  0.00    -0.315 N 
ATOM     27  H   LIG    1       -4.848   9.267  -0.499  0.00  0.00    +0.149 HD
ATOM     28  O   LIG    1       -4.384   9.326  -3.550  0.00  0.00    -0.276 OA
ENDBRANCH  23  26
ENDBRANCH  22  23
ENDBRANCH   1  22
TORSDOF 6
