REMARK  Name = ZINC00002002
REMARK                            x       y       z     vdW  Elec       q    Type
REMARK                         _______ _______ _______ _____ _____    ______ ____
ROOT
ATOM      1  N   LIG    1       -3.452  -0.617  -1.276  0.00  0.00    -0.285 NA
ENDROOT
BRANCH   1   2
ATOM      2  C   LIG    1       -3.732  -1.879  -1.789  0.00  0.00    +0.124 C 
ATOM      3  C   LIG    1       -2.700  -2.657  -2.305  0.00  0.00    +0.035 C 
ATOM      4  C   LIG    1       -2.993  -3.910  -2.812  0.00  0.00    +0.004 C 
ATOM      5  C   LIG    1       -4.311  -4.345  -2.786  0.00  0.00    +0.015 C 
ATOM      6  C   LIG    1       -5.285  -3.520  -2.258  0.00  0.00    +0.082 C 
ATOM      7  N   LIG    1       -4.976  -2.331  -1.776  0.00  0.00    -0.301 NA
ATOM      8  H   LIG    1       -5.679  -1.773  -1.408  0.00  0.00    +0.123 HD
ENDBRANCH   1   2
BRANCH   1   9
ATOM      9  C   LIG    1       -2.078  -0.110  -1.286  0.00  0.00    +0.068 C 
BRANCH   9  10
ATOM     10  C   LIG    1       -1.376  -0.512   0.012  0.00  0.00    -0.064 C 
BRANCH  10  12
ATOM     11  C   LIG    1       -0.018   1.465   0.010  0.00  0.00    -0.097 C 
ATOM     12  N   LIG    1        0.002  -0.004   0.002  0.00  0.00    +0.377 N 
ATOM     13  H   LIG    1        0.474  -0.330  -0.828  0.00  0.00    -0.083 HD
ATOM     14  C   LIG    1        0.713  -0.491   1.192  0.00  0.00    -0.097 C 
ENDBRANCH  10  12
ENDBRANCH   9  10
ENDBRANCH   1   9
BRANCH   1  15
ATOM     15  C   LIG    1       -4.532   0.205  -0.725  0.00  0.00    +0.121 C 
BRANCH  15  16
ATOM     16  C   LIG    1       -5.123   1.057  -1.819  0.00  0.00    -0.033 A 
ATOM     17  C   LIG    1       -4.602   2.312  -2.073  0.00  0.00    +0.008 A 
ATOM     18  C   LIG    1       -5.141   3.096  -3.075  0.00  0.00    +0.046 A 
ATOM     19  C   LIG    1       -6.207   2.622  -3.826  0.00  0.00    +0.120 A 
ATOM     20  C   LIG    1       -6.728   1.362  -3.569  0.00  0.00    +0.046 A 
ATOM     21  C   LIG    1       -6.181   0.581  -2.570  0.00  0.00    +0.008 A 
BRANCH  19  22
ATOM     22  O   LIG    1       -6.740   3.391  -4.812  0.00  0.00    -0.495 OA
ATOM     23  C   LIG    1       -7.835   2.839  -5.545  0.00  0.00    +0.277 C 
ENDBRANCH  19  22
ENDBRANCH  15  16
ENDBRANCH   1  15
TORSDOF 7
