REMARK  Name = ZINC00044019
REMARK                            x       y       z     vdW  Elec       q    Type
REMARK                         _______ _______ _______ _____ _____    ______ ____
ROOT
ATOM      1  C   LIG    1       -1.572  -6.146   2.975  0.00  0.00    +0.061 C 
ATOM      2  C   LIG    1       -1.264  -5.603   1.604  0.00  0.00    +0.021 C 
ATOM      3  C   LIG    1       -0.209  -4.777   1.438  0.00  0.00    +0.078 C 
ATOM      4  C   LIG    1        0.065  -4.253   0.043  0.00  0.00    +0.143 C 
ATOM      5  N   LIG    1       -0.849  -4.692  -1.026  0.00  0.00    -0.288 N 
ATOM      6  H   LIG    1       -0.726  -4.390  -1.939  0.00  0.00    +0.151 HD
ATOM      7  C   LIG    1       -1.861  -5.521  -0.704  0.00  0.00    +0.304 C 
ATOM      8  O   LIG    1       -2.621  -5.890  -1.578  0.00  0.00    -0.252 OA
ATOM      9  N   LIG    1       -2.057  -5.954   0.548  0.00  0.00    -0.273 N 
ATOM     10  H   LIG    1       -2.803  -6.550   0.716  0.00  0.00    +0.156 HD
ENDROOT
BRANCH   4  11
ATOM     11  C   LIG    1        0.028  -2.747   0.096  0.00  0.00    -0.022 A 
ATOM     12  C   LIG    1        1.208  -2.029   0.150  0.00  0.00    +0.008 A 
ATOM     13  C   LIG    1        1.175  -0.648   0.200  0.00  0.00    +0.033 A 
ATOM     14  C   LIG    1       -0.039   0.015   0.194  0.00  0.00    +0.122 A 
ATOM     15  C   LIG    1       -1.218  -0.704   0.144  0.00  0.00    +0.033 A 
ATOM     16  C   LIG    1       -1.185  -2.085   0.090  0.00  0.00    +0.008 A 
BRANCH  14  17
ATOM     17  N   LIG    1       -0.074   1.494   0.247  0.00  0.00    +0.006 N 
ATOM     18  O   LIG    1        0.965   2.127   0.295  0.00  0.00    -0.130 OA
BRANCH  17  19
ATOM     19  O   LIG    1       -1.143   2.078   0.237  0.00  0.00    -0.396 OA
ATOM     20  H   LIG    1       -1.943   1.591   0.199  0.00  0.00    +0.329 HD
ENDBRANCH  17  19
ENDBRANCH  14  17
ENDBRANCH   4  11
BRANCH   3  21
ATOM     21  C   LIG    1        0.614  -4.412   2.530  0.00  0.00    +0.339 C 
ATOM     22  O   LIG    1        0.315  -4.757   3.658  0.00  0.00    -0.245 OA
BRANCH  21  23
ATOM     23  O   LIG    1        1.729  -3.683   2.320  0.00  0.00    -0.458 OA
BRANCH  23  24
ATOM     24  C   LIG    1        2.512  -3.351   3.469  0.00  0.00    +0.177 C 
ATOM     25  C   LIG    1        2.072  -1.984   4.032  0.00  0.00    +0.044 C 
ATOM     26  C   LIG    1        3.392  -1.324   4.503  0.00  0.00    +0.004 C 
ATOM     27  C   LIG    1        4.401  -1.759   3.410  0.00  0.00    +0.004 C 
ATOM     28  C   LIG    1        3.993  -3.208   3.074  0.00  0.00    +0.044 C 
ENDBRANCH  23  24
ENDBRANCH  21  23
ENDBRANCH   3  21
TORSDOF 6
