REMARK  Name = ZINC00008768
REMARK                            x       y       z     vdW  Elec       q    Type
REMARK                         _______ _______ _______ _____ _____    ______ ____
ROOT
ATOM      1  C   LIG    1       -1.321   3.044   0.101  0.00  0.00    +0.000 A 
ATOM      2  C   LIG    1       -1.253   1.665   0.041  0.00  0.00    +0.000 A 
ATOM      3  C   LIG    1       -0.017   1.054   0.030  0.00  0.00    +0.005 A 
ATOM      4  C   LIG    1        1.163   1.803   0.019  0.00  0.00    -0.031 A 
ATOM      5  C   LIG    1        1.102   3.139   0.134  0.00  0.00    -0.042 A 
ATOM      6  C   LIG    1        2.232   4.089   0.242  0.00  0.00    +0.057 C 
ATOM      7  C   LIG    1        3.321   3.914   1.222  0.00  0.00    +0.128 C 
ATOM      8  N   LIG    1        3.768   2.548   1.483  0.00  0.00    -0.323 N 
ATOM      9  C   LIG    1        4.751   2.304   2.448  0.00  0.00    +0.124 A 
ATOM     10  C   LIG    1        4.957   0.959   2.471  0.00  0.00    +0.143 A 
ATOM     11  N   LIG    1        4.145   0.417   1.573  0.00  0.00    -0.239 NA
ATOM     12  C   LIG    1        3.437   1.361   0.978  0.00  0.00    +0.121 A 
ATOM     13  C   LIG    1        2.438   1.026  -0.102  0.00  0.00    +0.050 C 
ATOM     14  C   LIG    1        3.117   1.405  -1.433  0.00  0.00    +0.000 C 
ATOM     15  C   LIG    1        2.326   0.848  -2.613  0.00  0.00    -0.081 C 
ATOM     16  N   LIG    1        2.315  -0.619  -2.515  0.00  0.00    +0.379 N 
ATOM     17  H   LIG    1        1.876  -1.015  -3.355  0.00  0.00    -0.086 HD
ATOM     18  H   LIG    1        3.279  -0.964  -2.438  0.00  0.00    -0.086 HD
ATOM     19  C   LIG    1        1.553  -1.026  -1.328  0.00  0.00    -0.081 C 
ATOM     20  C   LIG    1        2.189  -0.479  -0.059  0.00  0.00    +0.000 C 
ATOM     21  C   LIG    1       -0.157   3.770   0.162  0.00  0.00    +0.004 A 
ENDROOT
BRANCH   9  22
ATOM     22  C   LIG    1        5.439   3.297   3.282  0.00  0.00    +0.260 C 
ATOM     23  N   LIG    1        5.225   4.612   3.079  0.00  0.00    -0.324 N 
ATOM     24  H   LIG    1        5.734   5.269   3.579  0.00  0.00    +0.145 HD
ATOM     25  H   LIG    1        4.562   4.901   2.433  0.00  0.00    +0.145 HD
ATOM     26  O   LIG    1        6.203   2.933   4.157  0.00  0.00    -0.269 OA
ENDBRANCH   9  22
TORSDOF 1
