REMARK  Name = ZINC00009689
REMARK                            x       y       z     vdW  Elec       q    Type
REMARK                         _______ _______ _______ _____ _____    ______ ____
ROOT
ATOM      1  C   UNK A  0       -5.002  -2.608  -1.214  0.00  0.00    +0.217 C 
ATOM      2  N   PHE A  1       -5.230  -3.936  -1.218  0.00  0.00    -0.302 N 
ATOM      3  H   PHE A  1       -4.484  -4.556  -1.229  0.00  0.00    +0.150 HD
ATOM      4  O   UNK A  0       -5.934  -1.832  -1.200  0.00  0.00    -0.275 OA
ENDROOT
BRANCH   1   8
ATOM      5  C   UNK A  0       -1.433  -0.534   0.013  0.00  0.00    -0.008 C 
ATOM      6  C   UNK A  0       -2.173  -0.027  -1.227  0.00  0.00    +0.004 C 
ATOM      7  C   UNK A  0       -3.609  -0.556  -1.216  0.00  0.00    +0.013 C 
ATOM      8  C   UNK A  0       -3.588  -2.086  -1.224  0.00  0.00    +0.075 C 
ATOM      9  C   UNK A  0       -2.848  -2.593   0.015  0.00  0.00    +0.013 C 
ATOM     10  C   UNK A  0       -1.413  -2.063   0.004  0.00  0.00    +0.004 C 
BRANCH   5  12
ATOM     11  C   UNK A  0       -0.019   1.526   0.010  0.00  0.00    +0.007 C 
ATOM     12  C   UNK A  0        0.002  -0.004   0.002  0.00  0.00    -0.014 C 
ATOM     13  C   UNK A  0        0.742  -0.511   1.242  0.00  0.00    +0.007 C 
ENDBRANCH   5  12
ENDBRANCH   1   8
BRANCH   2  14
ATOM     14  CA  PHE A  1       -6.604  -4.443  -1.208  0.00  0.00    +0.186 C 
BRANCH  14  15
ATOM     15  C   PHE A  1       -7.132  -4.493  -2.619  0.00  0.00    +0.326 C 
ATOM     16  O   PHE A  1       -6.376  -4.315  -3.559  0.00  0.00    -0.249 OA
BRANCH  15  17
ATOM     17  OXT PHE A  1       -8.315  -4.712  -2.820  0.00  0.00    -0.479 OA
ATOM     18  HXT PHE A  1       -8.895  -4.849  -2.097  0.00  0.00    +0.295 HD
ENDBRANCH  15  17
ENDBRANCH  14  15
BRANCH  14  19
ATOM     19  CB  PHE A  1       -6.625  -5.849  -0.606  0.00  0.00    +0.069 C 
BRANCH  19  20
ATOM     20  CG  PHE A  1       -6.214  -5.782   0.843  0.00  0.00    -0.045 A 
ATOM     21  CD2 PHE A  1       -4.880  -5.897   1.189  0.00  0.00    +0.004 A 
ATOM     22  CE2 PHE A  1       -4.504  -5.835   2.517  0.00  0.00    +0.000 A 
ATOM     23  CZ  PHE A  1       -5.460  -5.657   3.500  0.00  0.00    +0.000 A 
ATOM     24  CE1 PHE A  1       -6.793  -5.540   3.153  0.00  0.00    +0.000 A 
ATOM     25  CD1 PHE A  1       -7.170  -5.598   1.824  0.00  0.00    +0.004 A 
ENDBRANCH  19  20
ENDBRANCH  14  19
ENDBRANCH   2  14
TORSDOF 7
