REMARK  Name = ZINC00008558
REMARK                            x       y       z     vdW  Elec       q    Type
REMARK                         _______ _______ _______ _____ _____    ______ ____
ROOT
ATOM      1  C   LIG    1       -0.017   1.384   0.010  0.00  0.00    +0.001 A 
ATOM      2  C   LIG    1        1.149   2.117   0.003  0.00  0.00    +0.010 A 
ATOM      3  C   LIG    1        2.388   1.461  -0.013  0.00  0.00    +0.004 A 
ATOM      4  C   LIG    1        3.613   2.171  -0.021  0.00  0.00    +0.032 A 
ATOM      5  C   LIG    1        4.812   1.474  -0.037  0.00  0.00    +0.024 A 
ATOM      6  C   LIG    1        4.840   0.091  -0.045  0.00  0.00    +0.016 A 
ATOM      7  C   LIG    1        3.653  -0.637  -0.037  0.00  0.00    +0.048 A 
ATOM      8  C   LIG    1        3.641  -2.103  -0.045  0.00  0.00    +0.259 A 
ATOM      9  O   LIG    1        4.693  -2.716  -0.060  0.00  0.00    -0.267 OA
ATOM     10  N   LIG    1        2.476  -2.776  -0.038  0.00  0.00    -0.289 N 
ATOM     11  H   LIG    1        2.496  -3.746  -0.043  0.00  0.00    +0.172 HD
ATOM     12  C   LIG    1        1.282  -2.153  -0.022  0.00  0.00    +0.259 A 
ATOM     13  O   LIG    1        0.258  -2.808  -0.015  0.00  0.00    -0.267 OA
ATOM     14  C   LIG    1        1.212  -0.685  -0.013  0.00  0.00    +0.048 A 
ATOM     15  C   LIG    1        2.418   0.052  -0.021  0.00  0.00    +0.008 A 
ATOM     16  C   LIG    1        0.002  -0.004   0.002  0.00  0.00    +0.014 A 
ENDROOT
BRANCH   4  17
ATOM     17  N   LIG    1        3.614   3.553  -0.014  0.00  0.00    -0.357 N 
ATOM     18  H   LIG    1        4.454   4.038  -0.020  0.00  0.00    +0.142 HD
ATOM     19  H   LIG    1        2.774   4.039  -0.004  0.00  0.00    +0.142 HD
ENDBRANCH   4  17
TORSDOF 1
