REMARK  Name = ZINC00037169
REMARK                            x       y       z     vdW  Elec       q    Type
REMARK                         _______ _______ _______ _____ _____    ______ ____
ROOT
ATOM      1  C   LIG    1       -1.245   2.170   0.075  0.00  0.00    +0.069 C 
ATOM      2  C   LIG    1       -0.012   1.304   0.049  0.00  0.00    +0.079 A 
ATOM      3  C   LIG    1        1.313   1.764   0.038  0.00  0.00    +0.085 A 
ATOM      4 CL   LIG    1        1.817   3.425   0.058  0.00  0.00    -0.080 Cl
ATOM      5  C   LIG    1        2.128   0.686   0.010  0.00  0.00    +0.064 A 
ATOM      6  C   LIG    1        3.635   0.710  -0.011  0.00  0.00    +0.067 C 
ATOM      7  N   LIG    1        1.339  -0.425   0.003  0.00  0.00    -0.199 N 
ATOM      8  C   LIG    1        1.768  -1.703  -0.025  0.00  0.00    +0.282 C 
ATOM      9  O   LIG    1        2.953  -1.944  -0.143  0.00  0.00    -0.265 OA
ATOM     10  N   LIG    1        0.004  -0.003   0.028  0.00  0.00    -0.167 NA
ENDROOT
BRANCH   8  11
ATOM     11  C   LIG    1        0.798  -2.808   0.090  0.00  0.00    +0.076 A 
ATOM     12  C   LIG    1       -0.574  -2.541   0.105  0.00  0.00    +0.016 A 
ATOM     13  C   LIG    1       -1.474  -3.579   0.212  0.00  0.00    +0.001 A 
ATOM     14  C   LIG    1       -1.024  -4.886   0.304  0.00  0.00    +0.003 A 
ATOM     15  C   LIG    1        0.330  -5.161   0.290  0.00  0.00    +0.039 A 
ATOM     16  C   LIG    1        1.247  -4.131   0.177  0.00  0.00    +0.136 A 
ATOM     17  F   LIG    1        2.570  -4.401   0.157  0.00  0.00    -0.205 F 
ENDBRANCH   8  11
TORSDOF 1
