REMARK  Name = ZINC00030344
REMARK                            x       y       z     vdW  Elec       q    Type
REMARK                         _______ _______ _______ _____ _____    ______ ____
ROOT
ATOM      1  C   LIG    1        2.696  -1.860  -4.732  0.00  0.00    +0.244 C 
ATOM      2  N   LIG    1        3.981  -1.521  -4.953  0.00  0.00    -0.307 N 
ATOM      3  H   LIG    1        4.452  -0.963  -4.314  0.00  0.00    +0.149 HD
ATOM      4  O   LIG    1        2.106  -2.559  -5.533  0.00  0.00    -0.270 OA
ENDROOT
BRANCH   1   8
ATOM      5  C   LIG    1        0.707  -0.490  -1.238  0.00  0.00    -0.042 A 
ATOM      6  C   LIG    1        0.033  -1.285  -2.147  0.00  0.00    +0.005 A 
ATOM      7  C   LIG    1        0.672  -1.733  -3.284  0.00  0.00    +0.013 A 
ATOM      8  C   LIG    1        2.004  -1.383  -3.516  0.00  0.00    +0.037 A 
ATOM      9  C   LIG    1        2.679  -0.581  -2.595  0.00  0.00    +0.013 A 
ATOM     10  C   LIG    1        2.025  -0.135  -1.464  0.00  0.00    +0.005 A 
BRANCH   5  12
ATOM     11  C   LIG    1       -0.019   1.526   0.010  0.00  0.00    +0.015 C 
ATOM     12  C   LIG    1        0.002  -0.004   0.002  0.00  0.00    -0.013 C 
ATOM     13  C   LIG    1       -1.433  -0.534   0.013  0.00  0.00    +0.015 C 
ATOM     14  C   LIG    1        0.742  -0.511   1.242  0.00  0.00    +0.015 C 
ENDBRANCH   5  12
ENDBRANCH   1   8
BRANCH   2  15
ATOM     15  C   LIG    1        4.667  -1.994  -6.158  0.00  0.00    +0.139 C 
BRANCH  15  16
ATOM     16  C   LIG    1        6.083  -1.477  -6.166  0.00  0.00    -0.030 A 
ATOM     17  C   LIG    1        6.371  -0.260  -6.753  0.00  0.00    +0.007 A 
ATOM     18  C   LIG    1        7.670   0.214  -6.760  0.00  0.00    +0.029 A 
ATOM     19  C   LIG    1        8.680  -0.530  -6.179  0.00  0.00    +0.105 A 
ATOM     20  C   LIG    1        8.391  -1.747  -5.591  0.00  0.00    +0.029 A 
ATOM     21  C   LIG    1        7.092  -2.219  -5.581  0.00  0.00    +0.007 A 
BRANCH  19  22
ATOM     22  S   LIG    1       10.336   0.073  -6.189  0.00  0.00    +0.056 S 
ATOM     23  O   LIG    1       10.432   0.978  -7.280  0.00  0.00    -0.153 OA
ATOM     24  O   LIG    1       11.182  -1.062  -6.064  0.00  0.00    -0.153 OA
BRANCH  22  25
ATOM     25  N   LIG    1       10.539   0.969  -4.811  0.00  0.00    -0.204 NA
ATOM     26  H   LIG    1       11.392   1.391  -4.629  0.00  0.00    +0.144 HD
ATOM     27  H   LIG    1        9.804   1.071  -4.186  0.00  0.00    +0.144 HD
ENDBRANCH  22  25
ENDBRANCH  19  22
ENDBRANCH  15  16
ENDBRANCH   2  15
TORSDOF 6
