REMARK  Name = ZINC00071700
REMARK                            x       y       z     vdW  Elec       q    Type
REMARK                         _______ _______ _______ _____ _____    ______ ____
ROOT
ATOM      1  N   LIG    1        5.450  -1.678   1.382  0.00  0.00    -0.328 N 
ATOM      2  H   LIG    1        5.864  -1.911   0.536  0.00  0.00    +0.147 HD
ENDROOT
BRANCH   1   3
ATOM      3  C   LIG    1        6.064  -2.021   2.568  0.00  0.00    +0.130 A 
ATOM      4  C   LIG    1        7.303  -2.707   2.574  0.00  0.00    +0.040 A 
ATOM      5  C   LIG    1        7.960  -3.068   1.392  0.00  0.00    +0.013 A 
ATOM      6  C   LIG    1        9.151  -3.728   1.460  0.00  0.00    +0.001 A 
ATOM      7  C   LIG    1        9.722  -4.047   2.689  0.00  0.00    +0.002 A 
ATOM      8  C   LIG    1        9.108  -3.710   3.858  0.00  0.00    +0.028 A 
ATOM      9  C   LIG    1        7.882  -3.031   3.825  0.00  0.00    +0.076 A 
ATOM     10  N   LIG    1        7.236  -2.675   4.945  0.00  0.00    -0.235 NA
ATOM     11  C   LIG    1        6.090  -2.040   4.879  0.00  0.00    +0.223 A 
ATOM     12  N   LIG    1        5.513  -1.712   3.734  0.00  0.00    -0.220 NA
ENDBRANCH   1   3
BRANCH   1  13
ATOM     13  C   LIG    1        4.171  -0.963   1.399  0.00  0.00    +0.107 C 
BRANCH  13  14
ATOM     14  C   LIG    1        3.711  -0.707  -0.038  0.00  0.00    +0.054 C 
BRANCH  14  18
ATOM     15  C   LIG    1       -0.017   1.378   0.010  0.00  0.00    +0.000 A 
ATOM     16  C   LIG    1        1.171   2.086   0.002  0.00  0.00    +0.000 A 
ATOM     17  C   LIG    1        2.377   1.411  -0.013  0.00  0.00    +0.004 A 
ATOM     18  C   LIG    1        2.396   0.029  -0.020  0.00  0.00    -0.046 A 
ATOM     19  C   LIG    1        1.208  -0.679  -0.012  0.00  0.00    +0.004 A 
ATOM     20  C   LIG    1        0.002  -0.004   0.002  0.00  0.00    +0.000 A 
ENDBRANCH  14  18
ENDBRANCH  13  14
ENDBRANCH   1  13
TORSDOF 4
