REMARK  Name = ZINC00071274
REMARK                            x       y       z     vdW  Elec       q    Type
REMARK                         _______ _______ _______ _____ _____    ______ ____
ROOT
ATOM      1  C   LIG    1        4.142  -0.948  -1.488  0.00  0.00    +0.121 C 
ENDROOT
BRANCH   1   2
ATOM      2  N   LIG    1        5.420  -1.663  -1.505  0.00  0.00    -0.235 N 
ATOM      3  C   LIG    1        6.633  -1.082  -1.520  0.00  0.00    +0.246 C 
ATOM      4  C   LIG    1        7.661  -2.147  -1.530  0.00  0.00    +0.073 C 
ATOM      5  C   LIG    1        7.005  -3.319  -1.530  0.00  0.00    +0.073 C 
ATOM      6  O   LIG    1        6.849   0.112  -1.521  0.00  0.00    -0.270 OA
ATOM      7  C   LIG    1        5.560  -3.001  -1.514  0.00  0.00    +0.246 C 
ATOM      8  O   LIG    1        4.655  -3.810  -1.509  0.00  0.00    -0.270 OA
ENDBRANCH   1   2
BRANCH   1   9
ATOM      9  C   LIG    1        3.711  -0.707  -0.039  0.00  0.00    +0.054 C 
BRANCH   9  13
ATOM     10  C   LIG    1       -0.017   1.378   0.010  0.00  0.00    +0.000 A 
ATOM     11  C   LIG    1        1.171   2.086   0.002  0.00  0.00    +0.000 A 
ATOM     12  C   LIG    1        2.377   1.411  -0.014  0.00  0.00    +0.004 A 
ATOM     13  C   LIG    1        2.396   0.029  -0.022  0.00  0.00    -0.046 A 
ATOM     14  C   LIG    1        1.208  -0.679  -0.014  0.00  0.00    +0.004 A 
ATOM     15  C   LIG    1        0.002  -0.004   0.002  0.00  0.00    +0.000 A 
ENDBRANCH   9  13
ENDBRANCH   1   9
TORSDOF 3
