REMARK  Name = ZINC00001219
REMARK                            x       y       z     vdW  Elec       q    Type
REMARK                         _______ _______ _______ _____ _____    ______ ____
ROOT
ATOM      1  C   LIG    1       -0.017   1.387   0.010  0.00  0.00    +0.046 A 
ATOM      2  C   LIG    1        1.165   2.095   0.002  0.00  0.00    +0.016 A 
ATOM      3  C   LIG    1        2.379   1.414  -0.013  0.00  0.00    +0.035 A 
ATOM      4  C   LIG    1        2.403   0.010  -0.021  0.00  0.00    +0.140 A 
ATOM      5  O   LIG    1        3.693  -0.391  -0.035  0.00  0.00    -0.454 OA
ATOM      6  C   LIG    1        4.533   0.655  -0.038  0.00  0.00    +0.154 A 
ATOM      7  C   LIG    1        5.997   0.772  -0.051  0.00  0.00    +0.061 A 
ATOM      8  C   LIG    1        6.809  -0.365  -0.065  0.00  0.00    +0.019 A 
ATOM      9  C   LIG    1        8.168  -0.229  -0.077  0.00  0.00    +0.046 A 
ATOM     10  C   LIG    1        8.749   1.036  -0.075  0.00  0.00    +0.120 A 
ATOM     11  C   LIG    1        7.958   2.173  -0.063  0.00  0.00    +0.092 A 
ATOM     12  C   LIG    1        6.576   2.054  -0.050  0.00  0.00    +0.146 A 
ATOM     13  O   LIG    1        5.795   3.156  -0.037  0.00  0.00    -0.421 OA
ATOM     14  C   LIG    1        4.454   3.079  -0.024  0.00  0.00    +0.349 A 
ATOM     15  O   LIG    1        3.797   4.104  -0.013  0.00  0.00    -0.244 OA
ATOM     16  C   LIG    1        1.204  -0.690  -0.013  0.00  0.00    +0.092 A 
ATOM     17  C   LIG    1        3.791   1.833  -0.024  0.00  0.00    +0.113 A 
ATOM     18  C   LIG    1        0.002  -0.004   0.002  0.00  0.00    +0.120 A 
ENDROOT
BRANCH  10  19
ATOM     19  O   LIG    1       10.101   1.156  -0.086  0.00  0.00    -0.507 OA
ATOM     20  H   LIG    1       10.485   1.196  -0.973  0.00  0.00    +0.292 HD
ENDBRANCH  10  19
BRANCH  18  21
ATOM     21  O   LIG    1       -1.169  -0.695   0.010  0.00  0.00    -0.507 OA
ATOM     22  H   LIG    1       -1.516  -0.890  -0.871  0.00  0.00    +0.292 HD
ENDBRANCH  18  21
TORSDOF 2
