REMARK  Name = ZINC00021246
REMARK                            x       y       z     vdW  Elec       q    Type
REMARK                         _______ _______ _______ _____ _____    ______ ____
ROOT
ATOM      1  C   LIG    1        5.740  -1.842  -1.482  0.00  0.00    +0.192 A 
ATOM      2  N   LIG    1        6.452  -2.241  -2.526  0.00  0.00    -0.207 NA
ATOM      3  C   LIG    1        7.603  -2.884  -2.356  0.00  0.00    +0.122 A 
ATOM      4  C   LIG    1        8.054  -3.135  -1.059  0.00  0.00    +0.083 A 
ATOM      5  C   LIG    1        7.281  -2.703   0.004  0.00  0.00    +0.135 A 
ATOM      6 CL   LIG    1        7.795  -2.990   1.637  0.00  0.00    -0.062 Cl
ATOM      7  N   LIG    1        6.145  -2.062  -0.239  0.00  0.00    -0.210 NA
ENDROOT
BRANCH   3   8
ATOM      8  N   LIG    1        8.344  -3.300  -3.450  0.00  0.00    -0.343 N 
ATOM      9  H   LIG    1        9.183  -3.768  -3.318  0.00  0.00    +0.144 HD
ATOM     10  H   LIG    1        8.024  -3.122  -4.348  0.00  0.00    +0.144 HD
ENDBRANCH   3   8
BRANCH   1  11
ATOM     11  S   LIG    1        4.221  -0.993  -1.752  0.00  0.00    -0.081 S 
BRANCH  11  12
ATOM     12  C   LIG    1        3.711  -0.707  -0.039  0.00  0.00    +0.112 C 
BRANCH  12  16
ATOM     13  C   LIG    1       -0.017   1.378   0.010  0.00  0.00    +0.000 A 
ATOM     14  C   LIG    1        1.171   2.086   0.002  0.00  0.00    +0.000 A 
ATOM     15  C   LIG    1        2.377   1.411  -0.014  0.00  0.00    +0.004 A 
ATOM     16  C   LIG    1        2.396   0.029  -0.022  0.00  0.00    -0.037 A 
ATOM     17  C   LIG    1        1.208  -0.679  -0.014  0.00  0.00    +0.004 A 
ATOM     18  C   LIG    1        0.002  -0.004   0.002  0.00  0.00    +0.000 A 
ENDBRANCH  12  16
ENDBRANCH  11  12
ENDBRANCH   1  11
TORSDOF 4
