REMARK  Name = ZINC00007037
REMARK                            x       y       z     vdW  Elec       q    Type
REMARK                         _______ _______ _______ _____ _____    ______ ____
ROOT
ATOM      1  C   LIG    1        1.216  -0.720  -0.013  0.00  0.00    +0.090 A 
ATOM      2  C   LIG    1        0.002  -0.004   0.002  0.00  0.00    +0.139 A 
ATOM      3  N   LIG    1       -0.016   1.304   0.009  0.00  0.00    -0.251 NA
ATOM      4  C   LIG    1        1.142   1.988   0.002  0.00  0.00    +0.090 A 
ATOM      5  C   LIG    1        1.146   3.381   0.009  0.00  0.00    +0.038 A 
ATOM      6  C   LIG    1        2.359   4.067   0.000  0.00  0.00    -0.016 A 
ATOM      7  C   LIG    1        2.398   5.478   0.007  0.00  0.00    +0.008 A 
ATOM      8  C   LIG    1        3.598   6.115  -0.002  0.00  0.00    +0.001 A 
ATOM      9  C   LIG    1        4.802   5.410  -0.017  0.00  0.00    +0.001 A 
ATOM     10  C   LIG    1        4.835   4.053  -0.024  0.00  0.00    +0.008 A 
ATOM     11  C   LIG    1        3.625   3.327  -0.016  0.00  0.00    -0.016 A 
ATOM     12  C   LIG    1        3.622   1.933  -0.023  0.00  0.00    +0.038 A 
ATOM     13  C   LIG    1        2.408   1.247  -0.014  0.00  0.00    +0.090 A 
ATOM     14  N   LIG    1        2.377  -0.095  -0.021  0.00  0.00    -0.244 NA
ENDROOT
BRANCH   1  18
ATOM     15  C   LIG    1        1.133  -4.970  -0.034  0.00  0.00    +0.000 A 
ATOM     16  C   LIG    1       -0.049  -4.257  -0.123  0.00  0.00    +0.001 A 
ATOM     17  C   LIG    1       -0.029  -2.877  -0.117  0.00  0.00    +0.010 A 
ATOM     18  C   LIG    1        1.187  -2.201  -0.021  0.00  0.00    +0.002 A 
ATOM     19  C   LIG    1        2.376  -2.925   0.064  0.00  0.00    +0.010 A 
ATOM     20  C   LIG    1        2.343  -4.305   0.062  0.00  0.00    +0.001 A 
ENDBRANCH   1  18
TORSDOF 1
