REMARK  Name = ZINC00009090
REMARK                            x       y       z     vdW  Elec       q    Type
REMARK                         _______ _______ _______ _____ _____    ______ ____
ROOT
ATOM      1  C   LIG    1        6.030   2.007  -0.138  0.00  0.00    +0.056 A 
ATOM      2  C   LIG    1        6.036   3.391  -0.118  0.00  0.00    +0.045 A 
ATOM      3  C   LIG    1        7.229   4.091  -0.217  0.00  0.00    +0.043 A 
ATOM      4 CL   LIG    1        7.218   5.827  -0.191  0.00  0.00    -0.083 Cl
ATOM      5  C   LIG    1        8.425   3.414  -0.338  0.00  0.00    +0.026 A 
ATOM      6  C   LIG    1        8.436   2.019  -0.359  0.00  0.00    -0.018 A 
ATOM      7  C   LIG    1        9.506   1.016  -0.473  0.00  0.00    +0.043 C 
ATOM      8  C   LIG    1       10.893   1.073  -0.600  0.00  0.00    +0.025 C 
ATOM      9  C   LIG    1       11.601  -0.108  -0.683  0.00  0.00    +0.081 C 
ATOM     10  N   LIG    1       10.983  -1.275  -0.643  0.00  0.00    -0.314 NA
ATOM     11  H   LIG    1       11.513  -2.086  -0.704  0.00  0.00    +0.122 HD
ATOM     12  C   LIG    1        9.678  -1.380  -0.502  0.00  0.00    +0.103 C 
ATOM     13  C   LIG    1        8.883  -0.243  -0.418  0.00  0.00    +0.092 C 
ATOM     14  N   LIG    1        7.521  -0.048  -0.294  0.00  0.00    -0.338 N 
ATOM     15  H   LIG    1        6.862  -0.757  -0.243  0.00  0.00    +0.146 HD
ATOM     16  C   LIG    1        7.234   1.306  -0.254  0.00  0.00    +0.053 A 
ENDROOT
BRANCH   1  18
ATOM     17  C   LIG    1        3.759   1.885   0.562  0.00  0.00    +0.250 C 
ATOM     18  N   LIG    1        4.821   1.310  -0.037  0.00  0.00    -0.280 N 
ATOM     19  H   LIG    1        4.746   0.413  -0.399  0.00  0.00    +0.155 HD
ATOM     20  O   LIG    1        3.879   2.967   1.103  0.00  0.00    -0.270 OA
BRANCH  17  23
ATOM     21  C   LIG    1        0.135   1.106   1.150  0.00  0.00    +0.020 A 
ATOM     22  C   LIG    1        1.339   1.788   1.180  0.00  0.00    +0.016 A 
ATOM     23  C   LIG    1        2.449   1.201   0.561  0.00  0.00    +0.055 A 
ATOM     24  C   LIG    1        2.298  -0.041  -0.058  0.00  0.00    +0.123 A 
ATOM     25  N   LIG    1        1.131  -0.650  -0.059  0.00  0.00    -0.263 NA
ATOM     26  C   LIG    1        0.068  -0.121   0.516  0.00  0.00    +0.111 A 
ENDBRANCH  17  23
ENDBRANCH   1  18
TORSDOF 2
