REMARK  Name = ZINC00020920
REMARK                            x       y       z     vdW  Elec       q    Type
REMARK                         _______ _______ _______ _____ _____    ______ ____
ROOT
ATOM      1  C   LIG    1        5.695  -1.817  -3.085  0.00  0.00    +0.048 A 
ATOM      2  C   LIG    1        4.866  -1.478  -4.143  0.00  0.00    +0.042 A 
ATOM      3  C   LIG    1        5.297  -1.710  -5.459  0.00  0.00    +0.072 A 
ATOM      4  N   LIG    1        6.470  -2.252  -5.717  0.00  0.00    -0.247 NA
ATOM      5  C   LIG    1        7.311  -2.604  -4.743  0.00  0.00    +0.072 A 
ATOM      6  C   LIG    1        8.559  -3.183  -5.040  0.00  0.00    +0.028 A 
ATOM      7  C   LIG    1        9.399  -3.534  -4.029  0.00  0.00    +0.002 A 
ATOM      8  C   LIG    1        9.043  -3.331  -2.697  0.00  0.00    +0.001 A 
ATOM      9  C   LIG    1        7.843  -2.774  -2.371  0.00  0.00    +0.011 A 
ATOM     10  C   LIG    1        6.954  -2.399  -3.386  0.00  0.00    +0.013 A 
ENDROOT
BRANCH   3  11
ATOM     11  C   LIG    1        4.407  -1.341  -6.587  0.00  0.00    +0.000 A 
ATOM     12  C   LIG    1        3.159  -0.772  -6.336  0.00  0.00    +0.010 A 
ATOM     13  C   LIG    1        2.338  -0.425  -7.389  0.00  0.00    +0.001 A 
ATOM     14  C   LIG    1        2.745  -0.651  -8.691  0.00  0.00    +0.000 A 
ATOM     15  C   LIG    1        3.980  -1.221  -8.946  0.00  0.00    +0.001 A 
ATOM     16  C   LIG    1        4.812  -1.566  -7.901  0.00  0.00    +0.010 A 
ENDBRANCH   3  11
BRANCH   1  19
ATOM     17  N   LIG    1        4.130  -0.928  -1.424  0.00  0.00    -0.307 N 
ATOM     18  H   LIG    1        3.577  -0.609  -2.155  0.00  0.00    +0.149 HD
ATOM     19  C   LIG    1        5.278  -1.584  -1.685  0.00  0.00    +0.245 C 
ATOM     20  O   LIG    1        5.971  -1.983  -0.770  0.00  0.00    -0.270 OA
BRANCH  17  21
ATOM     21  C   LIG    1        3.717  -0.697  -0.038  0.00  0.00    +0.139 C 
BRANCH  21  25
ATOM     22  C   LIG    1        0.009   1.423   0.010  0.00  0.00    +0.000 A 
ATOM     23  C   LIG    1        1.203   2.120   0.006  0.00  0.00    +0.000 A 
ATOM     24  C   LIG    1        2.403   1.433  -0.010  0.00  0.00    +0.005 A 
ATOM     25  C   LIG    1        2.409   0.051  -0.021  0.00  0.00    -0.030 A 
ATOM     26  C   LIG    1        1.214  -0.645  -0.018  0.00  0.00    +0.005 A 
ATOM     27  C   LIG    1        0.015   0.041  -0.002  0.00  0.00    +0.000 A 
ENDBRANCH  21  25
ENDBRANCH  17  21
ENDBRANCH   1  19
TORSDOF 4
