REMARK  Name = ZINC00037184
REMARK                            x       y       z     vdW  Elec       q    Type
REMARK                         _______ _______ _______ _____ _____    ______ ____
ROOT
ATOM      1  C   LIG    1        1.383   4.280   0.011  0.00  0.00    +0.279 C 
ATOM      2  N   LIG    1        0.596   3.186   0.037  0.00  0.00    -0.202 N 
ATOM      3  C   LIG    1       -0.766   3.176   0.059  0.00  0.00    +0.137 A 
ATOM      4  C   LIG    1       -1.164   1.885   0.075  0.00  0.00    +0.079 A 
ATOM      5 CL   LIG    1       -2.807   1.323   0.099  0.00  0.00    -0.080 Cl
ATOM      6  C   LIG    1       -0.017   1.078   0.071  0.00  0.00    +0.154 A 
ATOM      7  N   LIG    1        1.034   1.855   0.045  0.00  0.00    -0.171 NA
ATOM      8  O   LIG    1        0.885   5.384  -0.093  0.00  0.00    -0.265 OA
ENDROOT
BRANCH   1  15
ATOM      9  C   LIG    1        3.432   2.869   0.102  0.00  0.00    +0.016 A 
ATOM     10  C   LIG    1        4.801   2.743   0.186  0.00  0.00    +0.039 A 
ATOM     11  C   LIG    1        5.599   3.872   0.288  0.00  0.00    +0.123 A 
ATOM     12  F   LIG    1        6.941   3.743   0.376  0.00  0.00    -0.205 F 
ATOM     13  C   LIG    1        5.025   5.135   0.300  0.00  0.00    +0.039 A 
ATOM     14  C   LIG    1        3.657   5.273   0.210  0.00  0.00    +0.016 A 
ATOM     15  C   LIG    1        2.848   4.139   0.107  0.00  0.00    +0.041 A 
ENDBRANCH   1  15
TORSDOF 1
