REMARK  Name = ZINC00049435
REMARK                            x       y       z     vdW  Elec       q    Type
REMARK                         _______ _______ _______ _____ _____    ______ ____
ROOT
ATOM      1  C   LIG    1        9.364  -3.869  -0.106  0.00  0.00    +0.001 A 
ATOM      2  C   LIG    1       10.221  -2.785  -0.108  0.00  0.00    +0.001 A 
ATOM      3  C   LIG    1        9.715  -1.496  -0.098  0.00  0.00    +0.012 A 
ATOM      4  C   LIG    1        8.341  -1.291  -0.084  0.00  0.00    +0.032 A 
ATOM      5  C   LIG    1        7.468  -2.393  -0.082  0.00  0.00    +0.014 A 
ATOM      6  C   LIG    1        6.069  -1.894  -0.066  0.00  0.00    +0.105 A 
ATOM      7  C   LIG    1        6.099  -0.487  -0.059  0.00  0.00    +0.052 A 
ATOM      8  C   LIG    1        4.893   0.201  -0.044  0.00  0.00    +0.045 A 
ATOM      9  C   LIG    1        3.713  -0.559  -0.036  0.00  0.00    +0.112 A 
ATOM     10  N   LIG    1        3.785  -1.883  -0.039  0.00  0.00    -0.147 NA
ATOM     11  N   LIG    1        4.899  -2.518  -0.059  0.00  0.00    -0.148 NA
ATOM     12  C   LIG    1        7.517  -0.058  -0.070  0.00  0.00    +0.196 C 
ATOM     13  O   LIG    1        7.926   1.085  -0.067  0.00  0.00    -0.287 OA
ATOM     14  C   LIG    1        7.991  -3.679  -0.093  0.00  0.00    +0.011 A 
ENDROOT
BRANCH   9  15
ATOM     15  C   LIG    1        2.393   0.115  -0.020  0.00  0.00    +0.091 A 
ATOM     16  C   LIG    1        1.227  -0.648  -0.013  0.00  0.00    +0.030 A 
ATOM     17  C   LIG    1        0.002  -0.004   0.002  0.00  0.00    +0.004 A 
ATOM     18  C   LIG    1       -0.017   1.383   0.010  0.00  0.00    +0.020 A 
ATOM     19  C   LIG    1        1.179   2.078   0.002  0.00  0.00    +0.111 A 
ATOM     20  N   LIG    1        2.332   1.441  -0.012  0.00  0.00    -0.253 NA
ENDBRANCH   9  15
TORSDOF 1
