REMARK  Name = ZINC00057530
REMARK                            x       y       z     vdW  Elec       q    Type
REMARK                         _______ _______ _______ _____ _____    ______ ____
ROOT
ATOM      1  C   LIG    1       -5.449  -2.862  -1.404  0.00  0.00    -0.036 C 
ATOM      2  C   LIG    1       -6.714  -3.679  -1.393  0.00  0.00    -0.054 A 
ATOM      3  C   LIG    1       -6.811  -4.734  -0.497  0.00  0.00    +0.051 A 
ATOM      4  C   LIG    1       -7.954  -5.513  -0.454  0.00  0.00    +0.162 A 
ATOM      5  C   LIG    1       -9.011  -5.235  -1.315  0.00  0.00    +0.162 A 
ATOM      6  C   LIG    1       -8.911  -4.181  -2.206  0.00  0.00    +0.053 A 
ATOM      7  C   LIG    1       -7.764  -3.403  -2.244  0.00  0.00    -0.044 A 
ATOM      8  C   LIG    1       -7.700  -2.260  -3.224  0.00  0.00    +0.016 C 
ATOM      9  C   LIG    1       -6.251  -1.800  -3.390  0.00  0.00    -0.077 C 
ATOM     10  N   LIG    1       -5.677  -1.569  -2.056  0.00  0.00    +0.384 N 
ATOM     11  H   LIG    1       -4.801  -1.077  -2.146  0.00  0.00    -0.085 HD
ATOM     12  H   LIG    1       -6.319  -1.020  -1.502  0.00  0.00    -0.085 HD
ENDROOT
BRANCH   4  13
ATOM     13  O   LIG    1       -8.043  -6.546   0.426  0.00  0.00    -0.491 OA
ATOM     14  C   LIG    1       -6.919  -6.771   1.279  0.00  0.00    +0.277 C 
ENDBRANCH   4  13
BRANCH   5  15
ATOM     15  O   LIG    1      -10.138  -5.996  -1.282  0.00  0.00    -0.491 OA
ATOM     16  C   LIG    1      -11.181  -5.651  -2.195  0.00  0.00    +0.277 C 
ENDBRANCH   5  15
BRANCH   1  17
ATOM     17  C   LIG    1       -4.987  -2.627   0.035  0.00  0.00    +0.024 C 
BRANCH  17  21
ATOM     18  C   LIG    1       -1.201  -0.638   0.010  0.00  0.00    +0.161 A 
ATOM     19  C   LIG    1       -2.374   0.099   0.019  0.00  0.00    +0.049 A 
ATOM     20  C   LIG    1       -3.596  -0.546   0.027  0.00  0.00    +0.007 A 
ATOM     21  C   LIG    1       -3.652  -1.928   0.026  0.00  0.00    -0.045 A 
ATOM     22  C   LIG    1       -2.485  -2.669   0.017  0.00  0.00    +0.053 A 
ATOM     23  C   LIG    1       -1.257  -2.028   0.003  0.00  0.00    +0.162 A 
BRANCH  18  25
ATOM     24  C   LIG    1       -0.017   1.425   0.010  0.00  0.00    +0.277 C 
ATOM     25  O   LIG    1        0.002  -0.004   0.002  0.00  0.00    -0.491 OA
ENDBRANCH  18  25
BRANCH  23  26
ATOM     26  O   LIG    1       -0.108  -2.756  -0.012  0.00  0.00    -0.491 OA
ATOM     27  C   LIG    1       -0.242  -4.179  -0.018  0.00  0.00    +0.277 C 
ENDBRANCH  23  26
ENDBRANCH  17  21
ENDBRANCH   1  17
TORSDOF 6
