REMARK  Name = ZINC00020240
REMARK                            x       y       z     vdW  Elec       q    Type
REMARK                         _______ _______ _______ _____ _____    ______ ____
ROOT
ATOM      1  C   LIG    1       -4.147  -0.362  -2.571  0.00  0.00    +0.258 C 
ENDROOT
BRANCH   1   2
ATOM      2  C   LIG    1       -3.485  -0.656  -1.224  0.00  0.00    +0.135 C 
BRANCH   2   3
ATOM      3  O   LIG    1       -4.222  -0.014  -0.181  0.00  0.00    -0.390 OA
ATOM      4  H   LIG    1       -4.273   0.948  -0.270  0.00  0.00    +0.210 HD
ENDBRANCH   2   3
BRANCH   2   5
ATOM      5  C   LIG    1       -2.050  -0.126  -1.234  0.00  0.00    -0.047 C 
BRANCH   5   6
ATOM      6  N   LIG    1       -1.376  -0.512   0.012  0.00  0.00    +0.382 N 
ATOM      7  H   LIG    1       -1.873  -0.121   0.799  0.00  0.00    -0.085 HD
ATOM      8  H   LIG    1       -1.363  -1.518   0.090  0.00  0.00    -0.085 HD
BRANCH   6  10
ATOM      9  C   LIG    1       -0.019   1.526   0.010  0.00  0.00    -0.014 C 
ATOM     10  C   LIG    1        0.002  -0.004   0.002  0.00  0.00    -0.078 C 
ATOM     11  C   LIG    1        0.742  -0.511   1.242  0.00  0.00    -0.014 C 
ENDBRANCH   6  10
ENDBRANCH   5   6
ENDBRANCH   2   5
ENDBRANCH   1   2
BRANCH   1  12
ATOM     12  O   LIG    1       -5.446  -0.958  -2.604  0.00  0.00    -0.489 OA
BRANCH  12  13
ATOM     13  C   LIG    1       -6.173  -0.790  -3.739  0.00  0.00    +0.128 A 
ATOM     14  C   LIG    1       -5.657  -0.083  -4.788  0.00  0.00    +0.046 A 
ATOM     15  C   LIG    1       -6.389   0.097  -5.958  0.00  0.00    +0.004 A 
ATOM     16  C   LIG    1       -7.640  -0.424  -6.091  0.00  0.00    +0.009 A 
ATOM     17  C   LIG    1       -8.206  -1.158  -5.035  0.00  0.00    -0.014 A 
ATOM     18  C   LIG    1       -9.495  -1.710  -5.139  0.00  0.00    +0.008 A 
ATOM     19  C   LIG    1      -10.005  -2.428  -4.101  0.00  0.00    +0.001 A 
ATOM     20  C   LIG    1       -9.275  -2.611  -2.928  0.00  0.00    +0.001 A 
ATOM     21  C   LIG    1       -8.027  -2.086  -2.790  0.00  0.00    +0.012 A 
ATOM     22  C   LIG    1       -7.463  -1.349  -3.844  0.00  0.00    +0.024 A 
ENDBRANCH  12  13
ENDBRANCH   1  12
TORSDOF 7
