REMARK  Name = ZINC00020242
REMARK                            x       y       z     vdW  Elec       q    Type
REMARK                         _______ _______ _______ _____ _____    ______ ____
ROOT
ATOM      1  C   LIG    1        2.875  -2.800   3.400  0.00  0.00    +0.007 C 
ATOM      2  C   LIG    1        2.541  -3.595   2.136  0.00  0.00    -0.017 C 
ATOM      3  C   LIG    1        2.443  -2.646   0.942  0.00  0.00    -0.060 C 
ATOM      4  N   LIG    1        1.376  -1.644   1.142  0.00  0.00    +0.384 N 
ATOM      5  H   LIG    1        1.594  -1.095   1.982  0.00  0.00    -0.081 HD
ATOM      6  C   LIG    1        0.060  -2.304   1.336  0.00  0.00    -0.077 C 
ATOM      7  C   LIG    1        0.146  -3.192   2.603  0.00  0.00    -0.007 C 
ATOM      8  C   LIG    1        2.291  -3.459  -0.332  0.00  0.00    +0.020 C 
ATOM      9  C   LIG    1        1.304  -4.583  -0.170  0.00  0.00    -0.045 A 
ATOM     10  C   LIG    1        0.880  -5.240  -1.320  0.00  0.00    +0.007 A 
ATOM     11  C   LIG    1       -0.012  -6.288  -1.242  0.00  0.00    +0.045 A 
ATOM     12  C   LIG    1       -0.492  -6.695  -0.006  0.00  0.00    +0.117 A 
ATOM     13  C   LIG    1       -0.075  -6.038   1.140  0.00  0.00    +0.049 A 
ATOM     14  C   LIG    1        0.816  -4.979   1.055  0.00  0.00    -0.035 A 
ATOM     15  C   LIG    1        1.203  -4.278   2.336  0.00  0.00    -0.007 C 
ATOM     16  C   LIG    1        1.257  -5.272   3.498  0.00  0.00    +0.016 C 
ENDROOT
BRANCH  12  17
ATOM     17  O   LIG    1       -1.367  -7.731   0.080  0.00  0.00    -0.507 OA
ATOM     18  H   LIG    1       -2.296  -7.467   0.028  0.00  0.00    +0.292 HD
ENDBRANCH  12  17
BRANCH   4  19
ATOM     19  C   LIG    1        1.317  -0.740  -0.015  0.00  0.00    -0.051 C 
BRANCH  19  20
ATOM     20  C   LIG    1        0.142   0.189   0.156  0.00  0.00    -0.047 C 
ATOM     21  C   LIG    1        0.326   1.486   0.144  0.00  0.00    -0.081 C 
ATOM     22  C   LIG    1       -0.850   2.414   0.308  0.00  0.00    +0.038 C 
ATOM     23  C   LIG    1        1.711   2.050  -0.041  0.00  0.00    +0.038 C 
ENDBRANCH  19  20
ENDBRANCH   4  19
TORSDOF 3
