REMARK  Name = ZINC00012514
REMARK                            x       y       z     vdW  Elec       q    Type
REMARK                         _______ _______ _______ _____ _____    ______ ____
ROOT
ATOM      1  C   LIG    1        7.567   3.196   2.666  0.00  0.00    +0.136 C 
ATOM      2  C   LIG    1        8.170   3.396   3.890  0.00  0.00    +0.034 C 
ENDROOT
BRANCH   2   3
ATOM      3  C   LIG    1        9.580   3.785   3.957  0.00  0.00    -0.020 A 
ATOM      4  C   LIG    1       10.391   3.315   5.001  0.00  0.00    +0.012 A 
ATOM      5  C   LIG    1       11.716   3.682   5.060  0.00  0.00    +0.050 A 
ATOM      6  C   LIG    1       12.254   4.518   4.089  0.00  0.00    +0.158 A 
ATOM      7  C   LIG    1       11.454   4.990   3.047  0.00  0.00    +0.159 A 
ATOM      8  C   LIG    1       10.126   4.624   2.975  0.00  0.00    +0.057 A 
BRANCH   6   9
ATOM      9  O   LIG    1       13.561   4.876   4.154  0.00  0.00    -0.503 OA
ATOM     10  H   LIG    1       14.158   4.276   3.687  0.00  0.00    +0.292 HD
ENDBRANCH   6   9
BRANCH   7  11
ATOM     11  O   LIG    1       11.986   5.808   2.100  0.00  0.00    -0.503 OA
ATOM     12  H   LIG    1       12.358   5.340   1.340  0.00  0.00    +0.292 HD
ENDBRANCH   7  11
ENDBRANCH   2   3
BRANCH   1  13
ATOM     13  C   LIG    1        6.117   2.971   2.589  0.00  0.00    +0.350 C 
ATOM     14  O   LIG    1        5.449   2.961   3.605  0.00  0.00    -0.244 OA
BRANCH  13  15
ATOM     15  O   LIG    1        5.528   2.776   1.392  0.00  0.00    -0.460 OA
BRANCH  15  16
ATOM     16  C   LIG    1        4.115   2.563   1.392  0.00  0.00    +0.237 C 
BRANCH  16  17
ATOM     17  C   LIG    1        3.630   2.362  -0.045  0.00  0.00    +0.083 C 
BRANCH  17  20
ATOM     18  C   LIG    1       -0.171   2.608  -0.118  0.00  0.00    +0.008 A 
ATOM     19  C   LIG    1        1.139   3.048  -0.138  0.00  0.00    +0.011 A 
ATOM     20  C   LIG    1        2.140   2.138  -0.046  0.00  0.00    -0.007 A 
ATOM     21  S   LIG    1        1.234   0.604   0.075  0.00  0.00    -0.101 S 
ATOM     22  C   LIG    1       -0.417   1.279  -0.006  0.00  0.00    +0.045 A 
ENDBRANCH  17  20
ENDBRANCH  16  17
ENDBRANCH  15  16
ENDBRANCH  13  15
ENDBRANCH   1  13
BRANCH   1  23
ATOM     23  C   LIG    1        8.355   3.209   1.470  0.00  0.00    +0.106 C 
ATOM     24  N   LIG    1        8.979   3.219   0.521  0.00  0.00    -0.191 NA
ENDBRANCH   1  23
TORSDOF 9
