REMARK  Name = ZINC00058081
REMARK                            x       y       z     vdW  Elec       q    Type
REMARK                         _______ _______ _______ _____ _____    ______ ____
ROOT
ATOM      1  C   LIG    1        2.396   0.122  -0.020  0.00  0.00    +0.139 A 
ATOM      2  C   LIG    1        1.267  -0.637  -0.013  0.00  0.00    +0.098 A 
ATOM      3  C   LIG    1        0.002  -0.004   0.002  0.00  0.00    +0.193 A 
ATOM      4  C   LIG    1       -0.018   1.472   0.010  0.00  0.00    +0.065 A 
ATOM      5  C   LIG    1       -1.218   2.181   0.031  0.00  0.00    +0.030 A 
ATOM      6  C   LIG    1       -1.194   3.559   0.032  0.00  0.00    +0.019 A 
ATOM      7 BR   LIG    1       -2.817   4.529   0.052  0.00  0.00    -0.050 Br
ATOM      8  C   LIG    1        0.017   4.238   0.025  0.00  0.00    +0.019 A 
ATOM      9  C   LIG    1        1.210   3.548   0.010  0.00  0.00    +0.048 A 
ATOM     10  C   LIG    1        1.207   2.158   0.002  0.00  0.00    +0.139 A 
ATOM     11  O   LIG    1       -1.031  -0.652   0.008  0.00  0.00    -0.287 OA
ATOM     12  O   LIG    1        2.364   1.464  -0.012  0.00  0.00    -0.455 OA
ENDROOT
BRANCH   1  16
ATOM     13  C   LIG    1        6.167  -1.828  -0.066  0.00  0.00    +0.000 A 
ATOM     14  C   LIG    1        6.107  -0.446  -0.058  0.00  0.00    +0.001 A 
ATOM     15  C   LIG    1        4.885   0.194  -0.043  0.00  0.00    +0.011 A 
ATOM     16  C   LIG    1        3.707  -0.556  -0.036  0.00  0.00    +0.017 A 
ATOM     17  C   LIG    1        3.776  -1.951  -0.039  0.00  0.00    +0.011 A 
ATOM     18  C   LIG    1        5.004  -2.578  -0.059  0.00  0.00    +0.001 A 
ENDBRANCH   1  16
TORSDOF 1
