REMARK  Name = ZINC00037160
REMARK                            x       y       z     vdW  Elec       q    Type
REMARK                         _______ _______ _______ _____ _____    ______ ____
ROOT
ATOM      1  C   LIG    1        1.177   1.781  -0.033  0.00  0.00    +0.003 A 
ATOM      2  C   LIG    1        1.166   3.160  -0.025  0.00  0.00    +0.013 A 
ATOM      3  C   LIG    1       -0.050   3.845   0.023  0.00  0.00    +0.043 A 
ATOM      4  C   LIG    1       -1.248   3.127   0.063  0.00  0.00    +0.046 A 
ATOM      5  C   LIG    1       -1.222   1.748   0.050  0.00  0.00    +0.122 A 
ATOM      6  C   LIG    1       -0.013   1.076   0.007  0.00  0.00    +0.032 A 
ENDROOT
BRANCH   3   7
ATOM      7  C   LIG    1       -0.070   5.322   0.031  0.00  0.00    +0.279 C 
ATOM      8  N   LIG    1        1.084   6.011   0.125  0.00  0.00    -0.202 N 
ATOM      9  C   LIG    1        1.205   7.363   0.239  0.00  0.00    +0.137 A 
ATOM     10  C   LIG    1        2.524   7.650   0.306  0.00  0.00    +0.079 A 
ATOM     11 CL   LIG    1        3.218   9.235   0.457  0.00  0.00    -0.080 Cl
ATOM     12  C   LIG    1        3.234   6.443   0.231  0.00  0.00    +0.154 A 
ATOM     13  N   LIG    1        2.374   5.464   0.129  0.00  0.00    -0.171 NA
ATOM     14  O   LIG    1       -1.127   5.915  -0.048  0.00  0.00    -0.265 OA
ENDBRANCH   3   7
BRANCH   5  15
ATOM     15  N   LIG    1       -2.490   0.985   0.086  0.00  0.00    +0.006 N 
ATOM     16  O   LIG    1       -2.468  -0.233   0.079  0.00  0.00    -0.130 OA
BRANCH  15  17
ATOM     17  O   LIG    1       -3.554   1.575   0.123  0.00  0.00    -0.396 OA
ATOM     18  H   LIG    1       -3.571   2.512   0.128  0.00  0.00    +0.329 HD
ENDBRANCH  15  17
ENDBRANCH   5  15
TORSDOF 3
