REMARK  Name = ZINC00001187
REMARK                            x       y       z     vdW  Elec       q    Type
REMARK                         _______ _______ _______ _____ _____    ______ ____
ROOT
ATOM      1  O   LIG    1        0.822  -0.653  -0.999  0.00  0.00    -0.475 OA
ENDROOT
BRANCH   1   2
ATOM      2  C   LIG    1        2.157  -0.400  -0.960  0.00  0.00    +0.122 A 
ATOM      3  C   LIG    1        2.663   0.522  -0.055  0.00  0.00    +0.047 A 
ATOM      4  C   LIG    1        4.020   0.778  -0.017  0.00  0.00    +0.023 A 
ATOM      5  C   LIG    1        4.875   0.116  -0.881  0.00  0.00    +0.041 A 
ATOM      6 CL   LIG    1        6.579   0.440  -0.832  0.00  0.00    -0.084 Cl
ATOM      7  C   LIG    1        4.372  -0.804  -1.784  0.00  0.00    +0.023 A 
ATOM      8  C   LIG    1        3.016  -1.067  -1.821  0.00  0.00    +0.047 A 
ENDBRANCH   1   2
BRANCH   1  10
ATOM      9  C   LIG    1       -1.477  -0.252  -0.371  0.00  0.00    +0.067 C 
ATOM     10  C   LIG    1       -0.017   0.161  -0.177  0.00  0.00    +0.200 C 
ATOM     11  C   LIG    1        0.154   1.630  -0.571  0.00  0.00    +0.067 C 
BRANCH  10  12
ATOM     12  C   LIG    1        0.369  -0.019   1.269  0.00  0.00    +0.348 C 
ATOM     13  O   LIG    1        1.278  -0.774   1.568  0.00  0.00    -0.247 OA
BRANCH  12  14
ATOM     14  O   LIG    1       -0.228   0.591   2.139  0.00  0.00    -0.478 OA
ATOM     15  H   LIG    1       -0.927   1.172   1.909  0.00  0.00    +0.295 HD
ENDBRANCH  12  14
ENDBRANCH  10  12
ENDBRANCH   1  10
TORSDOF 4
