REMARK  Name = ZINC00001408
REMARK                            x       y       z     vdW  Elec       q    Type
REMARK                         _______ _______ _______ _____ _____    ______ ____
ROOT
ATOM      1  C   LIG    1        1.497  -2.371   2.468  0.00  0.00    +0.147 A 
ATOM      2  C   LIG    1        1.693  -3.695   2.750  0.00  0.00    +0.145 A 
ATOM      3  N   LIG    1        2.368  -3.771   3.897  0.00  0.00    -0.243 NA
ATOM      4  C   LIG    1        2.606  -2.566   4.349  0.00  0.00    +0.200 A 
ATOM      5  N   LIG    1        2.092  -1.664   3.496  0.00  0.00    -0.318 N 
ENDROOT
BRANCH   1   6
ATOM      6  C   LIG    1        0.801  -1.814   1.305  0.00  0.00    +0.357 C 
ATOM      7  O   LIG    1        0.321  -2.557   0.470  0.00  0.00    -0.243 OA
BRANCH   6   8
ATOM      8  O   LIG    1        0.693  -0.477   1.160  0.00  0.00    -0.460 OA
BRANCH   8  10
ATOM      9  C   LIG    1       -0.019   1.526   0.010  0.00  0.00    +0.048 C 
ATOM     10  C   LIG    1        0.002  -0.004   0.002  0.00  0.00    +0.229 C 
ENDBRANCH   8  10
ENDBRANCH   6   8
ENDBRANCH   1   6
BRANCH   5  11
ATOM     11  C   LIG    1        2.148  -0.206   3.631  0.00  0.00    +0.116 C 
ATOM     12  C   LIG    1        3.608   0.247   3.661  0.00  0.00    +0.036 C 
BRANCH  11  13
ATOM     13  C   LIG    1        1.467   0.206   4.911  0.00  0.00    -0.025 A 
ATOM     14  C   LIG    1        1.940  -0.256   6.125  0.00  0.00    +0.005 A 
ATOM     15  C   LIG    1        1.316   0.122   7.299  0.00  0.00    +0.000 A 
ATOM     16  C   LIG    1        0.219   0.962   7.259  0.00  0.00    +0.000 A 
ATOM     17  C   LIG    1       -0.254   1.425   6.045  0.00  0.00    +0.000 A 
ATOM     18  C   LIG    1        0.373   1.050   4.871  0.00  0.00    +0.005 A 
ENDBRANCH  11  13
ENDBRANCH   5  11
TORSDOF 5
