REMARK  Name = ZINC00057479
REMARK                            x       y       z     vdW  Elec       q    Type
REMARK                         _______ _______ _______ _____ _____    ______ ____
ROOT
ATOM      1  C   LIG    1        1.286   1.562  -0.002  0.00  0.00    +0.213 C 
ENDROOT
BRANCH   1   5
ATOM      2  C   LIG    1        0.168  -0.823  -3.365  0.00  0.00    +0.000 A 
ATOM      3  C   LIG    1       -0.519  -0.945  -2.172  0.00  0.00    +0.000 A 
ATOM      4  C   LIG    1       -0.158  -0.173  -1.083  0.00  0.00    +0.007 A 
ATOM      5  C   LIG    1        0.892   0.720  -1.188  0.00  0.00    -0.001 A 
ATOM      6  C   LIG    1        1.576   0.846  -2.383  0.00  0.00    +0.007 A 
ATOM      7  C   LIG    1        1.217   0.071  -3.470  0.00  0.00    +0.000 A 
ENDBRANCH   1   5
BRANCH   1   8
ATOM      8  C   LIG    1        1.078   3.018  -0.328  0.00  0.00    -0.001 A 
ATOM      9  C   LIG    1        1.972   3.677  -1.151  0.00  0.00    +0.007 A 
ATOM     10  C   LIG    1        1.778   5.012  -1.453  0.00  0.00    +0.000 A 
ATOM     11  C   LIG    1        0.696   5.691  -0.925  0.00  0.00    +0.000 A 
ATOM     12  C   LIG    1       -0.195   5.033  -0.098  0.00  0.00    +0.000 A 
ATOM     13  C   LIG    1       -0.004   3.697   0.201  0.00  0.00    +0.007 A 
ENDBRANCH   1   8
BRANCH   1  14
ATOM     14  O   LIG    1        0.481   1.205   1.124  0.00  0.00    -0.370 OA
ATOM     15  H   LIG    1        0.565   0.280   1.390  0.00  0.00    +0.212 HD
ENDBRANCH   1  14
BRANCH   1  16
ATOM     16  C   LIG    1        2.738   1.323   0.323  0.00  0.00    +0.349 C 
ATOM     17  O   LIG    1        3.495   0.941  -0.538  0.00  0.00    -0.247 OA
BRANCH  16  18
ATOM     18  O   LIG    1        3.191   1.533   1.569  0.00  0.00    -0.460 OA
BRANCH  18  19
ATOM     19  C   LIG    1        4.600   1.282   1.810  0.00  0.00    +0.163 C 
ATOM     20  C   LIG    1        4.796  -0.174   2.243  0.00  0.00    -0.033 C 
ATOM     21  N   LIG    1        5.401  -0.235   3.591  0.00  0.00    +0.382 N 
ATOM     22  H   LIG    1        5.521  -1.219   3.858  0.00  0.00    -0.082 HD
ATOM     23  C   LIG    1        4.514   0.424   4.574  0.00  0.00    -0.078 C 
ATOM     24  C   LIG    1        4.311   1.896   4.207  0.00  0.00    -0.012 C 
ATOM     25  C   LIG    1        6.724   0.425   3.582  0.00  0.00    -0.078 C 
ATOM     26  C   LIG    1        6.584   1.900   3.185  0.00  0.00    -0.012 C 
ATOM     27  C   LIG    1        5.103   2.205   2.928  0.00  0.00    +0.024 C 
ENDBRANCH  18  19
ENDBRANCH  16  18
ENDBRANCH   1  16
TORSDOF 6
