REMARK  Name = ZINC00001267
REMARK                            x       y       z     vdW  Elec       q    Type
REMARK                         _______ _______ _______ _____ _____    ______ ____
ROOT
ATOM      1  C   LIG    1       -1.244  -2.135   0.003  0.00  0.00    +0.114 C 
ENDROOT
BRANCH   1   2
ATOM      2  C   LIG    1       -0.528  -2.655   1.251  0.00  0.00    -0.054 C 
ATOM      3  C   LIG    1        0.893  -2.091   1.295  0.00  0.00    -0.015 C 
ATOM      4  C   LIG    1        1.606  -2.613   2.546  0.00  0.00    -0.003 C 
ATOM      5  C   LIG    1        1.590  -4.144   2.529  0.00  0.00    -0.019 C 
ATOM      6  C   LIG    1        0.142  -4.633   2.439  0.00  0.00    -0.082 C 
ATOM      7  N   LIG    1       -0.474  -4.121   1.209  0.00  0.00    +0.382 N 
ATOM      8  H   LIG    1        0.072  -4.414   0.412  0.00  0.00    -0.085 HD
ATOM      9  H   LIG    1       -1.410  -4.489   1.125  0.00  0.00    -0.085 HD
ENDBRANCH   1   2
BRANCH   1  10
ATOM     10  C   LIG    1       -2.592  -2.799  -0.116  0.00  0.00    -0.035 A 
ATOM     11  C   LIG    1       -3.483  -2.745   0.939  0.00  0.00    +0.004 A 
ATOM     12  C   LIG    1       -4.720  -3.354   0.830  0.00  0.00    +0.000 A 
ATOM     13  C   LIG    1       -5.066  -4.014  -0.334  0.00  0.00    +0.000 A 
ATOM     14  C   LIG    1       -4.174  -4.066  -1.389  0.00  0.00    +0.000 A 
ATOM     15  C   LIG    1       -2.939  -3.455  -1.282  0.00  0.00    +0.004 A 
ENDBRANCH   1  10
BRANCH   1  16
ATOM     16  C   LIG    1       -1.426  -0.643   0.112  0.00  0.00    +0.313 C 
ATOM     17  O   LIG    1       -2.536  -0.167   0.096  0.00  0.00    -0.250 OA
BRANCH  16  19
ATOM     18  C   LIG    1       -0.601   1.560   0.327  0.00  0.00    +0.280 C 
ATOM     19  O   LIG    1       -0.354   0.156   0.228  0.00  0.00    -0.468 OA
ENDBRANCH  16  19
ENDBRANCH   1  16
TORSDOF 4
