REMARK  Name = ZINC00042511
REMARK                            x       y       z     vdW  Elec       q    Type
REMARK                         _______ _______ _______ _____ _____    ______ ____
ROOT
ATOM      1  C   LIG    1        1.134   3.176   0.008  0.00  0.00    +0.001 A 
ATOM      2  C   LIG    1        1.170   1.787   0.001  0.00  0.00    +0.001 A 
ATOM      3  C   LIG    1       -0.013   1.076   0.008  0.00  0.00    +0.015 A 
ATOM      4  C   LIG    1       -1.213   1.754   0.017  0.00  0.00    +0.020 A 
ATOM      5  C   LIG    1       -1.280   3.167   0.031  0.00  0.00    -0.010 A 
ATOM      6  C   LIG    1       -2.578   3.709   0.047  0.00  0.00    +0.031 A 
ATOM      7  C   LIG    1       -3.658   2.882   0.054  0.00  0.00    +0.097 A 
ATOM      8  S   LIG    1       -2.918   1.259   0.038  0.00  0.00    -0.082 S 
ATOM      9  C   LIG    1       -0.040   3.858   0.023  0.00  0.00    +0.009 A 
ENDROOT
BRANCH   7  10
ATOM     10  C   LIG    1       -5.083   3.238   0.071  0.00  0.00    +0.344 C 
ATOM     11  O   LIG    1       -5.417   4.407   0.080  0.00  0.00    -0.245 OA
BRANCH  10  12
ATOM     12  O   LIG    1       -6.020   2.269   0.075  0.00  0.00    -0.477 OA
ATOM     13  H   LIG    1       -5.762   1.368   0.068  0.00  0.00    +0.295 HD
ENDBRANCH  10  12
ENDBRANCH   7  10
TORSDOF 2
