REMARK  Name = ZINC00016154
REMARK                            x       y       z     vdW  Elec       q    Type
REMARK                         _______ _______ _______ _____ _____    ______ ____
ROOT
ATOM      1  C   LIG    1       -2.368   1.109  -0.074  0.00  0.00    +0.057 A 
ATOM      2  C   LIG    1       -2.302  -0.276  -0.074  0.00  0.00    +0.027 A 
ATOM      3  C   LIG    1       -3.460  -1.024  -0.163  0.00  0.00    +0.025 A 
ATOM      4  C   LIG    1       -4.693  -0.393  -0.254  0.00  0.00    +0.029 A 
ATOM      5  C   LIG    1       -4.766   0.994  -0.255  0.00  0.00    +0.047 A 
ATOM      6  C   LIG    1       -3.605   1.747  -0.159  0.00  0.00    +0.048 A 
ENDROOT
BRANCH   1   8
ATOM      7  C   LIG    1       -0.090   1.341   0.590  0.00  0.00    +0.405 C 
ATOM      8  N   LIG    1       -1.191   1.869   0.018  0.00  0.00    -0.249 N 
ATOM      9  H   LIG    1       -1.169   2.774  -0.331  0.00  0.00    +0.158 HD
ATOM     10  O   LIG    1       -0.145   0.247   1.117  0.00  0.00    -0.226 OA
BRANCH   7  11
ATOM     11  O   LIG    1        1.071   2.022   0.572  0.00  0.00    -0.450 OA
BRANCH  11  13
ATOM     12  C   LIG    1        3.435   2.307   1.083  0.00  0.00    +0.048 C 
ATOM     13  C   LIG    1        2.216   1.390   1.202  0.00  0.00    +0.230 C 
ENDBRANCH  11  13
ENDBRANCH   7  11
ENDBRANCH   1   8
BRANCH   6  14
ATOM     14  N   LIG    1       -3.675   3.144  -0.152  0.00  0.00    -0.356 N 
ATOM     15  H   LIG    1       -4.536   3.587  -0.212  0.00  0.00    +0.142 HD
ATOM     16  H   LIG    1       -2.863   3.670  -0.089  0.00  0.00    +0.142 HD
ENDBRANCH   6  14
BRANCH   4  17
ATOM     17  N   LIG    1       -5.864  -1.153  -0.346  0.00  0.00    -0.340 N 
ATOM     18  H   LIG    1       -6.725  -0.712  -0.410  0.00  0.00    +0.146 HD
BRANCH  17  19
ATOM     19  C   LIG    1       -5.788  -2.616  -0.346  0.00  0.00    +0.137 C 
BRANCH  19  20
ATOM     20  C   LIG    1       -7.177  -3.191  -0.453  0.00  0.00    -0.030 A 
ATOM     21  C   LIG    1       -7.902  -3.465   0.692  0.00  0.00    +0.008 A 
ATOM     22  C   LIG    1       -9.177  -3.987   0.595  0.00  0.00    +0.038 A 
ATOM     23  C   LIG    1       -9.725  -4.247  -0.650  0.00  0.00    +0.123 A 
ATOM     24  F   LIG    1      -10.970  -4.763  -0.746  0.00  0.00    -0.205 F 
ATOM     25  C   LIG    1       -8.996  -3.978  -1.796  0.00  0.00    +0.038 A 
ATOM     26  C   LIG    1       -7.723  -3.450  -1.696  0.00  0.00    +0.008 A 
ENDBRANCH  19  20
ENDBRANCH  17  19
ENDBRANCH   4  17
TORSDOF 7
