REMARK  Name = ZINC00057163
REMARK                            x       y       z     vdW  Elec       q    Type
REMARK                         _______ _______ _______ _____ _____    ______ ____
ROOT
ATOM      1  C   LIG    1       -1.201  -0.638   0.010  0.00  0.00    +0.121 A 
ATOM      2  C   LIG    1       -2.377   0.107   0.019  0.00  0.00    +0.047 A 
ATOM      3  C   LIG    1       -3.604  -0.518   0.027  0.00  0.00    +0.030 A 
ATOM      4  C   LIG    1       -3.676  -1.907   0.026  0.00  0.00    +0.047 A 
ATOM      5  C   LIG    1       -2.490  -2.663   0.016  0.00  0.00    +0.006 A 
ATOM      6  C   LIG    1       -2.904  -4.068   0.017  0.00  0.00    -0.024 A 
ATOM      7  C   LIG    1       -4.247  -4.082   0.027  0.00  0.00    +0.087 A 
ATOM      8  N   LIG    1       -4.726  -2.801   0.032  0.00  0.00    -0.360 N 
ATOM      9  H   LIG    1       -5.665  -2.557   0.040  0.00  0.00    +0.165 HD
ATOM     10  C   LIG    1       -1.251  -2.017   0.003  0.00  0.00    +0.056 A 
ENDROOT
BRANCH   1  12
ATOM     11  C   LIG    1       -0.017   1.425   0.010  0.00  0.00    +0.277 C 
ATOM     12  O   LIG    1        0.002  -0.004   0.002  0.00  0.00    -0.495 OA
ENDBRANCH   1  12
BRANCH   6  13
ATOM     13  C   LIG    1       -1.996  -5.270   0.008  0.00  0.00    +0.018 C 
BRANCH  13  14
ATOM     14  C   LIG    1       -1.577  -5.603   1.442  0.00  0.00    -0.082 C 
BRANCH  14  15
ATOM     15  N   LIG    1       -0.691  -6.775   1.433  0.00  0.00    +0.378 N 
ATOM     16  H   LIG    1       -0.414  -6.995   2.378  0.00  0.00    -0.090 HD
ATOM     17  H   LIG    1        0.129  -6.573   0.881  0.00  0.00    -0.090 HD
ATOM     18  H   LIG    1       -1.179  -7.563   1.033  0.00  0.00    -0.090 HD
ENDBRANCH  14  15
ENDBRANCH  13  14
ENDBRANCH   6  13
TORSDOF 4
