REMARK  Name = ZINC00068809
REMARK                            x       y       z     vdW  Elec       q    Type
REMARK                         _______ _______ _______ _____ _____    ______ ____
ROOT
ATOM      1  C   LIG    1        0.082  -3.640   3.216  0.00  0.00    +0.260 C 
ATOM      2  N   LIG    1        0.062  -2.314   2.977  0.00  0.00    -0.230 N 
ATOM      3  H   LIG    1        0.060  -1.688   3.718  0.00  0.00    +0.173 HD
ATOM      4  O   LIG    1        0.084  -4.426   2.288  0.00  0.00    -0.269 OA
ENDROOT
BRANCH   1   8
ATOM      5  C   LIG    1        0.139  -5.077   7.212  0.00  0.00    +0.120 A 
ATOM      6  C   LIG    1        0.142  -5.976   6.152  0.00  0.00    +0.046 A 
ATOM      7  C   LIG    1        0.123  -5.515   4.855  0.00  0.00    +0.016 A 
ATOM      8  C   LIG    1        0.102  -4.140   4.605  0.00  0.00    +0.038 A 
ATOM      9  C   LIG    1        0.106  -3.239   5.673  0.00  0.00    +0.016 A 
ATOM     10  C   LIG    1        0.118  -3.709   6.968  0.00  0.00    +0.046 A 
BRANCH   5  12
ATOM     11  C   LIG    1        0.154  -4.558   9.530  0.00  0.00    +0.277 C 
ATOM     12  O   LIG    1        0.158  -5.537   8.489  0.00  0.00    -0.495 OA
ENDBRANCH   5  12
ENDBRANCH   1   8
BRANCH   2  13
ATOM     13  N   LIG    1        0.043  -1.840   1.659  0.00  0.00    -0.234 N 
ATOM     14  H   LIG    1        0.044  -2.466   0.918  0.00  0.00    +0.173 HD
ATOM     15  C   LIG    1        0.022  -0.514   1.420  0.00  0.00    +0.233 C 
ATOM     16  O   LIG    1        0.021   0.269   2.346  0.00  0.00    -0.274 OA
BRANCH  15  17
ATOM     17  C   LIG    1        0.002  -0.004   0.002  0.00  0.00    +0.132 C 
BRANCH  17  18
ATOM     18  C   LIG    1       -0.018   1.503   0.010  0.00  0.00    -0.039 A 
ATOM     19  C   LIG    1       -1.225   2.178   0.020  0.00  0.00    +0.004 A 
ATOM     20  C   LIG    1       -1.244   3.560   0.032  0.00  0.00    +0.000 A 
ATOM     21  C   LIG    1       -0.056   4.267   0.025  0.00  0.00    +0.000 A 
ATOM     22  C   LIG    1        1.151   3.592   0.010  0.00  0.00    +0.000 A 
ATOM     23  C   LIG    1        1.169   2.210   0.003  0.00  0.00    +0.004 A 
ENDBRANCH  17  18
ENDBRANCH  15  17
ENDBRANCH   2  13
TORSDOF 5
