REMARK  Name = ZINC00005661
REMARK                            x       y       z     vdW  Elec       q    Type
REMARK                         _______ _______ _______ _____ _____    ______ ____
ROOT
ATOM      1  C   LIG    1        1.476   1.579   2.433  0.00  0.00    +0.045 C 
ATOM      2  C   LIG    1       -0.013   1.802   2.386  0.00  0.00    -0.030 A 
ATOM      3  C   LIG    1       -0.718   1.572   1.248  0.00  0.00    +0.037 A 
ATOM      4  C   LIG    1       -0.013   1.086   0.008  0.00  0.00    +0.051 C 
ATOM      5  C   LIG    1       -2.110   1.794   1.228  0.00  0.00    +0.340 A 
ATOM      6  O   LIG    1       -2.772   2.221   2.315  0.00  0.00    -0.422 OA
ATOM      7  C   LIG    1       -2.132   2.469   3.478  0.00  0.00    +0.143 A 
ATOM      8  C   LIG    1       -2.829   2.915   4.589  0.00  0.00    +0.092 A 
ATOM      9  C   LIG    1       -2.152   3.163   5.773  0.00  0.00    +0.125 A 
ATOM     10  C   LIG    1       -0.775   2.968   5.855  0.00  0.00    +0.046 A 
ATOM     11  C   LIG    1       -0.073   2.530   4.769  0.00  0.00    +0.015 A 
ATOM     12  O   LIG    1       -2.729   1.589   0.199  0.00  0.00    -0.245 OA
ATOM     13  C   LIG    1       -0.741   2.274   3.567  0.00  0.00    +0.021 A 
ENDROOT
BRANCH   9  14
ATOM     14  O   LIG    1       -2.836   3.601   6.861  0.00  0.00    -0.485 OA
BRANCH  14  15
ATOM     15  C   LIG    1       -2.080   3.838   8.050  0.00  0.00    +0.293 C 
BRANCH  15  16
ATOM     16  C   LIG    1       -3.001   4.315   9.143  0.00  0.00    +0.139 A 
ATOM     17  N   LIG    1       -3.666   3.619  10.041  0.00  0.00    -0.143 NA
ATOM     18  N   LIG    1       -4.399   4.200  10.891  0.00  0.00    -0.146 NA
ATOM     19  C   LIG    1       -4.509   5.512  10.894  0.00  0.00    +0.105 A 
ATOM     20  S   LIG    1       -3.468   5.934   9.568  0.00  0.00    -0.052 S 
BRANCH  19  21
ATOM     21  C   LIG    1       -5.314   6.404  11.803  0.00  0.00    +0.040 C 
ATOM     22  C   LIG    1       -4.854   6.207  13.249  0.00  0.00    +0.014 C 
ATOM     23  C   LIG    1       -6.797   6.047  11.686  0.00  0.00    +0.014 C 
ENDBRANCH  19  21
ENDBRANCH  15  16
ENDBRANCH  14  15
ENDBRANCH   9  14
TORSDOF 4
