REMARK  Name = ZINC00005898
REMARK                            x       y       z     vdW  Elec       q    Type
REMARK                         _______ _______ _______ _____ _____    ______ ____
ROOT
ATOM      1  C   LIG    1       -1.978   2.413  -0.604  0.00  0.00    -0.039 C 
ATOM      2  N   LIG    1       -1.507   2.770   0.736  0.00  0.00    +0.384 N 
ATOM      3  H   LIG    1       -0.885   3.585   0.687  0.00  0.00    -0.085 HD
ATOM      4  H   LIG    1       -2.304   2.983   1.347  0.00  0.00    -0.085 HD
ATOM      5  C   LIG    1       -0.778   1.605   1.244  0.00  0.00    -0.082 C 
ATOM      6  C   LIG    1       -0.013   1.086   0.008  0.00  0.00    -0.020 C 
ATOM      7  C   LIG    1       -0.801   1.618  -1.207  0.00  0.00    -0.013 C 
ENDROOT
BRANCH   1  10
ATOM      8  C   LIG    1       -3.530   4.794  -3.086  0.00  0.00    +0.020 A 
ATOM      9  C   LIG    1       -3.301   3.641  -2.350  0.00  0.00    +0.005 A 
ATOM     10  C   LIG    1       -2.263   3.640  -1.432  0.00  0.00    -0.043 A 
ATOM     11  C   LIG    1       -1.488   4.776  -1.290  0.00  0.00    +0.112 A 
ATOM     12  N   LIG    1       -1.731   5.852  -2.011  0.00  0.00    -0.263 NA
ATOM     13  C   LIG    1       -2.714   5.891  -2.890  0.00  0.00    +0.111 A 
ENDBRANCH   1  10
TORSDOF 1
