REMARK  Name = ZINC00008090
REMARK                            x       y       z     vdW  Elec       q    Type
REMARK                         _______ _______ _______ _____ _____    ______ ____
ROOT
ATOM      1  C   LIG    1        1.279  -0.453  -0.583  0.00  0.00    -0.002 C 
ATOM      2  N   LIG    1        0.007  -0.000  -0.000  0.00  0.00    +0.386 N 
ATOM      3  H   LIG    1       -0.775  -0.354  -0.563  0.00  0.00    -0.085 HD
ATOM      4  H   LIG    1       -0.076  -0.353   0.961  0.00  0.00    -0.085 HD
ATOM      5  C   LIG    1       -0.018   1.474   0.010  0.00  0.00    -0.082 C 
ATOM      6  C   LIG    1        1.474   1.890  -0.002  0.00  0.00    -0.020 C 
ATOM      7  C   LIG    1        2.093   0.811  -0.929  0.00  0.00    -0.010 C 
ENDROOT
BRANCH   1  11
ATOM      8  C   LIG    1        1.388  -3.884  -4.341  0.00  0.00    +0.069 C 
ATOM      9  C   LIG    1        1.047  -2.716  -3.451  0.00  0.00    +0.081 A 
ATOM     10  C   LIG    1        1.684  -2.361  -2.240  0.00  0.00    +0.069 A 
ATOM     11  C   LIG    1        1.016  -1.256  -1.831  0.00  0.00    +0.124 A 
ATOM     12  O   LIG    1        0.080  -1.013  -2.759  0.00  0.00    -0.361 OA
ATOM     13  N   LIG    1        0.112  -1.833  -3.648  0.00  0.00    -0.083 NA
ENDBRANCH   1  11
TORSDOF 1
