REMARK  Name = ZINC00037157
REMARK                            x       y       z     vdW  Elec       q    Type
REMARK                         _______ _______ _______ _____ _____    ______ ____
ROOT
ATOM      1  C   LIG    1        0.963   6.596  -0.199  0.00  0.00    +0.066 C 
ATOM      2  C   LIG    1       -0.146   5.576  -0.173  0.00  0.00    +0.047 A 
ATOM      3  C   LIG    1       -1.470   5.835  -0.241  0.00  0.00    +0.078 A 
ATOM      4  C   LIG    1       -2.154   4.613  -0.179  0.00  0.00    +0.232 A 
ATOM      5  N   LIG    1       -1.274   3.652  -0.082  0.00  0.00    -0.139 NA
ATOM      6  N   LIG    1        0.004   4.226  -0.078  0.00  0.00    -0.198 N 
ATOM      7  C   LIG    1        1.174   3.561   0.009  0.00  0.00    +0.282 C 
ATOM      8  O   LIG    1        2.217   4.177   0.097  0.00  0.00    -0.265 OA
ENDROOT
BRANCH   7   9
ATOM      9  C   LIG    1        1.186   2.087  -0.001  0.00  0.00    +0.076 A 
ATOM     10  C   LIG    1       -0.016   1.374   0.021  0.00  0.00    +0.016 A 
ATOM     11  C   LIG    1        0.003  -0.004   0.010  0.00  0.00    +0.001 A 
ATOM     12  C   LIG    1        1.209  -0.685  -0.023  0.00  0.00    +0.003 A 
ATOM     13  C   LIG    1        2.403   0.011  -0.046  0.00  0.00    +0.039 A 
ATOM     14  C   LIG    1        2.401   1.393  -0.034  0.00  0.00    +0.136 A 
ATOM     15  F   LIG    1        3.569   2.073  -0.056  0.00  0.00    -0.205 F 
ENDBRANCH   7   9
BRANCH   4  16
ATOM     16  N   LIG    1       -3.623   4.440  -0.217  0.00  0.00    +0.027 N 
ATOM     17  O   LIG    1       -4.107   3.324  -0.155  0.00  0.00    -0.128 OA
BRANCH  16  18
ATOM     18  O   LIG    1       -4.349   5.414  -0.310  0.00  0.00    -0.395 OA
ATOM     19  H   LIG    1       -3.977   6.273  -0.357  0.00  0.00    +0.329 HD
ENDBRANCH  16  18
ENDBRANCH   4  16
TORSDOF 3
