REMARK  Name = ZINC00002850
REMARK                            x       y       z     vdW  Elec       q    Type
REMARK                         _______ _______ _______ _____ _____    ______ ____
ROOT
ATOM      1  C   LIG    1        0.128   0.841  -2.436  0.00  0.00    -0.016 C 
ATOM      2  C   LIG    1        1.563   1.413  -2.374  0.00  0.00    -0.079 C 
ATOM      3  N   LIG    1        1.446   2.376  -1.274  0.00  0.00    +0.380 N 
ATOM      4  H   LIG    1        2.207   3.064  -1.298  0.00  0.00    -0.082 HD
ATOM      5  C   LIG    1        1.427   1.651  -0.003  0.00  0.00    -0.066 C 
ATOM      6  C   LIG    1       -0.013   1.086   0.008  0.00  0.00    +0.063 C 
ATOM      7  C   LIG    1        0.151   3.001  -1.413  0.00  0.00    -0.075 C 
ATOM      8  C   LIG    1       -0.623   1.636  -1.321  0.00  0.00    -0.019 C 
ENDROOT
BRANCH   6   9
ATOM      9  C   LIG    1       -0.777   1.599   1.201  0.00  0.00    +0.230 A 
ATOM     10  N   LIG    1       -1.373   0.873   2.115  0.00  0.00    -0.178 NA
ATOM     11  C   LIG    1       -1.919   1.755   2.980  0.00  0.00    +0.253 A 
ATOM     12  N   LIG    1       -1.634   2.953   2.542  0.00  0.00    -0.040 NA
ATOM     13  O   LIG    1       -0.980   2.880   1.523  0.00  0.00    -0.336 OA
BRANCH  11  14
ATOM     14  N   LIG    1       -2.651   1.447   4.118  0.00  0.00    -0.325 N 
ATOM     15  H   LIG    1       -2.808   0.520   4.358  0.00  0.00    +0.145 HD
ATOM     16  H   LIG    1       -3.005   2.159   4.674  0.00  0.00    +0.145 HD
ENDBRANCH  11  14
ENDBRANCH   6   9
TORSDOF 2
