REMARK  Name = ZINC00012808
REMARK                            x       y       z     vdW  Elec       q    Type
REMARK                         _______ _______ _______ _____ _____    ______ ____
ROOT
ATOM      1  C   LIG    1        1.871   1.826   1.190  0.00  0.00    +0.083 A 
ATOM      2  C   LIG    1        1.223   1.533  -0.001  0.00  0.00    +0.228 A 
ATOM      3  N   LIG    1        1.815   1.818  -1.135  0.00  0.00    -0.205 NA
ATOM      4  C   LIG    1        3.020   2.374  -1.169  0.00  0.00    +0.114 A 
ATOM      5  S   LIG    1        3.395   2.529   0.572  0.00  0.00    -0.063 S 
ENDROOT
BRANCH   1   9
ATOM      6  C   LIG    1        0.594   1.216   5.193  0.00  0.00    +0.000 A 
ATOM      7  C   LIG    1        1.829   1.788   4.944  0.00  0.00    +0.001 A 
ATOM      8  C   LIG    1        2.251   1.989   3.646  0.00  0.00    +0.009 A 
ATOM      9  C   LIG    1        1.427   1.614   2.582  0.00  0.00    -0.006 A 
ATOM     10  C   LIG    1        0.179   1.043   2.841  0.00  0.00    +0.009 A 
ATOM     11  C   LIG    1       -0.227   0.842   4.144  0.00  0.00    +0.001 A 
ENDBRANCH   1   9
BRANCH   4  12
ATOM     12  C   LIG    1        3.836   2.763  -2.338  0.00  0.00    +0.025 A 
ATOM     13  C   LIG    1        3.360   2.557  -3.639  0.00  0.00    +0.013 A 
ATOM     14  C   LIG    1        4.162   2.939  -4.699  0.00  0.00    +0.020 A 
ATOM     15  C   LIG    1        5.398   3.507  -4.443  0.00  0.00    +0.111 A 
ATOM     16  N   LIG    1        5.820   3.690  -3.206  0.00  0.00    -0.263 NA
ATOM     17  C   LIG    1        5.091   3.347  -2.164  0.00  0.00    +0.121 A 
ENDBRANCH   4  12
BRANCH   2  18
ATOM     18  O   LIG    1       -0.011   0.963   0.007  0.00  0.00    -0.492 OA
ATOM     19  H   LIG    1        0.002  -0.004   0.002  0.00  0.00    +0.294 HD
ENDBRANCH   2  18
TORSDOF 3
