REMARK  Name = ZINC00057002
REMARK                            x       y       z     vdW  Elec       q    Type
REMARK                         _______ _______ _______ _____ _____    ______ ____
ROOT
ATOM      1  C   LIG    1        0.731  -0.503   1.223  0.00  0.00    +0.220 C 
ATOM      2  N   LIG    1        0.278  -0.191   2.453  0.00  0.00    -0.288 N 
ATOM      3  C   LIG    1       -0.916   0.622   2.748  0.00  0.00    +0.109 C 
ATOM      4  C   LIG    1       -1.354   0.184   4.168  0.00  0.00    +0.021 C 
ATOM      5  C   LIG    1        0.017  -0.038   4.861  0.00  0.00    +0.035 C 
ATOM      6  C   LIG    1        0.889  -0.609   3.723  0.00  0.00    +0.184 C 
ATOM      7  O   LIG    1        1.725  -1.187   1.099  0.00  0.00    -0.275 OA
ENDROOT
BRANCH   1   9
ATOM      8  C   LIG    1       -0.019   1.526   0.010  0.00  0.00    +0.018 C 
ATOM      9  C   LIG    1        0.002  -0.004   0.002  0.00  0.00    +0.082 C 
BRANCH   9  10
ATOM     10  C   LIG    1        0.718  -0.497  -1.257  0.00  0.00    +0.078 C 
BRANCH  10  11
ATOM     11  S   LIG    1       -0.239  -0.022  -2.723  0.00  0.00    -0.178 S 
ATOM     12  H   LIG    1        0.481  -0.504  -3.752  0.00  0.00    +0.102 HD
ENDBRANCH  10  11
ENDBRANCH   9  10
ENDBRANCH   1   9
BRANCH   6  13
ATOM     13  C   LIG    1        2.287  -0.055   3.826  0.00  0.00    +0.325 C 
ATOM     14  O   LIG    1        2.566   1.000   3.284  0.00  0.00    -0.249 OA
BRANCH  13  15
ATOM     15  O   LIG    1        3.139  -0.664   4.452  0.00  0.00    -0.479 OA
ATOM     16  H   LIG    1        2.924  -1.475   4.868  0.00  0.00    +0.295 HD
ENDBRANCH  13  15
ENDBRANCH   6  13
TORSDOF 5
