REMARK  Name = ZINC00001850
REMARK                            x       y       z     vdW  Elec       q    Type
REMARK                         _______ _______ _______ _____ _____    ______ ____
ROOT
ATOM      1  C   LIG    1        2.416   5.090   0.798  0.00  0.00    -0.020 C 
ATOM      2  C   LIG    1        2.367   4.013   0.005  0.00  0.00    -0.011 C 
ATOM      3  C   LIG    1        1.157   3.158   0.008  0.00  0.00    -0.011 A 
ATOM      4  C   LIG    1       -0.078   3.824   0.021  0.00  0.00    +0.009 A 
ATOM      5  C   LIG    1       -1.258   3.117   0.029  0.00  0.00    +0.001 A 
ATOM      6  C   LIG    1       -1.222   1.734   0.017  0.00  0.00    +0.000 A 
ATOM      7  C   LIG    1       -0.013   1.076   0.008  0.00  0.00    +0.007 A 
ATOM      8  C   LIG    1        1.195   1.776   0.000  0.00  0.00    -0.003 A 
ATOM      9  C   LIG    1        2.431   0.915  -0.018  0.00  0.00    +0.265 C 
ATOM     10  O   LIG    1        3.632   1.599   0.234  0.00  0.00    -0.487 OA
ATOM     11  C   LIG    1        4.138   2.462  -0.669  0.00  0.00    +0.129 A 
ATOM     12  C   LIG    1        5.263   2.137  -1.413  0.00  0.00    +0.046 A 
ATOM     13  C   LIG    1        5.747   3.033  -2.348  0.00  0.00    +0.008 A 
ATOM     14  C   LIG    1        5.119   4.250  -2.551  0.00  0.00    -0.036 A 
ATOM     15  C   LIG    1        4.002   4.587  -1.808  0.00  0.00    +0.016 A 
ATOM     16  C   LIG    1        3.524   3.692  -0.861  0.00  0.00    +0.024 A 
ENDROOT
BRANCH   1  17
ATOM     17  C   LIG    1        3.641   5.967   0.804  0.00  0.00    +0.009 C 
BRANCH  17  18
ATOM     18  C   LIG    1        3.236   7.412   0.505  0.00  0.00    -0.075 C 
BRANCH  18  20
ATOM     19  C   LIG    1        5.332   7.919  -0.597  0.00  0.00    -0.097 C 
ATOM     20  N   LIG    1        4.446   8.261   0.535  0.00  0.00    +0.376 N 
ATOM     21  H   LIG    1        4.948   8.095   1.415  0.00  0.00    -0.083 HD
ATOM     22  C   LIG    1        4.062   9.687   0.464  0.00  0.00    -0.097 C 
ENDBRANCH  18  20
ENDBRANCH  17  18
ENDBRANCH   1  17
BRANCH  14  23
ATOM     23  C   LIG    1        5.654   5.209  -3.583  0.00  0.00    +0.155 C 
BRANCH  23  24
ATOM     24  C   LIG    1        6.667   6.123  -2.943  0.00  0.00    +0.309 C 
ATOM     25  O   LIG    1        6.927   6.007  -1.769  0.00  0.00    -0.251 OA
BRANCH  24  26
ATOM     26  O   LIG    1        7.279   7.065  -3.677  0.00  0.00    -0.480 OA
ATOM     27  H   LIG    1        7.077   7.155  -4.587  0.00  0.00    +0.295 HD
ENDBRANCH  24  26
ENDBRANCH  23  24
ENDBRANCH  14  23
TORSDOF 6
