REMARK  Name = ZINC00003897
REMARK                            x       y       z     vdW  Elec       q    Type
REMARK                         _______ _______ _______ _____ _____    ______ ____
ROOT
ATOM      1  C   LIG    1       -0.018   1.465   0.010  0.00  0.00    -0.096 C 
ATOM      2  N   LIG    1        0.002  -0.004   0.002  0.00  0.00    +0.381 N 
ATOM      3  H   LIG    1       -0.940  -0.351   0.098  0.00  0.00    -0.082 HD
ATOM      4  C   LIG    1        0.565  -0.478  -1.279  0.00  0.00    -0.074 C 
ATOM      5  C   LIG    1        1.613   0.465  -1.817  0.00  0.00    +0.017 C 
ATOM      6  C   LIG    1        2.547   1.163  -0.918  0.00  0.00    -0.044 A 
ATOM      7  C   LIG    1        3.120   2.363  -1.335  0.00  0.00    +0.027 A 
ATOM      8  C   LIG    1        3.997   3.044  -0.519  0.00  0.00    +0.083 A 
ATOM      9 CL   LIG    1        4.702   4.538  -1.054  0.00  0.00    -0.080 Cl
ATOM     10  C   LIG    1        4.316   2.532   0.732  0.00  0.00    +0.135 A 
ATOM     11  C   LIG    1        3.748   1.340   1.146  0.00  0.00    +0.051 A 
ATOM     12  C   LIG    1        2.863   0.659   0.319  0.00  0.00    -0.035 A 
ATOM     13  C   LIG    1        2.270  -0.621   0.804  0.00  0.00    +0.036 C 
ATOM     14  C   LIG    1        3.047  -1.217   1.942  0.00  0.00    -0.038 A 
ATOM     15  C   LIG    1        4.426  -1.072   1.952  0.00  0.00    +0.004 A 
ATOM     16  C   LIG    1        5.179  -1.615   2.973  0.00  0.00    +0.000 A 
ATOM     17  C   LIG    1        4.554  -2.308   3.993  0.00  0.00    +0.000 A 
ATOM     18  C   LIG    1        3.182  -2.449   3.986  0.00  0.00    +0.004 A 
ATOM     19  C   LIG    1        2.419  -1.901   2.963  0.00  0.00    -0.044 A 
ATOM     20  C   LIG    1        0.926  -2.082   3.023  0.00  0.00    +0.034 C 
ATOM     21  C   LIG    1        0.278  -1.814   1.664  0.00  0.00    -0.010 C 
ATOM     22  C   LIG    1        0.817  -0.486   1.130  0.00  0.00    -0.057 C 
ENDROOT
BRANCH  10  23
ATOM     23  O   LIG    1        5.180   3.197   1.544  0.00  0.00    -0.505 OA
ATOM     24  H   LIG    1        4.754   3.834   2.134  0.00  0.00    +0.292 HD
ENDBRANCH  10  23
TORSDOF 1
