REMARK  Name = ZINC00005739
REMARK                            x       y       z     vdW  Elec       q    Type
REMARK                         _______ _______ _______ _____ _____    ______ ____
ROOT
ATOM      1  C   LIG    1        0.135  -0.742   1.261  0.00  0.00    +0.089 C 
ENDROOT
BRANCH   1   2
ATOM      2  C   LIG    1        1.368  -0.274   1.989  0.00  0.00    -0.029 A 
ATOM      3  C   LIG    1        2.425  -1.143   2.187  0.00  0.00    +0.005 A 
ATOM      4  C   LIG    1        3.557  -0.714   2.855  0.00  0.00    +0.000 A 
ATOM      5  C   LIG    1        3.631   0.583   3.326  0.00  0.00    +0.000 A 
ATOM      6  C   LIG    1        2.575   1.452   3.128  0.00  0.00    +0.000 A 
ATOM      7  C   LIG    1        1.445   1.025   2.456  0.00  0.00    +0.005 A 
ENDBRANCH   1   2
BRANCH   1   9
ATOM      8  C   LIG    1       -0.566   1.563   0.464  0.00  0.00    +0.132 C 
ATOM      9  N   LIG    1       -0.167   0.185   0.167  0.00  0.00    -0.299 N 
ATOM     10  C   LIG    1       -0.077  -0.230  -1.112  0.00  0.00    +0.220 C 
ATOM     11  O   LIG    1        0.254  -1.371  -1.358  0.00  0.00    -0.275 OA
BRANCH  10  12
ATOM     12  C   LIG    1       -0.387   0.723  -2.237  0.00  0.00    +0.131 C 
BRANCH  12  13
ATOM     13  C   LIG    1       -0.212   0.017  -3.557  0.00  0.00    -0.039 A 
ATOM     14  C   LIG    1        1.017   0.027  -4.189  0.00  0.00    +0.004 A 
ATOM     15  C   LIG    1        1.178  -0.621  -5.399  0.00  0.00    +0.000 A 
ATOM     16  C   LIG    1        0.109  -1.280  -5.978  0.00  0.00    +0.000 A 
ATOM     17  C   LIG    1       -1.120  -1.291  -5.345  0.00  0.00    +0.000 A 
ATOM     18  C   LIG    1       -1.280  -0.646  -4.133  0.00  0.00    +0.004 A 
ENDBRANCH  12  13
ENDBRANCH  10  12
ENDBRANCH   1   9
BRANCH   1  19
ATOM     19  C   LIG    1       -1.046  -0.785   2.233  0.00  0.00    -0.051 C 
BRANCH  19  20
ATOM     20  N   LIG    1       -2.272  -1.125   1.499  0.00  0.00    +0.381 N 
ATOM     21  H   LIG    1       -2.396  -0.497   0.718  0.00  0.00    -0.082 HD
ATOM     22  C   LIG    1       -2.212  -2.531   1.024  0.00  0.00    -0.079 C 
ATOM     23  C   LIG    1       -3.702  -2.895   0.804  0.00  0.00    -0.020 C 
ATOM     24  C   LIG    1       -4.410  -2.173   1.974  0.00  0.00    -0.020 C 
ATOM     25  C   LIG    1       -3.443  -1.053   2.400  0.00  0.00    -0.079 C 
ENDBRANCH  19  20
ENDBRANCH   1  19
TORSDOF 6
