REMARK  Name = ZINC00039600
REMARK                            x       y       z     vdW  Elec       q    Type
REMARK                         _______ _______ _______ _____ _____    ______ ____
ROOT
ATOM      1  C   LIG    1       -0.642   3.588   0.028  0.00  0.00    +0.064 A 
ATOM      2  C   LIG    1       -1.137   2.282   0.019  0.00  0.00    +0.059 A 
ATOM      3  C   LIG    1       -0.018   1.466   0.010  0.00  0.00    +0.143 A 
ATOM      4  N   LIG    1        1.064   2.301   0.004  0.00  0.00    -0.271 N 
ATOM      5  H   LIG    1        2.019   2.006  -0.006  0.00  0.00    +0.189 HD
ATOM      6  N   LIG    1        0.665   3.522   0.015  0.00  0.00    -0.178 NA
ENDROOT
BRANCH   3   7
ATOM      7  C   LIG    1        0.002  -0.004   0.002  0.00  0.00    +0.355 C 
ATOM      8  O   LIG    1       -1.042  -0.626   0.008  0.00  0.00    -0.243 OA
BRANCH   7   9
ATOM      9  O   LIG    1        1.179  -0.662  -0.012  0.00  0.00    -0.476 OA
ATOM     10  H   LIG    1        1.984  -0.183  -0.017  0.00  0.00    +0.295 HD
ENDBRANCH   7   9
ENDBRANCH   3   7
BRANCH   1  11
ATOM     11  C   LIG    1       -1.466   4.849   0.042  0.00  0.00    +0.057 C 
BRANCH  11  13
ATOM     12  C   LIG    1       -1.879   7.003   1.240  0.00  0.00    +0.004 C 
ATOM     13  C   LIG    1       -1.042   5.722   1.225  0.00  0.00    +0.003 C 
ENDBRANCH  11  13
ENDBRANCH   1  11
TORSDOF 4
