REMARK  Name = ZINC00008107
REMARK                            x       y       z     vdW  Elec       q    Type
REMARK                         _______ _______ _______ _____ _____    ______ ____
ROOT
ATOM      1  C   LIG    1       -3.976   2.833  -2.451  0.00  0.00    +0.045 C 
ATOM      2  C   LIG    1       -4.488   2.288  -1.143  0.00  0.00    -0.036 A 
ATOM      3  C   LIG    1       -5.457   1.298  -1.142  0.00  0.00    +0.006 A 
ATOM      4  C   LIG    1       -5.947   0.786   0.040  0.00  0.00    +0.029 A 
ATOM      5  C   LIG    1       -5.460   1.262   1.259  0.00  0.00    +0.081 A 
ATOM      6  C   LIG    1       -4.467   2.268   1.265  0.00  0.00    +0.079 A 
ATOM      7  C   LIG    1       -3.975   2.749   2.558  0.00  0.00    +0.261 A 
ATOM      8  N   LIG    1       -4.503   2.197   3.675  0.00  0.00    -0.295 N 
ATOM      9  C   LIG    1       -5.461   1.229   3.583  0.00  0.00    +0.194 A 
ATOM     10  H   LIG    1       -4.190   2.502   4.574  0.00  0.00    +0.172 HD
ATOM     11  O   LIG    1       -3.120   3.614   2.626  0.00  0.00    -0.267 OA
ATOM     12  N   LIG    1       -5.918   0.782   2.441  0.00  0.00    -0.216 NA
ATOM     13  C   LIG    1       -3.981   2.778   0.052  0.00  0.00    +0.030 A 
ENDROOT
BRANCH   9  14
ATOM     14  N   LIG    1       -5.967   0.698   4.743  0.00  0.00    -0.329 N 
ATOM     15  H   LIG    1       -5.644   1.013   5.602  0.00  0.00    +0.145 HD
ATOM     16  H   LIG    1       -6.648   0.008   4.704  0.00  0.00    +0.145 HD
ENDBRANCH   9  14
BRANCH  13  17
ATOM     17  S   LIG    1       -2.744   4.032   0.047  0.00  0.00    -0.088 S 
BRANCH  17  18
ATOM     18  C   LIG    1       -1.227   3.135   0.029  0.00  0.00    +0.016 A 
ATOM     19  C   LIG    1       -1.221   1.740   0.017  0.00  0.00    +0.035 A 
ATOM     20  C   LIG    1       -0.013   1.076   0.008  0.00  0.00    +0.112 A 
ATOM     21  N   LIG    1        1.127   1.743   0.001  0.00  0.00    -0.263 NA
ATOM     22  C   LIG    1        1.163   3.062   0.007  0.00  0.00    +0.112 A 
ATOM     23  C   LIG    1       -0.002   3.801   0.021  0.00  0.00    +0.035 A 
ENDBRANCH  17  18
ENDBRANCH  13  17
TORSDOF 3
