REMARK  Name = ZINC00037095
REMARK                            x       y       z     vdW  Elec       q    Type
REMARK                         _______ _______ _______ _____ _____    ______ ____
ROOT
ATOM      1  C   LIG    1        0.657  -2.069  -1.123  0.00  0.00    +0.154 A 
ATOM      2  C   LIG    1        1.141  -2.818  -2.174  0.00  0.00    +0.056 A 
ATOM      3  C   LIG    1        1.015  -4.165  -1.829  0.00  0.00    +0.136 A 
ATOM      4  N   LIG    1        0.476  -4.248  -0.640  0.00  0.00    -0.171 NA
ATOM      5  N   LIG    1        0.235  -2.954  -0.161  0.00  0.00    -0.189 N 
ATOM      6  C   LIG    1       -0.310  -2.635   1.029  0.00  0.00    +0.279 C 
ATOM      7  O   LIG    1       -1.518  -2.595   1.153  0.00  0.00    -0.265 OA
ENDROOT
BRANCH   6   8
ATOM      8  C   LIG    1        0.559  -2.334   2.183  0.00  0.00    +0.041 A 
ATOM      9  C   LIG    1        1.946  -2.283   2.022  0.00  0.00    +0.015 A 
ATOM     10  C   LIG    1        2.753  -1.996   3.102  0.00  0.00    +0.021 A 
ATOM     11  C   LIG    1        2.192  -1.770   4.349  0.00  0.00    +0.041 A 
ATOM     12 CL   LIG    1        3.215  -1.417   5.706  0.00  0.00    -0.084 Cl
ATOM     13  C   LIG    1        0.818  -1.825   4.517  0.00  0.00    +0.021 A 
ATOM     14  C   LIG    1       -0.000  -2.105   3.443  0.00  0.00    +0.015 A 
ENDBRANCH   6   8
BRANCH   1  15
ATOM     15  C   LIG    1        0.596  -0.602  -1.049  0.00  0.00    +0.358 C 
ATOM     16  O   LIG    1        1.086   0.072  -1.934  0.00  0.00    -0.243 OA
BRANCH  15  18
ATOM     17  C   LIG    1       -0.025   1.448   0.008  0.00  0.00    +0.280 C 
ATOM     18  O   LIG    1       -0.003  -0.004   0.001  0.00  0.00    -0.463 OA
ENDBRANCH  15  18
ENDBRANCH   1  15
TORSDOF 3
