REMARK  Name = ZINC00057319
REMARK                            x       y       z     vdW  Elec       q    Type
REMARK                         _______ _______ _______ _____ _____    ______ ____
ROOT
ATOM      1  N   LIG    1        0.713  -0.491   1.192  0.00  0.00    +0.383 N 
ATOM      2  H   LIG    1        1.632  -0.076   1.228  0.00  0.00    -0.085 HD
ATOM      3  H   LIG    1        0.798  -1.495   1.145  0.00  0.00    -0.085 HD
ENDROOT
BRANCH   1   5
ATOM      4  C   LIG    1       -0.019   1.526   0.010  0.00  0.00    -0.013 C 
ATOM      5  C   LIG    1        0.002  -0.004   0.002  0.00  0.00    -0.071 C 
BRANCH   5   6
ATOM      6  C   LIG    1        0.718  -0.497  -1.257  0.00  0.00    +0.019 C 
BRANCH   6   7
ATOM      7  C   LIG    1        0.632  -2.000  -1.327  0.00  0.00    -0.049 A 
ATOM      8  C   LIG    1        1.613  -2.777  -0.738  0.00  0.00    +0.007 A 
ATOM      9  C   LIG    1        1.536  -4.154  -0.802  0.00  0.00    +0.045 A 
ATOM     10  C   LIG    1        0.473  -4.759  -1.458  0.00  0.00    +0.117 A 
ATOM     11  C   LIG    1       -0.510  -3.978  -2.048  0.00  0.00    +0.045 A 
ATOM     12  C   LIG    1       -0.431  -2.601  -1.977  0.00  0.00    +0.007 A 
BRANCH  10  13
ATOM     13  O   LIG    1        0.395  -6.114  -1.522  0.00  0.00    -0.507 OA
ATOM     14  H   LIG    1       -0.087  -6.516  -0.787  0.00  0.00    +0.292 HD
ENDBRANCH  10  13
ENDBRANCH   6   7
ENDBRANCH   5   6
ENDBRANCH   1   5
BRANCH   1  15
ATOM     15  C   LIG    1       -0.040  -0.119   2.398  0.00  0.00    -0.046 C 
BRANCH  15  16
ATOM     16  C   LIG    1        0.700  -0.626   3.637  0.00  0.00    +0.128 C 
BRANCH  16  17
ATOM     17  C   LIG    1       -0.072  -0.244   4.874  0.00  0.00    -0.014 A 
ATOM     18  C   LIG    1       -1.097  -1.054   5.324  0.00  0.00    +0.051 A 
ATOM     19  C   LIG    1       -1.809  -0.705   6.463  0.00  0.00    +0.121 A 
ATOM     20  C   LIG    1       -1.491   0.457   7.149  0.00  0.00    +0.090 A 
ATOM     21  C   LIG    1       -0.462   1.268   6.695  0.00  0.00    +0.121 A 
ATOM     22  C   LIG    1        0.251   0.911   5.559  0.00  0.00    +0.051 A 
BRANCH  19  23
ATOM     23  O   LIG    1       -2.818  -1.501   6.905  0.00  0.00    -0.507 OA
ATOM     24  H   LIG    1       -2.536  -2.183   7.530  0.00  0.00    +0.292 HD
ENDBRANCH  19  23
BRANCH  21  25
ATOM     25  O   LIG    1       -0.148   2.408   7.365  0.00  0.00    -0.507 OA
ATOM     26  H   LIG    1        0.516   2.287   8.057  0.00  0.00    +0.292 HD
ENDBRANCH  21  25
ENDBRANCH  16  17
BRANCH  16  27
ATOM     27  O   LIG    1        0.821  -2.048   3.571  0.00  0.00    -0.389 OA
ATOM     28  H   LIG    1       -0.025  -2.514   3.534  0.00  0.00    +0.210 HD
ENDBRANCH  16  27
ENDBRANCH  15  16
ENDBRANCH   1  15
TORSDOF 10
