REMARK  Name = ZINC00037171
REMARK                            x       y       z     vdW  Elec       q    Type
REMARK                         _______ _______ _______ _____ _____    ______ ____
ROOT
ATOM      1  C   LIG    1        5.565   3.548  -0.026  0.00  0.00    +0.006 A 
ATOM      2  C   LIG    1        5.096   4.848   0.036  0.00  0.00    +0.039 A 
ATOM      3  C   LIG    1        3.736   5.096   0.048  0.00  0.00    +0.139 A 
ATOM      4  F   LIG    1        3.279   6.366   0.108  0.00  0.00    -0.205 F 
ATOM      5  C   LIG    1        2.833   4.026  -0.002  0.00  0.00    +0.111 A 
ATOM      6  C   LIG    1        3.318   2.714  -0.059  0.00  0.00    +0.139 A 
ATOM      7  F   LIG    1        2.456   1.675  -0.102  0.00  0.00    -0.205 F 
ATOM      8  C   LIG    1        4.681   2.486  -0.075  0.00  0.00    +0.039 A 
ENDROOT
BRANCH   5   9
ATOM      9  C   LIG    1        1.382   4.280   0.011  0.00  0.00    +0.284 C 
ATOM     10  N   LIG    1        0.701   4.352  -1.150  0.00  0.00    -0.202 N 
ATOM     11  C   LIG    1       -0.649   4.485  -1.282  0.00  0.00    +0.133 A 
ATOM     12  C   LIG    1       -0.928   4.524  -2.603  0.00  0.00    +0.056 A 
ATOM     13 BR   LIG    1       -2.646   4.706  -3.373  0.00  0.00    -0.047 Br
ATOM     14  C   LIG    1        0.281   4.404  -3.304  0.00  0.00    +0.150 A 
ATOM     15  N   LIG    1        1.253   4.304  -2.437  0.00  0.00    -0.171 NA
ATOM     16  O   LIG    1        0.800   4.426   1.067  0.00  0.00    -0.265 OA
ENDBRANCH   5   9
TORSDOF 1
