REMARK  Name = ZINC00007280
REMARK                            x       y       z     vdW  Elec       q    Type
REMARK                         _______ _______ _______ _____ _____    ______ ____
ROOT
ATOM      1  C   LIG    1        2.842  -3.870  -0.557  0.00  0.00    +0.008 C 
ATOM      2  C   LIG    1        2.748  -2.648  -0.008  0.00  0.00    +0.009 C 
ENDROOT
BRANCH   1   6
ATOM      3  C   LIG    1       -0.563  -5.641  -2.381  0.00  0.00    +0.141 A 
ATOM      4  C   LIG    1       -0.344  -4.277  -2.499  0.00  0.00    +0.048 A 
ATOM      5  C   LIG    1        0.760  -3.698  -1.908  0.00  0.00    +0.011 A 
ATOM      6  C   LIG    1        1.662  -4.486  -1.188  0.00  0.00    -0.023 A 
ATOM      7  C   LIG    1        1.445  -5.862  -1.073  0.00  0.00    +0.034 A 
ATOM      8  C   LIG    1        0.332  -6.435  -1.663  0.00  0.00    +0.067 A 
BRANCH   8   9
ATOM      9  N   LIG    1        0.107  -7.811  -1.546  0.00  0.00    -0.355 N 
ATOM     10  H   LIG    1        0.730  -8.363  -1.046  0.00  0.00    +0.142 HD
ATOM     11  H   LIG    1       -0.670  -8.213  -1.963  0.00  0.00    +0.142 HD
ENDBRANCH   8   9
BRANCH   3  13
ATOM     12  C   LIG    1       -2.581  -5.322  -3.597  0.00  0.00    +0.277 C 
ATOM     13  O   LIG    1       -1.653  -6.206  -2.965  0.00  0.00    -0.493 OA
ENDBRANCH   3  13
ENDBRANCH   1   6
BRANCH   2  14
ATOM     14  C   LIG    1        1.429  -2.010   0.150  0.00  0.00    -0.018 A 
ATOM     15  C   LIG    1        0.315  -2.782   0.488  0.00  0.00    +0.057 A 
ATOM     16  C   LIG    1       -0.922  -2.181   0.636  0.00  0.00    +0.166 A 
ATOM     17  C   LIG    1       -1.056  -0.808   0.454  0.00  0.00    +0.204 A 
ATOM     18  C   LIG    1        0.051  -0.037   0.112  0.00  0.00    +0.166 A 
ATOM     19  C   LIG    1        1.290  -0.632  -0.037  0.00  0.00    +0.057 A 
BRANCH  16  20
ATOM     20  O   LIG    1       -2.008  -2.931   0.965  0.00  0.00    -0.491 OA
ATOM     21  C   LIG    1       -1.781  -4.316   1.234  0.00  0.00    +0.277 C 
ENDBRANCH  16  20
BRANCH  17  22
ATOM     22  O   LIG    1       -2.273  -0.218   0.605  0.00  0.00    -0.488 OA
ATOM     23  C   LIG    1       -3.100  -0.130  -0.556  0.00  0.00    +0.277 C 
ENDBRANCH  17  22
BRANCH  18  24
ATOM     24  O   LIG    1       -0.085   1.304  -0.070  0.00  0.00    -0.491 OA
ATOM     25  C   LIG    1        1.094   2.035  -0.414  0.00  0.00    +0.277 C 
ENDBRANCH  18  24
ENDBRANCH   2  14
TORSDOF 7
