REMARK  Name = ZINC00008960
REMARK                            x       y       z     vdW  Elec       q    Type
REMARK                         _______ _______ _______ _____ _____    ______ ____
ROOT
ATOM      1  C   LIG    1       -2.416   1.195   0.113  0.00  0.00    +0.034 A 
ATOM      2  C   LIG    1       -2.443  -0.194   0.205  0.00  0.00    +0.025 A 
ATOM      3  C   LIG    1       -3.642  -0.865   0.299  0.00  0.00    +0.028 A 
ATOM      4  C   LIG    1       -4.842  -0.159   0.302  0.00  0.00    +0.050 A 
ATOM      5  C   LIG    1       -4.816   1.240   0.209  0.00  0.00    +0.008 A 
ATOM      6  C   LIG    1       -6.090   1.986   0.212  0.00  0.00    -0.004 A 
ATOM      7  C   LIG    1       -6.125   3.373   0.121  0.00  0.00    +0.009 A 
ATOM      8  C   LIG    1       -7.340   4.026   0.129  0.00  0.00    +0.001 A 
ATOM      9  C   LIG    1       -8.525   3.312   0.225  0.00  0.00    +0.001 A 
ATOM     10  C   LIG    1       -8.511   1.937   0.315  0.00  0.00    +0.014 A 
ATOM     11  C   LIG    1       -7.293   1.258   0.310  0.00  0.00    +0.047 A 
ATOM     12  C   LIG    1       -7.231  -0.208   0.405  0.00  0.00    +0.257 A 
ATOM     13  O   LIG    1       -8.260  -0.853   0.490  0.00  0.00    -0.267 OA
ATOM     14  N   LIG    1       -6.045  -0.842   0.397  0.00  0.00    -0.322 N 
ATOM     15  H   LIG    1       -6.029  -1.840   0.463  0.00  0.00    +0.169 HD
ATOM     16  C   LIG    1       -3.599   1.913   0.120  0.00  0.00    +0.034 A 
ENDROOT
BRANCH   1  18
ATOM     17  C   LIG    1       -1.098   3.002  -0.703  0.00  0.00    +0.201 C 
ATOM     18  N   LIG    1       -1.191   1.867   0.018  0.00  0.00    -0.287 N 
ATOM     19  H   LIG    1       -0.408   1.515   0.471  0.00  0.00    +0.155 HD
ATOM     20  O   LIG    1       -2.050   3.391  -1.346  0.00  0.00    -0.278 OA
BRANCH  17  21
ATOM     21  C   LIG    1        0.185   3.791  -0.704  0.00  0.00    +0.018 C 
BRANCH  21  23
ATOM     22  C   LIG    1        1.167   5.894  -1.394  0.00  0.00    -0.096 C 
ATOM     23  N   LIG    1        0.005   4.993  -1.545  0.00  0.00    +0.382 N 
ATOM     24  H   LIG    1       -0.842   5.489  -1.242  0.00  0.00    -0.082 HD
ATOM     25  C   LIG    1       -0.149   4.600  -2.961  0.00  0.00    -0.096 C 
ENDBRANCH  21  23
ENDBRANCH  17  21
ENDBRANCH   1  18
TORSDOF 3
