REMARK  Name = ZINC00001965
REMARK                            x       y       z     vdW  Elec       q    Type
REMARK                         _______ _______ _______ _____ _____    ______ ____
ROOT
ATOM      1  C   LIG    1       -1.300  -0.876  -0.013  0.00  0.00    +0.047 A 
ATOM      2  C   LIG    1       -2.044  -1.124  -1.120  0.00  0.00    +0.110 A 
ATOM      3  N   LIG    1       -3.123  -1.919  -0.724  0.00  0.00    -0.303 N 
ATOM      4  H   LIG    1       -3.827  -2.257  -1.299  0.00  0.00    +0.171 HD
ATOM      5  C   LIG    1       -3.007  -2.131   0.602  0.00  0.00    +0.325 A 
ATOM      6  O   LIG    1       -3.774  -2.784   1.286  0.00  0.00    -0.247 OA
ATOM      7  N   LIG    1       -1.899  -1.506   1.042  0.00  0.00    -0.310 N 
ATOM      8  H   LIG    1       -1.580  -1.501   1.958  0.00  0.00    +0.170 HD
ENDROOT
BRANCH   1  10
ATOM      9  C   LIG    1       -0.381   1.389   0.398  0.00  0.00    +0.010 C 
ATOM     10  C   LIG    1       -0.036  -0.058   0.042  0.00  0.00    +0.052 C 
ENDBRANCH   1  10
BRANCH   2  11
ATOM     11  C   LIG    1       -1.768  -0.647  -2.476  0.00  0.00    +0.211 C 
ATOM     12  O   LIG    1       -0.732  -0.054  -2.714  0.00  0.00    -0.285 OA
BRANCH  11  13
ATOM     13  C   LIG    1       -2.750  -0.887  -3.559  0.00  0.00    +0.027 A 
ATOM     14  C   LIG    1       -4.092  -1.153  -3.268  0.00  0.00    +0.031 A 
ATOM     15  C   LIG    1       -4.973  -1.370  -4.309  0.00  0.00    +0.111 A 
ATOM     16  N   LIG    1       -4.564  -1.329  -5.561  0.00  0.00    -0.263 NA
ATOM     17  C   LIG    1       -3.309  -1.081  -5.880  0.00  0.00    +0.111 A 
ATOM     18  C   LIG    1       -2.362  -0.847  -4.903  0.00  0.00    +0.031 A 
ENDBRANCH  11  13
ENDBRANCH   2  11
TORSDOF 3
