REMARK  Name = ZINC00024222
REMARK                            x       y       z     vdW  Elec       q    Type
REMARK                         _______ _______ _______ _____ _____    ______ ____
ROOT
ATOM      1  C   LIG    1       -1.242   3.416   0.032  0.00  0.00    -0.039 A 
ATOM      2  C   LIG    1       -0.055   4.125   0.025  0.00  0.00    +0.008 A 
ATOM      3  C   LIG    1        1.154   3.455   0.010  0.00  0.00    +0.049 A 
ATOM      4  C   LIG    1        1.178   2.069   0.002  0.00  0.00    +0.162 A 
ATOM      5  C   LIG    1       -0.016   1.356   0.009  0.00  0.00    +0.162 A 
ATOM      6  C   LIG    1       -1.225   2.034   0.019  0.00  0.00    +0.053 A 
ENDROOT
BRANCH   1   8
ATOM      7  C   LIG    1       -2.662   5.037  -1.195  0.00  0.00    +0.014 C 
ATOM      8  C   LIG    1       -2.557   4.152   0.049  0.00  0.00    +0.036 C 
BRANCH   8   9
ATOM      9  C   LIG    1       -2.638   5.023   1.304  0.00  0.00    +0.134 C 
BRANCH   9  10
ATOM     10  N   LIG    1       -3.962   5.645   1.381  0.00  0.00    -0.299 N 
ATOM     11  C   LIG    1       -4.318   6.873   0.844  0.00  0.00    +0.108 A 
ATOM     12  C   LIG    1       -5.601   7.084   1.121  0.00  0.00    +0.105 A 
ATOM     13  N   LIG    1       -6.065   5.996   1.845  0.00  0.00    -0.313 N 
ATOM     14  H   LIG    1       -6.966   5.881   2.185  0.00  0.00    +0.170 HD
ATOM     15  C   LIG    1       -5.046   5.127   1.992  0.00  0.00    +0.327 A 
ATOM     16  O   LIG    1       -5.095   4.059   2.576  0.00  0.00    -0.247 OA
ENDBRANCH   9  10
ENDBRANCH   8   9
ENDBRANCH   1   8
BRANCH   4  17
ATOM     17  O   LIG    1        2.367   1.409  -0.013  0.00  0.00    -0.491 OA
ATOM     18  C   LIG    1        3.552   2.206  -0.021  0.00  0.00    +0.277 C 
ENDBRANCH   4  17
BRANCH   5  19
ATOM     19  O   LIG    1        0.002  -0.004   0.002  0.00  0.00    -0.488 OA
BRANCH  19  20
ATOM     20  C   LIG    1       -1.262  -0.670   0.011  0.00  0.00    +0.232 C 
BRANCH  20  21
ATOM     21  C   LIG    1       -1.041  -2.184   0.000  0.00  0.00    +0.027 C 
ATOM     22  C   LIG    1       -1.545  -2.963  -1.216  0.00  0.00    +0.007 C 
ATOM     23  C   LIG    1       -2.276  -3.079   0.123  0.00  0.00    +0.007 C 
ENDBRANCH  20  21
ENDBRANCH  19  20
ENDBRANCH   5  19
TORSDOF 7
