REMARK  Name = ZINC00049852
REMARK                            x       y       z     vdW  Elec       q    Type
REMARK                         _______ _______ _______ _____ _____    ______ ____
ROOT
ATOM      1  C   LIG    1        2.724  11.422   0.037  0.00  0.00    +0.001 A 
ATOM      2  C   LIG    1        4.092  11.229   0.025  0.00  0.00    +0.001 A 
ATOM      3  C   LIG    1        4.615   9.946   0.014  0.00  0.00    +0.012 A 
ATOM      4  C   LIG    1        3.761   8.849   0.015  0.00  0.00    +0.032 A 
ATOM      5  C   LIG    1        2.369   9.046   0.028  0.00  0.00    +0.014 A 
ATOM      6  C   LIG    1        1.700   7.721   0.027  0.00  0.00    +0.105 A 
ATOM      7  C   LIG    1        2.693   6.721   0.013  0.00  0.00    +0.052 A 
ATOM      8  C   LIG    1        2.296   5.393   0.015  0.00  0.00    +0.044 A 
ATOM      9  C   LIG    1        0.913   5.128   0.020  0.00  0.00    +0.101 A 
ATOM     10  N   LIG    1        0.051   6.139   0.033  0.00  0.00    -0.148 NA
ATOM     11  N   LIG    1        0.422   7.367   0.036  0.00  0.00    -0.148 NA
ATOM     12  C   LIG    1        4.015   7.389   0.005  0.00  0.00    +0.196 C 
ATOM     13  O   LIG    1        5.100   6.845  -0.007  0.00  0.00    -0.287 OA
ATOM     14  C   LIG    1        1.861  10.339   0.039  0.00  0.00    +0.011 A 
ENDROOT
BRANCH   9  15
ATOM     15  C   LIG    1        0.425   3.737   0.017  0.00  0.00    +0.039 A 
ATOM     16  C   LIG    1       -0.867   3.274   0.027  0.00  0.00    +0.018 A 
ATOM     17  C   LIG    1       -1.081   1.916   0.017  0.00  0.00    +0.008 A 
ATOM     18  C   LIG    1       -0.013   1.076   0.008  0.00  0.00    +0.046 A 
ATOM     19  S   LIG    1        1.361   2.217   0.001  0.00  0.00    -0.095 S 
ENDBRANCH   9  15
TORSDOF 1
