REMARK  Name = ZINC00034354
REMARK                            x       y       z     vdW  Elec       q    Type
REMARK                         _______ _______ _______ _____ _____    ______ ____
ROOT
ATOM      1  C   LIG    1       -0.013   1.076   0.008  0.00  0.00    +0.001 A 
ATOM      2  C   LIG    1        1.185   1.780   0.000  0.00  0.00    +0.002 A 
ATOM      3  C   LIG    1        1.189   3.157   0.007  0.00  0.00    +0.026 A 
ATOM      4  C   LIG    1       -0.016   3.853   0.022  0.00  0.00    +0.047 A 
ATOM      5  C   LIG    1       -1.229   3.136   0.030  0.00  0.00    +0.004 A 
ATOM      6  C   LIG    1       -2.273   4.092   0.044  0.00  0.00    +0.003 A 
ATOM      7  CA  LIG    1       -1.705   5.327   0.044  0.00  0.00    +0.129 A 
ATOM      8  N   LIG    1       -0.330   5.191   0.031  0.00  0.00    -0.349 N 
ATOM      9  H   LIG    1        0.310   5.921   0.029  0.00  0.00    +0.166 HD
ATOM     10  C   LIG    1       -1.207   1.735   0.017  0.00  0.00    +0.010 A 
ENDROOT
BRANCH   7  11
ATOM     11  C   LIG    1       -2.435   6.601   0.058  0.00  0.00    +0.354 C 
ATOM     12  O   LIG    1       -3.651   6.604   0.069  0.00  0.00    -0.243 OA
BRANCH  11  13
ATOM     13  OXT LIG    1       -1.758   7.767   0.057  0.00  0.00    -0.476 OA
ATOM     14  HXT LIG    1       -0.821   7.764   0.048  0.00  0.00    +0.295 HD
ENDBRANCH  11  13
ENDBRANCH   7  11
BRANCH   6  15
ATOM     15  C   LIG    1       -3.751   3.794   0.057  0.00  0.00    +0.158 C 
BRANCH  15  16
ATOM     16  C   LIG    1       -4.229   3.688   1.482  0.00  0.00    +0.309 C 
ATOM     17  O   LIG    1       -3.451   3.840   2.393  0.00  0.00    -0.251 OA
BRANCH  16  18
ATOM     18  O   LIG    1       -5.521   3.426   1.738  0.00  0.00    -0.480 OA
ATOM     19  H   LIG    1       -6.124   3.309   1.031  0.00  0.00    +0.295 HD
ENDBRANCH  16  18
ENDBRANCH  15  16
ENDBRANCH   6  15
TORSDOF 5
