REMARK  Name = ZINC00045127
REMARK                            x       y       z     vdW  Elec       q    Type
REMARK                         _______ _______ _______ _____ _____    ______ ____
ROOT
ATOM      1  C   LIG    1       -0.734   2.013  -0.764  0.00  0.00    +0.016 C 
ATOM      2  C   LIG    1        0.011   1.384   0.416  0.00  0.00    -0.008 C 
ATOM      3  C   LIG    1       -0.725   1.675   1.725  0.00  0.00    +0.016 C 
ATOM      4  C   LIG    1        0.152  -0.141   0.208  0.00  0.00    +0.027 C 
ATOM      5  C   LIG    1        1.529  -0.251  -0.462  0.00  0.00    +0.023 C 
ATOM      6  C   LIG    1        2.304   0.965  -0.028  0.00  0.00    -0.029 A 
ATOM      7  C   LIG    1        3.662   1.235  -0.070  0.00  0.00    +0.054 A 
ATOM      8  C   LIG    1        4.150   2.443   0.398  0.00  0.00    +0.159 A 
ATOM      9  C   LIG    1        3.271   3.390   0.913  0.00  0.00    +0.159 A 
ATOM     10  C   LIG    1        1.914   3.119   0.953  0.00  0.00    +0.053 A 
ATOM     11  C   LIG    1        2.240  -1.542  -0.033  0.00  0.00    +0.027 C 
ATOM     12  C   LIG    1        3.031  -1.917  -1.307  0.00  0.00    -0.008 C 
ATOM     13  C   LIG    1        4.449  -1.345  -1.238  0.00  0.00    +0.016 C 
ATOM     14  C   LIG    1        3.078  -3.437  -1.474  0.00  0.00    +0.016 C 
ATOM     15  C   LIG    1        2.266  -1.285  -2.451  0.00  0.00    -0.034 A 
ATOM     16  C   LIG    1        2.323  -1.536  -3.811  0.00  0.00    +0.053 A 
ATOM     17  C   LIG    1        1.520  -0.826  -4.687  0.00  0.00    +0.159 A 
ATOM     18  C   LIG    1        0.652   0.144  -4.195  0.00  0.00    +0.159 A 
ATOM     19  C   LIG    1        0.597   0.392  -2.835  0.00  0.00    +0.054 A 
ATOM     20  C   LIG    1        1.400  -0.321  -1.960  0.00  0.00    -0.029 A 
ATOM     21  C   LIG    1        1.429   1.910   0.482  0.00  0.00    -0.034 A 
ENDROOT
BRANCH   8  22
ATOM     22  O   LIG    1        5.484   2.703   0.354  0.00  0.00    -0.503 OA
ATOM     23  H   LIG    1        5.965   2.428   1.147  0.00  0.00    +0.292 HD
ENDBRANCH   8  22
BRANCH   9  24
ATOM     24  O   LIG    1        3.743   4.579   1.376  0.00  0.00    -0.503 OA
ATOM     25  H   LIG    1        3.973   4.571   2.315  0.00  0.00    +0.292 HD
ENDBRANCH   9  24
BRANCH  17  26
ATOM     26  O   LIG    1        1.579  -1.074  -6.023  0.00  0.00    -0.503 OA
ATOM     27  H   LIG    1        2.230  -0.536  -6.495  0.00  0.00    +0.292 HD
ENDBRANCH  17  26
BRANCH  18  28
ATOM     28  O   LIG    1       -0.140   0.847  -5.049  0.00  0.00    -0.503 OA
ATOM     29  H   LIG    1        0.265   1.661  -5.381  0.00  0.00    +0.292 HD
ENDBRANCH  18  28
TORSDOF 4
