REMARK  Name = ZINC00004285
REMARK                            x       y       z     vdW  Elec       q    Type
REMARK                         _______ _______ _______ _____ _____    ______ ____
ROOT
ATOM      1  N   LIG    1        3.582   2.124  -0.021  0.00  0.00    -0.333 N 
ATOM      2  C   LIG    1        3.588   3.592  -0.118  0.00  0.00    +0.086 C 
ATOM      3  C   LIG    1        4.479   4.148   0.998  0.00  0.00    -0.063 C 
ATOM      4  N   LIG    1        5.808   3.530   0.916  0.00  0.00    +0.381 N 
ATOM      5  H   LIG    1        6.417   3.951   1.602  0.00  0.00    -0.086 HD
ATOM      6  H   LIG    1        6.191   3.679  -0.006  0.00  0.00    -0.086 HD
ATOM      7  C   LIG    1        5.706   2.088   1.174  0.00  0.00    -0.063 C 
ATOM      8  C   LIG    1        4.876   1.430   0.073  0.00  0.00    +0.086 C 
ENDROOT
BRANCH   1  11
ATOM      9  C   LIG    1        1.209  -0.683  -0.026  0.00  0.00    +0.003 A 
ATOM     10  C   LIG    1        2.398   0.021  -0.034  0.00  0.00    +0.023 A 
ATOM     11  C   LIG    1        2.382   1.410  -0.013  0.00  0.00    +0.031 A 
ATOM     12  C   LIG    1        1.169   2.087   0.017  0.00  0.00    +0.043 A 
ATOM     13  C   LIG    1       -0.017   1.377   0.025  0.00  0.00    +0.043 A 
ATOM     14 CL   LIG    1       -1.533   2.221   0.063  0.00  0.00    -0.083 Cl
ATOM     15  C   LIG    1        0.004  -0.007   0.004  0.00  0.00    +0.020 A 
ENDBRANCH   1  11
TORSDOF 1
