REMARK  Name = ZINC00005475
REMARK                            x       y       z     vdW  Elec       q    Type
REMARK                         _______ _______ _______ _____ _____    ______ ____
ROOT
ATOM      1  N   LIG    1       -0.018  -3.971   3.841  0.00  0.00    -0.269 N 
ATOM      2  H   LIG    1       -0.274  -3.786   4.758  0.00  0.00    +0.156 HD
ATOM      3  C   LIG    1        0.482  -5.178   3.511  0.00  0.00    +0.308 C 
ATOM      4  N   LIG    1        0.530  -6.162   4.431  0.00  0.00    -0.268 N 
ATOM      5  H   LIG    1        0.137  -6.027   5.307  0.00  0.00    +0.156 HD
ATOM      6  O   LIG    1        0.891  -5.380   2.383  0.00  0.00    -0.252 OA
ENDROOT
BRANCH   1  13
ATOM      7  C   LIG    1       -0.578   1.198  -0.307  0.00  0.00    +0.149 C 
ATOM      8  N   LIG    1       -0.666  -0.262  -0.217  0.00  0.00    -0.350 N 
ATOM      9  C   LIG    1       -0.961  -1.097  -1.260  0.00  0.00    +0.086 A 
ATOM     10  C   LIG    1       -0.962  -2.372  -0.839  0.00  0.00    +0.027 A 
ATOM     11  C   LIG    1       -0.642  -2.352   0.591  0.00  0.00    +0.002 A 
ATOM     12  C   LIG    1       -0.499  -3.341   1.565  0.00  0.00    +0.033 A 
ATOM     13  C   LIG    1       -0.168  -2.982   2.859  0.00  0.00    +0.035 A 
ATOM     14  C   LIG    1        0.008  -1.641   3.192  0.00  0.00    +0.025 A 
ATOM     15  C   LIG    1       -0.136  -0.657   2.239  0.00  0.00    +0.028 A 
ATOM     16  C   LIG    1       -0.460  -0.999   0.930  0.00  0.00    +0.049 A 
ENDBRANCH   1  13
BRANCH   4  17
ATOM     17  C   LIG    1        1.147  -7.380   4.122  0.00  0.00    +0.053 A 
ATOM     18  C   LIG    1        2.231  -7.421   3.247  0.00  0.00    +0.026 A 
ATOM     19  C   LIG    1        2.808  -8.649   2.973  0.00  0.00    +0.021 A 
ATOM     20  C   LIG    1        2.295  -9.786   3.571  0.00  0.00    +0.111 A 
ATOM     21  N   LIG    1        1.268  -9.713   4.394  0.00  0.00    -0.261 NA
ATOM     22  C   LIG    1        0.693  -8.563   4.687  0.00  0.00    +0.134 A 
ENDBRANCH   4  17
TORSDOF 2
