REMARK  Name = ZINC00037170
REMARK                            x       y       z     vdW  Elec       q    Type
REMARK                         _______ _______ _______ _____ _____    ______ ____
ROOT
ATOM      1  C   LIG    1       -1.508   4.250  -0.493  0.00  0.00    +0.279 C 
ATOM      2  N   LIG    1       -0.719   3.187  -0.743  0.00  0.00    -0.201 N 
ATOM      3  C   LIG    1        0.615   3.224  -1.020  0.00  0.00    +0.150 A 
ATOM      4  C   LIG    1        1.027   1.951  -1.208  0.00  0.00    +0.159 A 
ATOM      5  C   LIG    1       -0.081   1.108  -1.043  0.00  0.00    +0.167 A 
ATOM      6  N   LIG    1       -1.124   1.846  -0.770  0.00  0.00    -0.170 NA
ATOM      7  O   LIG    1       -1.022   5.361  -0.410  0.00  0.00    -0.265 OA
ENDROOT
BRANCH   1  14
ATOM      8  C   LIG    1       -3.211   6.563  -0.141  0.00  0.00    +0.044 C 
ATOM      9  C   LIG    1       -3.795   5.174  -0.148  0.00  0.00    -0.038 A 
ATOM     10  C   LIG    1       -5.153   4.995   0.011  0.00  0.00    +0.004 A 
ATOM     11  C   LIG    1       -5.691   3.720   0.009  0.00  0.00    +0.000 A 
ATOM     12  C   LIG    1       -4.871   2.616  -0.154  0.00  0.00    +0.001 A 
ATOM     13  C   LIG    1       -3.512   2.781  -0.318  0.00  0.00    +0.013 A 
ATOM     14  C   LIG    1       -2.962   4.066  -0.319  0.00  0.00    +0.044 A 
ENDBRANCH   1  14
BRANCH   4  15
ATOM     15  N   LIG    1        2.406   1.522  -1.532  0.00  0.00    +0.009 N 
ATOM     16  O   LIG    1        2.658   0.340  -1.678  0.00  0.00    -0.130 OA
BRANCH  15  17
ATOM     17  O   LIG    1        3.290   2.352  -1.651  0.00  0.00    -0.396 OA
ATOM     18  H   LIG    1        3.096   3.262  -1.538  0.00  0.00    +0.329 HD
ENDBRANCH  15  17
ENDBRANCH   4  15
TORSDOF 3
