REMARK  Name = ZINC00004076
REMARK                            x       y       z     vdW  Elec       q    Type
REMARK                         _______ _______ _______ _____ _____    ______ ____
ROOT
ATOM      1  C   LIG    1        4.706  -0.726  -2.173  0.00  0.00    -0.045 A 
ATOM      2  C   LIG    1        5.184   0.389  -2.848  0.00  0.00    +0.006 A 
ATOM      3  C   LIG    1        6.516   0.734  -2.778  0.00  0.00    +0.026 A 
ATOM      4  C   LIG    1        7.392  -0.041  -2.024  0.00  0.00    +0.047 A 
ATOM      5  C   LIG    1        6.902  -1.169  -1.342  0.00  0.00    +0.003 A 
ATOM      6  C   LIG    1        8.054  -1.758  -0.655  0.00  0.00    -0.019 A 
ATOM      7  C   LIG    1        9.118  -0.993  -0.945  0.00  0.00    +0.087 A 
ATOM      8  N   LIG    1        8.742   0.038  -1.762  0.00  0.00    -0.360 N 
ATOM      9  H   LIG    1        9.337   0.723  -2.106  0.00  0.00    +0.165 HD
ATOM     10  C   LIG    1        5.548  -1.498  -1.422  0.00  0.00    +0.014 A 
ENDROOT
BRANCH   6  11
ATOM     11  C   LIG    1        8.046  -2.989   0.214  0.00  0.00    +0.018 C 
ATOM     12  C   LIG    1        8.525  -2.625   1.623  0.00  0.00    -0.011 C 
ATOM     13  C   LIG    1        8.590  -3.893   2.477  0.00  0.00    -0.079 C 
ATOM     14  N   LIG    1        9.526  -4.848   1.871  0.00  0.00    +0.378 N 
ATOM     15  H   LIG    1       10.432  -4.414   1.773  0.00  0.00    -0.082 HD
ATOM     16  C   LIG    1        9.644  -6.031   2.735  0.00  0.00    -0.096 C 
ATOM     17  C   LIG    1        9.035  -5.257   0.549  0.00  0.00    -0.079 C 
ATOM     18  C   LIG    1        8.987  -4.041  -0.379  0.00  0.00    -0.011 C 
ENDBRANCH   6  11
BRANCH   1  19
ATOM     19  C   LIG    1        3.245  -1.085  -2.264  0.00  0.00    +0.059 C 
BRANCH  19  20
ATOM     20  C   LIG    1        2.477  -0.384  -1.142  0.00  0.00    +0.189 C 
BRANCH  20  21
ATOM     21  S   LIG    1        0.718  -0.816  -1.251  0.00  0.00    +0.029 S 
ATOM     22  O   LIG    1        0.147  -0.250  -2.423  0.00  0.00    -0.158 OA
ATOM     23  O   LIG    1        0.532  -2.191  -0.946  0.00  0.00    -0.158 OA
BRANCH  21  25
ATOM     24  C   LIG    1       -0.018   1.461   0.010  0.00  0.00    +0.127 C 
ATOM     25  N   LIG    1        0.002  -0.004   0.002  0.00  0.00    -0.198 NA
ATOM     26  H   LIG    1       -0.404  -0.499   0.731  0.00  0.00    +0.147 HD
ENDBRANCH  21  25
ENDBRANCH  20  21
ENDBRANCH  19  20
ENDBRANCH   1  19
TORSDOF 5
