REMARK  Name = ZINC00019529
REMARK                            x       y       z     vdW  Elec       q    Type
REMARK                         _______ _______ _______ _____ _____    ______ ____
ROOT
ATOM      1  C   LIG    1       -0.077  -0.103  -2.474  0.00  0.00    +0.162 C 
ATOM      2  O   LIG    1       -1.114   0.512  -2.348  0.00  0.00    -0.292 OA
ENDROOT
BRANCH   1  10
ATOM      3  C   LIG    1        1.604  -1.169  -3.966  0.00  0.00    +0.013 A 
ATOM      4  C   LIG    1        2.047  -1.509  -5.226  0.00  0.00    +0.022 A 
ATOM      5  C   LIG    1        1.314  -1.145  -6.344  0.00  0.00    +0.059 A 
ATOM      6 CL   LIG    1        1.883  -1.573  -7.927  0.00  0.00    -0.082 Cl
ATOM      7  C   LIG    1        0.127  -0.441  -6.204  0.00  0.00    +0.060 A 
ATOM      8 CL   LIG    1       -0.784   0.010  -7.612  0.00  0.00    -0.082 Cl
ATOM      9  C   LIG    1       -0.331  -0.099  -4.949  0.00  0.00    +0.032 A 
ATOM     10  C   LIG    1        0.405  -0.464  -3.817  0.00  0.00    +0.019 A 
ENDBRANCH   1  10
BRANCH   1  11
ATOM     11  C   LIG    1        0.718  -0.497  -1.257  0.00  0.00    +0.074 C 
BRANCH  11  12
ATOM     12  CA  LIG    1        0.002  -0.004   0.002  0.00  0.00    +0.043 C 
BRANCH  12  13
ATOM     13  N   LIG    1       -0.029   1.469   0.032  0.00  0.00    +0.387 N 
ATOM     14  H1  LIG    1       -0.484   1.779   0.899  0.00  0.00    -0.089 HD
ATOM     15  H2  LIG    1       -0.556   1.823  -0.764  0.00  0.00    -0.089 HD
ATOM     16  H3  LIG    1        0.919   1.839   0.003  0.00  0.00    -0.089 HD
ENDBRANCH  12  13
BRANCH  12  17
ATOM     17  C   LIG    1        0.731  -0.503   1.223  0.00  0.00    +0.290 C 
ATOM     18  O   LIG    1        1.485   0.229   1.818  0.00  0.00    -0.253 OA
BRANCH  17  19
ATOM     19  OXT LIG    1        0.542  -1.762   1.649  0.00  0.00    -0.482 OA
ATOM     20  HXT LIG    1       -0.043  -2.330   1.188  0.00  0.00    +0.295 HD
ENDBRANCH  17  19
ENDBRANCH  12  17
ENDBRANCH  11  12
ENDBRANCH   1  11
TORSDOF 6
