REMARK  Name = ZINC00003767
REMARK                            x       y       z     vdW  Elec       q    Type
REMARK                         _______ _______ _______ _____ _____    ______ ____
ROOT
ATOM      1  C   LIG    1       -4.964  -2.620   0.035  0.00  0.00    +0.052 A 
ATOM      2  C   LIG    1       -5.888  -2.585   1.029  0.00  0.00    +0.156 A 
ATOM      3  O   LIG    1       -6.935  -3.336   0.658  0.00  0.00    -0.358 OA
ATOM      4  N   LIG    1       -6.688  -3.881  -0.623  0.00  0.00    -0.077 NA
ATOM      5  C   LIG    1       -5.513  -3.467  -1.031  0.00  0.00    +0.121 A 
ENDROOT
BRANCH   1   9
ATOM      6  C   LIG    1       -1.200  -0.637   0.010  0.00  0.00    +0.120 A 
ATOM      7  C   LIG    1       -2.374   0.104   0.019  0.00  0.00    +0.046 A 
ATOM      8  C   LIG    1       -3.596  -0.536   0.028  0.00  0.00    +0.012 A 
ATOM      9  C   LIG    1       -3.651  -1.929   0.026  0.00  0.00    -0.012 A 
ATOM     10  C   LIG    1       -2.471  -2.670   0.016  0.00  0.00    +0.012 A 
ATOM     11  C   LIG    1       -1.253  -2.025   0.003  0.00  0.00    +0.046 A 
BRANCH   6  13
ATOM     12  C   LIG    1       -0.017   1.425   0.010  0.00  0.00    +0.277 C 
ATOM     13  O   LIG    1        0.002  -0.004   0.002  0.00  0.00    -0.495 OA
ENDBRANCH   6  13
ENDBRANCH   1   9
BRANCH   5  14
ATOM     14  C   LIG    1       -4.861  -3.794  -2.321  0.00  0.00    +0.004 A 
ATOM     15  C   LIG    1       -4.061  -2.847  -2.960  0.00  0.00    +0.014 A 
ATOM     16  C   LIG    1       -3.456  -3.155  -4.160  0.00  0.00    +0.046 A 
ATOM     17  C   LIG    1       -3.642  -4.406  -4.733  0.00  0.00    +0.120 A 
ATOM     18  C   LIG    1       -4.438  -5.351  -4.099  0.00  0.00    +0.046 A 
ATOM     19  C   LIG    1       -5.041  -5.052  -2.896  0.00  0.00    +0.014 A 
BRANCH  17  20
ATOM     20  O   LIG    1       -3.045  -4.706  -5.915  0.00  0.00    -0.495 OA
ATOM     21  C   LIG    1       -3.279  -6.011  -6.448  0.00  0.00    +0.277 C 
ENDBRANCH  17  20
ENDBRANCH   5  14
BRANCH   2  22
ATOM     22  C   LIG    1       -5.759  -1.832   2.327  0.00  0.00    +0.198 C 
BRANCH  22  23
ATOM     23  C   LIG    1       -6.319  -0.443   2.160  0.00  0.00    +0.312 C 
ATOM     24  O   LIG    1       -6.779  -0.097   1.086  0.00  0.00    -0.251 OA
BRANCH  23  25
ATOM     25  O   LIG    1       -6.311   0.335   3.099  0.00  0.00    -0.480 OA
ATOM     26  H   LIG    1       -5.956   0.069   3.925  0.00  0.00    +0.295 HD
ENDBRANCH  23  25
ENDBRANCH  22  23
ENDBRANCH   2  22
TORSDOF 7
