REMARK  Name = ZINC00001590
REMARK                            x       y       z     vdW  Elec       q    Type
REMARK                         _______ _______ _______ _____ _____    ______ ____
ROOT
ATOM      1  C   LIG    1       -1.258  -0.783   0.010  0.00  0.00    +0.257 C 
ATOM      2  N   LIG    1       -1.218  -2.130   0.003  0.00  0.00    -0.250 N 
ATOM      3  H   LIG    1       -0.364  -2.590  -0.008  0.00  0.00    +0.169 HD
ATOM      4  O   LIG    1       -2.328  -0.207   0.024  0.00  0.00    -0.269 OA
ENDROOT
BRANCH   1  10
ATOM      5  C   LIG    1       -0.017   1.394   0.010  0.00  0.00    +0.033 A 
ATOM      6  C   LIG    1        1.182   2.080   0.002  0.00  0.00    +0.111 A 
ATOM      7  N   LIG    1        2.331   1.435  -0.013  0.00  0.00    -0.263 NA
ATOM      8  C   LIG    1        2.394   0.118  -0.021  0.00  0.00    +0.111 A 
ATOM      9  C   LIG    1        1.244  -0.647  -0.014  0.00  0.00    +0.033 A 
ATOM     10  C   LIG    1        0.002  -0.004   0.002  0.00  0.00    +0.041 A 
ENDBRANCH   1  10
BRANCH   2  11
ATOM     11  N   LIG    1       -2.381  -2.848   0.010  0.00  0.00    -0.254 NA
ATOM     12  H   LIG    1       -2.193  -3.839   0.003  0.00  0.00    +0.140 HD
ATOM     13  H   LIG    1       -2.972  -2.586  -0.764  0.00  0.00    +0.140 HD
ENDBRANCH   2  11
TORSDOF 2
