REMARK  Name = ZINC00066039
REMARK                            x       y       z     vdW  Elec       q    Type
REMARK                         _______ _______ _______ _____ _____    ______ ____
ROOT
ATOM      1  C   LIG    1       -0.017   1.373   0.010  0.00  0.00    +0.001 A 
ATOM      2  C   LIG    1        1.171   2.089   0.002  0.00  0.00    +0.002 A 
ATOM      3  C   LIG    1        2.383   1.433  -0.013  0.00  0.00    +0.026 A 
ATOM      4  C   LIG    1        2.424   0.042  -0.021  0.00  0.00    +0.048 A 
ATOM      5  C   LIG    1        1.220  -0.681  -0.013  0.00  0.00    +0.007 A 
ATOM      6  C   LIG    1        1.590  -2.104  -0.025  0.00  0.00    +0.010 A 
ATOM      7  C   LIG    1        0.877  -3.303  -0.025  0.00  0.00    +0.030 A 
ATOM      8  C   LIG    1        1.577  -4.491  -0.040  0.00  0.00    +0.111 A 
ATOM      9  N   LIG    1        2.898  -4.502  -0.052  0.00  0.00    -0.261 NA
ATOM     10  C   LIG    1        3.615  -3.398  -0.052  0.00  0.00    +0.136 A 
ATOM     11  C   LIG    1        2.995  -2.154  -0.039  0.00  0.00    +0.066 A 
ATOM     12  N   LIG    1        3.474  -0.858  -0.036  0.00  0.00    -0.353 N 
ATOM     13  H   LIG    1        4.413  -0.613  -0.044  0.00  0.00    +0.166 HD
ATOM     14  C   LIG    1        0.002  -0.004   0.002  0.00  0.00    +0.010 A 
ENDROOT
TORSDOF 0
