REMARK  Name = ZINC00020441
REMARK                            x       y       z     vdW  Elec       q    Type
REMARK                         _______ _______ _______ _____ _____    ______ ____
ROOT
ATOM      1  C   LIG    1        3.695  -0.684  -0.037  0.00  0.00    +0.143 A 
ATOM      2  N   LIG    1        3.681  -2.043  -0.050  0.00  0.00    -0.336 N 
ATOM      3  H   LIG    1        2.835  -2.517  -0.048  0.00  0.00    +0.167 HD
ATOM      4  C   LIG    1        4.868  -2.752  -0.066  0.00  0.00    +0.095 A 
ATOM      5  C   LIG    1        6.078  -2.037  -0.069  0.00  0.00    +0.068 A 
ATOM      6  C   LIG    1        6.013  -0.564  -0.054  0.00  0.00    +0.281 A 
ATOM      7  O   LIG    1        7.032   0.106  -0.056  0.00  0.00    -0.265 OA
ATOM      8  C   LIG    1        7.292  -2.720  -0.084  0.00  0.00    +0.015 A 
ATOM      9  C   LIG    1        7.297  -4.099  -0.096  0.00  0.00    +0.004 A 
ATOM     10  C   LIG    1        6.105  -4.808  -0.094  0.00  0.00    +0.047 A 
ATOM     11  C   LIG    1        4.891  -4.145  -0.079  0.00  0.00    +0.141 A 
ATOM     12  N   LIG    1        4.805   0.021  -0.045  0.00  0.00    -0.191 NA
ENDROOT
BRANCH   1  16
ATOM     13  C   LIG    1       -0.017   1.379   0.010  0.00  0.00    +0.000 A 
ATOM     14  C   LIG    1        1.168   2.094   0.002  0.00  0.00    +0.001 A 
ATOM     15  C   LIG    1        2.377   1.430  -0.013  0.00  0.00    +0.011 A 
ATOM     16  C   LIG    1        2.404   0.034  -0.021  0.00  0.00    +0.017 A 
ATOM     17  C   LIG    1        1.204  -0.681  -0.013  0.00  0.00    +0.011 A 
ATOM     18  C   LIG    1        0.002  -0.004   0.002  0.00  0.00    +0.001 A 
ENDBRANCH   1  16
BRANCH  11  19
ATOM     19  O   LIG    1        3.728  -4.848  -0.076  0.00  0.00    -0.505 OA
ATOM     20  H   LIG    1        2.907  -4.397  -0.065  0.00  0.00    +0.292 HD
ENDBRANCH  11  19
TORSDOF 2
