REMARK  Name = ZINC00022168
REMARK                            x       y       z     vdW  Elec       q    Type
REMARK                         _______ _______ _______ _____ _____    ______ ____
ROOT
ATOM      1  C   LIG    1       -0.018   1.503   0.010  0.00  0.00    +0.044 C 
ATOM      2  C   LIG    1        0.002  -0.004   0.002  0.00  0.00    -0.047 A 
ATOM      3  C   LIG    1        0.006  -0.686  -1.199  0.00  0.00    +0.003 A 
ATOM      4  C   LIG    1        0.025  -2.068  -1.208  0.00  0.00    +0.001 A 
ATOM      5  C   LIG    1        0.040  -2.765  -0.015  0.00  0.00    +0.004 A 
ATOM      6  C   LIG    1        0.036  -2.083   1.190  0.00  0.00    -0.035 A 
ATOM      7  C   LIG    1        0.049  -2.603   2.611  0.00  0.00    +0.070 C 
ATOM      8  C   LIG    1       -0.386  -1.412   3.484  0.00  0.00    +0.019 C 
ATOM      9  C   LIG    1        0.029  -0.198   2.626  0.00  0.00    +0.036 C 
ATOM     10  C   LIG    1        0.023  -0.701   1.198  0.00  0.00    -0.041 A 
ENDROOT
BRANCH   7  11
ATOM     11  C   LIG    1       -0.914  -3.753   2.756  0.00  0.00    +0.066 A 
ATOM     12  C   LIG    1       -2.079  -3.897   2.097  0.00  0.00    +0.107 A 
ATOM     13  N   LIG    1       -2.633  -5.074   2.524  0.00  0.00    -0.351 N 
ATOM     14  H   LIG    1       -3.477  -5.453   2.231  0.00  0.00    +0.166 HD
ATOM     15  C   LIG    1       -1.786  -5.608   3.430  0.00  0.00    +0.196 A 
ATOM     16  N   LIG    1       -0.758  -4.815   3.560  0.00  0.00    -0.240 NA
ENDBRANCH   7  11
TORSDOF 1
