REMARK  Name = ZINC00020245
REMARK                            x       y       z     vdW  Elec       q    Type
REMARK                         _______ _______ _______ _____ _____    ______ ____
ROOT
ATOM      1  N   LIG    1       -2.770  -4.031  -0.119  0.00  0.00    -0.300 N 
ATOM      2  C   LIG    1       -2.729  -4.745  -1.321  0.00  0.00    +0.037 A 
ATOM      3  C   LIG    1       -1.687  -4.478  -2.202  0.00  0.00    +0.024 A 
ATOM      4  C   LIG    1       -1.573  -5.177  -3.386  0.00  0.00    +0.002 A 
ATOM      5  C   LIG    1       -2.509  -6.151  -3.685  0.00  0.00    +0.000 A 
ATOM      6  C   LIG    1       -3.549  -6.404  -2.821  0.00  0.00    +0.005 A 
ATOM      7  C   LIG    1       -3.693  -5.695  -1.627  0.00  0.00    -0.026 A 
ATOM      8  C   LIG    1       -4.936  -6.034  -0.835  0.00  0.00    +0.042 C 
ATOM      9  C   LIG    1       -5.101  -5.189   0.416  0.00  0.00    +0.042 C 
ATOM     10  C   LIG    1       -3.959  -5.403   1.378  0.00  0.00    -0.026 A 
ATOM     11  C   LIG    1       -4.068  -6.186   2.503  0.00  0.00    +0.005 A 
ATOM     12  C   LIG    1       -2.957  -6.295   3.349  0.00  0.00    +0.000 A 
ATOM     13  C   LIG    1       -1.782  -5.625   3.056  0.00  0.00    +0.002 A 
ATOM     14  C   LIG    1       -1.684  -4.849   1.913  0.00  0.00    +0.024 A 
ATOM     15  C   LIG    1       -2.782  -4.759   1.075  0.00  0.00    +0.037 A 
ENDROOT
BRANCH   1  16
ATOM     16  C   LIG    1       -2.794  -2.566  -0.111  0.00  0.00    +0.109 C 
BRANCH  16  17
ATOM     17  C   LIG    1       -4.243  -2.079  -0.058  0.00  0.00    +0.001 C 
BRANCH  17  18
ATOM     18  C   LIG    1       -4.270  -0.550  -0.108  0.00  0.00    -0.078 C 
BRANCH  18  20
ATOM     19  C   LIG    1       -5.684   1.384   0.016  0.00  0.00    -0.097 C 
ATOM     20  N   LIG    1       -5.662  -0.083  -0.056  0.00  0.00    +0.376 N 
ATOM     21  H   LIG    1       -6.116  -0.467   0.759  0.00  0.00    -0.083 HD
ATOM     22  C   LIG    1       -6.371  -0.524  -1.265  0.00  0.00    -0.097 C 
ENDBRANCH  18  20
ENDBRANCH  17  18
ENDBRANCH  16  17
ENDBRANCH   1  16
TORSDOF 4
