REMARK  Name = ZINC00058124
REMARK                            x       y       z     vdW  Elec       q    Type
REMARK                         _______ _______ _______ _____ _____    ______ ____
ROOT
ATOM      1  C   LIG    1       -0.018   1.503   0.010  0.00  0.00    +0.045 C 
ATOM      2  C   LIG    1        0.002  -0.004   0.002  0.00  0.00    -0.033 A 
ATOM      3  C   LIG    1        0.006  -0.695  -1.167  0.00  0.00    +0.096 A 
ATOM      4  C   LIG    1        0.026  -2.105  -1.149  0.00  0.00    +0.338 A 
ATOM      5  O   LIG    1        0.042  -2.795   0.002  0.00  0.00    -0.418 OA
ATOM      6  C   LIG    1        0.038  -2.169   1.199  0.00  0.00    +0.184 A 
ATOM      7  C   LIG    1        0.054  -2.898   2.383  0.00  0.00    +0.202 A 
ATOM      8  C   LIG    1        0.067  -2.231   3.601  0.00  0.00    +0.162 A 
ATOM      9  C   LIG    1        0.048  -0.840   3.646  0.00  0.00    +0.050 A 
ATOM     10  C   LIG    1        0.027  -0.110   2.492  0.00  0.00    +0.015 A 
ATOM     11  O   LIG    1        0.029  -2.712  -2.205  0.00  0.00    -0.245 OA
ATOM     12  C   LIG    1        0.024  -0.763   1.254  0.00  0.00    +0.024 A 
ENDROOT
BRANCH   7  13
ATOM     13  O   LIG    1        0.073  -4.258   2.347  0.00  0.00    -0.501 OA
ATOM     14  H   LIG    1        0.962  -4.638   2.333  0.00  0.00    +0.292 HD
ENDBRANCH   7  13
BRANCH   8  15
ATOM     15  O   LIG    1        0.088  -2.943   4.759  0.00  0.00    -0.503 OA
ATOM     16  H   LIG    1       -0.789  -3.161   5.102  0.00  0.00    +0.292 HD
ENDBRANCH   8  15
TORSDOF 2
