REMARK  Name = ZINC00020230
REMARK                            x       y       z     vdW  Elec       q    Type
REMARK                         _______ _______ _______ _____ _____    ______ ____
ROOT
ATOM      1  C   LIG    1        2.784  -0.463  -2.476  0.00  0.00    +0.128 C 
ENDROOT
BRANCH   1   2
ATOM      2  C   LIG    1        4.231  -0.045  -2.427  0.00  0.00    -0.020 A 
ATOM      3  C   LIG    1        4.588   1.248  -2.765  0.00  0.00    +0.009 A 
ATOM      4  C   LIG    1        5.913   1.633  -2.722  0.00  0.00    +0.046 A 
ATOM      5  C   LIG    1        6.887   0.723  -2.338  0.00  0.00    +0.122 A 
ATOM      6  C   LIG    1        6.527  -0.573  -1.998  0.00  0.00    +0.020 A 
ATOM      7  C   LIG    1        5.199  -0.952  -2.039  0.00  0.00    +0.015 A 
BRANCH   5   8
ATOM      8  O   LIG    1        8.192   1.099  -2.295  0.00  0.00    -0.506 OA
ATOM      9  H   LIG    1        8.470   1.457  -1.440  0.00  0.00    +0.292 HD
ENDBRANCH   5   8
BRANCH   6  10
ATOM     10  C   LIG    1        7.582  -1.565  -1.581  0.00  0.00    +0.194 C 
BRANCH  10  11
ATOM     11  O   LIG    1        6.966  -2.819  -1.284  0.00  0.00    -0.390 OA
ATOM     12  H   LIG    1        7.587  -3.507  -1.008  0.00  0.00    +0.210 HD
ENDBRANCH  10  11
ENDBRANCH   6  10
ENDBRANCH   1   2
BRANCH   1  13
ATOM     13  O   LIG    1        2.163   0.105  -3.631  0.00  0.00    -0.389 OA
ATOM     14  H   LIG    1        2.181   1.072  -3.652  0.00  0.00    +0.210 HD
ENDBRANCH   1  13
BRANCH   1  15
ATOM     15  C   LIG    1        2.068   0.031  -1.217  0.00  0.00    -0.045 C 
BRANCH  15  16
ATOM     16  N   LIG    1        0.690  -0.478  -1.207  0.00  0.00    +0.384 N 
ATOM     17  H   LIG    1        0.202  -0.144  -2.024  0.00  0.00    -0.085 HD
ATOM     18  H   LIG    1        0.703  -1.487  -1.212  0.00  0.00    -0.085 HD
BRANCH  16  20
ATOM     19  C   LIG    1       -0.019   1.526   0.010  0.00  0.00    -0.011 C 
ATOM     20  C   LIG    1        0.002  -0.004   0.002  0.00  0.00    -0.077 C 
ATOM     21  C   LIG    1       -1.433  -0.534   0.013  0.00  0.00    -0.011 C 
ATOM     22  C   LIG    1        0.742  -0.511   1.242  0.00  0.00    -0.011 C 
ENDBRANCH  16  20
ENDBRANCH  15  16
ENDBRANCH   1  15
TORSDOF 8
