REMARK  Name = ZINC00018379
REMARK                            x       y       z     vdW  Elec       q    Type
REMARK                         _______ _______ _______ _____ _____    ______ ____
ROOT
ATOM      1  O   LIG    1       -0.704   1.559  -1.150  0.00  0.00    -0.492 OA
ENDROOT
BRANCH   1   4
ATOM      2  C   LIG    1       -2.048   2.481  -3.458  0.00  0.00    +0.069 C 
ATOM      3  C   LIG    1       -0.808   1.628  -3.531  0.00  0.00    +0.080 A 
ATOM      4  C   LIG    1       -0.194   1.208  -2.360  0.00  0.00    +0.141 A 
ATOM      5  C   LIG    1        0.954   0.426  -2.441  0.00  0.00    +0.049 A 
ATOM      6  C   LIG    1        1.432   0.088  -3.697  0.00  0.00    +0.023 A 
ATOM      7  C   LIG    1        0.766   0.545  -4.818  0.00  0.00    +0.111 A 
ATOM      8  N   LIG    1       -0.317   1.289  -4.706  0.00  0.00    -0.257 NA
ENDBRANCH   1   4
BRANCH   1   9
ATOM      9  C   LIG    1       -0.013   1.086   0.008  0.00  0.00    +0.213 C 
BRANCH   9  10
ATOM     10  C   LIG    1       -0.729   1.579   1.267  0.00  0.00    -0.034 C 
ATOM     11  N   LIG    1       -0.595   3.042   1.398  0.00  0.00    +0.383 N 
ATOM     12  H   LIG    1        0.228   3.361   0.875  0.00  0.00    -0.085 HD
ATOM     13  H   LIG    1       -1.436   3.499   1.026  0.00  0.00    -0.085 HD
ATOM     14  C   LIG    1       -0.438   3.382   2.820  0.00  0.00    -0.082 C 
ATOM     15  C   LIG    1       -0.452   2.054   3.607  0.00  0.00    -0.021 C 
ATOM     16  C   LIG    1       -0.047   1.007   2.534  0.00  0.00    -0.014 C 
ENDBRANCH   9  10
ENDBRANCH   1   9
TORSDOF 3
