REMARK  Name = ZINC00006156
REMARK                            x       y       z     vdW  Elec       q    Type
REMARK                         _______ _______ _______ _____ _____    ______ ____
ROOT
ATOM      1  C   LIG    1        3.711  -0.707  -0.038  0.00  0.00    +0.139 C 
ENDROOT
BRANCH   1   5
ATOM      2  C   LIG    1        0.096   1.563   0.107  0.00  0.00    +0.000 A 
ATOM      3  C   LIG    1        1.318   2.208   0.126  0.00  0.00    +0.000 A 
ATOM      4  C   LIG    1        2.488   1.474   0.079  0.00  0.00    +0.005 A 
ATOM      5  C   LIG    1        2.436   0.094   0.014  0.00  0.00    -0.028 A 
ATOM      6  C   LIG    1        1.213  -0.552  -0.003  0.00  0.00    +0.005 A 
ATOM      7  C   LIG    1        0.043   0.183   0.042  0.00  0.00    +0.000 A 
ENDBRANCH   1   5
BRANCH   1   8
ATOM      8  C   LIG    1        3.870  -1.483   1.245  0.00  0.00    -0.028 A 
ATOM      9  C   LIG    1        3.012  -2.528   1.531  0.00  0.00    +0.005 A 
ATOM     10  C   LIG    1        3.158  -3.240   2.707  0.00  0.00    +0.000 A 
ATOM     11  C   LIG    1        4.161  -2.906   3.597  0.00  0.00    +0.000 A 
ATOM     12  C   LIG    1        5.020  -1.861   3.310  0.00  0.00    +0.000 A 
ATOM     13  C   LIG    1        4.877  -1.153   2.132  0.00  0.00    +0.005 A 
ENDBRANCH   1   8
BRANCH   1  14
ATOM     14  S   LIG    1        3.645  -1.859  -1.437  0.00  0.00    +0.043 S 
ATOM     15  O   LIG    1        4.913  -2.479  -1.601  0.00  0.00    -0.256 OA
BRANCH  14  16
ATOM     16  C   LIG    1        3.303  -0.795  -2.866  0.00  0.00    +0.200 C 
BRANCH  16  17
ATOM     17  C   LIG    1        3.222  -1.639  -4.112  0.00  0.00    +0.223 C 
ATOM     18  N   LIG    1        2.975  -1.058  -5.303  0.00  0.00    -0.329 N 
ATOM     19  H   LIG    1        2.922  -1.601  -6.106  0.00  0.00    +0.145 HD
ATOM     20  H   LIG    1        2.849  -0.098  -5.358  0.00  0.00    +0.145 HD
ATOM     21  O   LIG    1        3.379  -2.839  -4.043  0.00  0.00    -0.275 OA
ENDBRANCH  16  17
ENDBRANCH  14  16
ENDBRANCH   1  14
TORSDOF 5
