REMARK  Name = ZINC00040236
REMARK                            x       y       z     vdW  Elec       q    Type
REMARK                         _______ _______ _______ _____ _____    ______ ____
ROOT
ATOM      1  C   LIG    1        5.605   3.198  -0.397  0.00  0.00    +0.000 A 
ATOM      2  C   LIG    1        6.229   2.779   0.763  0.00  0.00    +0.002 A 
ATOM      3  C   LIG    1        5.628   1.845   1.581  0.00  0.00    +0.023 A 
ATOM      4  C   LIG    1        4.384   1.315   1.240  0.00  0.00    +0.037 A 
ATOM      5  C   LIG    1        3.768   1.744   0.072  0.00  0.00    -0.013 A 
ATOM      6  C   LIG    1        2.457   0.997  -0.016  0.00  0.00    +0.135 C 
ATOM      7  C   LIG    1        2.443   0.130   1.225  0.00  0.00    +0.226 C 
ATOM      8  O   LIG    1        1.566  -0.639   1.557  0.00  0.00    -0.275 OA
ATOM      9  N   LIG    1        3.585   0.373   1.890  0.00  0.00    -0.285 N 
ATOM     10  H   LIG    1        3.826  -0.056   2.726  0.00  0.00    +0.155 HD
ATOM     11  C   LIG    1        4.370   2.677  -0.742  0.00  0.00    +0.006 A 
ENDROOT
BRANCH   6  12
ATOM     12  C   LIG    1        1.280   1.975   0.000  0.00  0.00    +0.216 C 
BRANCH  12  13
ATOM     13  C   LIG    1       -0.014   1.204   0.009  0.00  0.00    +0.323 C 
ATOM     14  O   LIG    1        0.002  -0.004   0.002  0.00  0.00    -0.250 OA
BRANCH  13  15
ATOM     15  O   LIG    1       -1.186   1.859   0.018  0.00  0.00    -0.480 OA
ATOM     16  H   LIG    1       -1.198   2.796   0.023  0.00  0.00    +0.295 HD
ENDBRANCH  13  15
ENDBRANCH  12  13
BRANCH  12  17
ATOM     17  C   LIG    1        1.335   2.829  -1.198  0.00  0.00    +0.078 C 
ATOM     18  N   LIG    1        1.378   3.488  -2.122  0.00  0.00    -0.196 NA
ENDBRANCH  12  17
ENDBRANCH   6  12
TORSDOF 4
