REMARK  Name = ZINC00023387
REMARK                            x       y       z     vdW  Elec       q    Type
REMARK                         _______ _______ _______ _____ _____    ______ ____
ROOT
ATOM      1  C   LIG    1       -3.296   7.170   0.810  0.00  0.00    +0.108 C 
ATOM      2  C   LIG    1       -3.994   6.912  -0.533  0.00  0.00    +0.106 C 
ATOM      3  C   LIG    1       -3.116   5.977  -1.340  0.00  0.00    +0.167 C 
ATOM      4  C   LIG    1       -2.507   4.841  -0.637  0.00  0.00    +0.042 A 
ATOM      5  C   LIG    1       -1.940   3.778  -1.351  0.00  0.00    +0.062 A 
ATOM      6  C   LIG    1       -1.369   2.725  -0.670  0.00  0.00    +0.167 A 
ATOM      7  C   LIG    1       -1.356   2.717   0.730  0.00  0.00    +0.168 A 
ATOM      8  O   LIG    1       -0.737   1.575   1.152  0.00  0.00    -0.453 OA
ATOM      9  C   LIG    1       -0.013   1.086   0.008  0.00  0.00    +0.466 C 
ATOM     10  C   LIG    1       -1.917   3.765   1.442  0.00  0.00    +0.073 A 
ATOM     11  O   LIG    1       -0.759   1.587  -1.117  0.00  0.00    -0.453 OA
ATOM     12  C   LIG    1       -2.495   4.831   0.770  0.00  0.00    +0.042 A 
ATOM     13  O   LIG    1       -2.923   6.160  -2.524  0.00  0.00    -0.292 OA
ATOM     14  N   LIG    1       -3.062   5.884   1.477  0.00  0.00    -0.336 N 
ATOM     15  H   LIG    1       -3.304   5.769   2.409  0.00  0.00    +0.147 HD
ENDROOT
BRANCH   1  18
ATOM     16  C   LIG    1       -0.663   9.864   0.539  0.00  0.00    +0.003 A 
ATOM     17  C   LIG    1       -1.871   9.228   0.757  0.00  0.00    +0.005 A 
ATOM     18  C   LIG    1       -1.978   7.862   0.572  0.00  0.00    -0.024 A 
ATOM     19  C   LIG    1       -0.875   7.130   0.174  0.00  0.00    +0.043 A 
ATOM     20  C   LIG    1        0.334   7.767  -0.050  0.00  0.00    +0.124 A 
ATOM     21  F   LIG    1        1.411   7.053  -0.444  0.00  0.00    -0.205 F 
ATOM     22  C   LIG    1        0.439   9.135   0.136  0.00  0.00    +0.038 A 
ENDBRANCH   1  18
TORSDOF 1
