REMARK  Name = ZINC00057400
REMARK                            x       y       z     vdW  Elec       q    Type
REMARK                         _______ _______ _______ _____ _____    ______ ____
ROOT
ATOM      1  N   LIG    1       -1.952  -0.447  -1.311  0.00  0.00    -0.298 N 
ATOM      2  C   LIG    1       -2.663   0.750  -1.335  0.00  0.00    +0.048 A 
ATOM      3  C   LIG    1       -3.059   1.319  -0.129  0.00  0.00    +0.024 A 
ATOM      4  C   LIG    1       -3.762   2.509  -0.116  0.00  0.00    +0.002 A 
ATOM      5  C   LIG    1       -4.078   3.143  -1.303  0.00  0.00    +0.001 A 
ATOM      6  C   LIG    1       -3.691   2.586  -2.507  0.00  0.00    +0.017 A 
ATOM      7  C   LIG    1       -2.987   1.390  -2.528  0.00  0.00    +0.034 A 
ATOM      8  S   LIG    1       -2.511   0.690  -4.073  0.00  0.00    -0.086 S 
ATOM      9  C   LIG    1       -2.122  -0.983  -3.680  0.00  0.00    +0.034 A 
ATOM     10  C   LIG    1       -2.045  -1.922  -4.697  0.00  0.00    +0.020 A 
ATOM     11  C   LIG    1       -1.729  -3.232  -4.413  0.00  0.00    +0.047 A 
ATOM     12  C   LIG    1       -1.502  -3.618  -3.101  0.00  0.00    +0.122 A 
ATOM     13  C   LIG    1       -1.581  -2.684  -2.079  0.00  0.00    +0.070 A 
ATOM     14  C   LIG    1       -1.887  -1.358  -2.362  0.00  0.00    +0.051 A 
ENDROOT
BRANCH  12  15
ATOM     15  O   LIG    1       -1.201  -4.913  -2.816  0.00  0.00    -0.495 OA
ATOM     16  C   LIG    1       -1.136  -5.821  -3.917  0.00  0.00    +0.277 C 
ENDBRANCH  12  15
BRANCH   1  17
ATOM     17  C   LIG    1       -1.210  -0.768  -0.089  0.00  0.00    +0.112 C 
BRANCH  17  19
ATOM     18  C   LIG    1        0.312   1.193  -0.371  0.00  0.00    +0.007 C 
ATOM     19  C   LIG    1        0.248  -0.330  -0.248  0.00  0.00    -0.013 C 
BRANCH  19  20
ATOM     20  C   LIG    1        1.050  -0.777   0.976  0.00  0.00    -0.075 C 
BRANCH  20  21
ATOM     21  N   LIG    1        2.472  -0.474   0.766  0.00  0.00    +0.376 N 
ATOM     22  H   LIG    1        2.578   0.504   0.540  0.00  0.00    -0.083 HD
ATOM     23  C   LIG    1        2.990  -1.290  -0.339  0.00  0.00    -0.097 C 
ATOM     24  C   LIG    1        3.223  -0.776   1.992  0.00  0.00    -0.097 C 
ENDBRANCH  20  21
ENDBRANCH  19  20
ENDBRANCH  17  19
ENDBRANCH   1  17
TORSDOF 5
