REMARK  Name = ZINC00006310
REMARK                            x       y       z     vdW  Elec       q    Type
REMARK                         _______ _______ _______ _____ _____    ______ ____
ROOT
ATOM      1  S   LIG    1        3.890   2.319  -0.024  0.00  0.00    +0.025 S 
ATOM      2  O   LIG    1        3.595   3.599  -0.565  0.00  0.00    -0.164 OA
ATOM      3  O   LIG    1        4.872   1.461  -0.589  0.00  0.00    -0.164 OA
ENDROOT
BRANCH   1   6
ATOM      4  C   LIG    1       -0.017   1.385   0.010  0.00  0.00    +0.024 A 
ATOM      5  C   LIG    1        1.171   2.090   0.002  0.00  0.00    +0.029 A 
ATOM      6  C   LIG    1        2.377   1.415  -0.013  0.00  0.00    +0.094 A 
ATOM      7  C   LIG    1        2.400   0.032  -0.022  0.00  0.00    +0.029 A 
ATOM      8  C   LIG    1        1.216  -0.679  -0.014  0.00  0.00    +0.024 A 
ATOM      9  C   LIG    1        0.002  -0.004   0.002  0.00  0.00    +0.025 A 
BRANCH   9  10
ATOM     10  N   LIG    1       -1.197  -0.720   0.010  0.00  0.00    -0.358 N 
ATOM     11  H   LIG    1       -1.183  -1.690   0.005  0.00  0.00    +0.142 HD
ATOM     12  H   LIG    1       -2.044  -0.248   0.021  0.00  0.00    +0.142 HD
ENDBRANCH   9  10
ENDBRANCH   1   6
BRANCH   1  13
ATOM     13  C   LIG    1        4.354   2.577   1.656  0.00  0.00    +0.094 A 
ATOM     14  C   LIG    1        3.916   3.704   2.328  0.00  0.00    +0.029 A 
ATOM     15  C   LIG    1        4.278   3.909   3.645  0.00  0.00    +0.024 A 
ATOM     16  C   LIG    1        5.082   2.982   4.295  0.00  0.00    +0.025 A 
ATOM     17  C   LIG    1        5.520   1.851   3.618  0.00  0.00    +0.024 A 
ATOM     18  C   LIG    1        5.150   1.649   2.303  0.00  0.00    +0.029 A 
BRANCH  16  19
ATOM     19  N   LIG    1        5.450   3.186   5.627  0.00  0.00    -0.358 N 
ATOM     20  H   LIG    1        6.011   2.538   6.080  0.00  0.00    +0.142 HD
ATOM     21  H   LIG    1        5.144   3.977   6.099  0.00  0.00    +0.142 HD
ENDBRANCH  16  19
ENDBRANCH   1  13
TORSDOF 4
