REMARK  Name = ZINC00015095
REMARK                            x       y       z     vdW  Elec       q    Type
REMARK                         _______ _______ _______ _____ _____    ______ ____
ROOT
ATOM      1  C   LIG    1        2.472   1.020  -0.016  0.00  0.00    +0.044 C 
ATOM      2  C   LIG    1        1.161   1.764   0.000  0.00  0.00    -0.036 A 
ATOM      3  C   LIG    1        0.004   1.098   0.261  0.00  0.00    +0.049 A 
ATOM      4  C   LIG    1       -1.222   1.771   0.275  0.00  0.00    +0.118 A 
ATOM      5  C   LIG    1       -1.283   3.127   0.035  0.00  0.00    +0.054 A 
ATOM      6  C   LIG    1       -0.104   3.837  -0.237  0.00  0.00    -0.010 A 
ATOM      7  C   LIG    1       -0.136   5.221  -0.492  0.00  0.00    +0.015 A 
ATOM      8  C   LIG    1        1.009   5.905  -0.758  0.00  0.00    -0.005 A 
ATOM      9  C   LIG    1        0.917   7.381  -1.039  0.00  0.00    +0.146 C 
ATOM     10  C   LIG    1        2.247   8.079  -0.768  0.00  0.00    +0.044 C 
ATOM     11  C   LIG    1        3.357   7.389  -1.571  0.00  0.00    +0.082 C 
ATOM     12  C   LIG    1        3.485   5.975  -1.044  0.00  0.00    +0.167 C 
ATOM     13  O   LIG    1        4.574   5.473  -0.854  0.00  0.00    -0.292 OA
ATOM     14  C   LIG    1        2.248   5.232  -0.772  0.00  0.00    +0.065 A 
ATOM     15  C   LIG    1        2.317   3.858  -0.524  0.00  0.00    +0.136 A 
ATOM     16  C   LIG    1        1.133   3.145  -0.253  0.00  0.00    +0.027 A 
ENDROOT
BRANCH   4  17
ATOM     17  O   LIG    1       -2.363   1.083   0.532  0.00  0.00    -0.507 OA
ATOM     18  H   LIG    1       -2.596   1.043   1.470  0.00  0.00    +0.292 HD
ENDBRANCH   4  17
BRANCH   9  19
ATOM     19  O   LIG    1       -0.091   7.955  -0.205  0.00  0.00    -0.387 OA
ATOM     20  H   LIG    1       -0.209   8.907  -0.329  0.00  0.00    +0.210 HD
ENDBRANCH   9  19
BRANCH  15  21
ATOM     21  O   LIG    1        3.510   3.220  -0.544  0.00  0.00    -0.505 OA
ATOM     22  H   LIG    1        3.757   2.873  -1.412  0.00  0.00    +0.292 HD
ENDBRANCH  15  21
TORSDOF 3
