REMARK  Name = ZINC00019636
REMARK                            x       y       z     vdW  Elec       q    Type
REMARK                         _______ _______ _______ _____ _____    ______ ____
ROOT
ATOM      1  C   LIG    1        0.000  -0.694  -1.209  0.00  0.00    +0.029 A 
ATOM      2  C   LIG    1        0.013  -2.085  -1.215  0.00  0.00    +0.024 A 
ATOM      3  C   LIG    1        0.011  -2.770  -2.410  0.00  0.00    +0.012 A 
ATOM      4  C   LIG    1       -0.005  -2.067  -3.616  0.00  0.00    +0.007 A 
ATOM      5  C   LIG    1       -0.018  -0.670  -3.607  0.00  0.00    +0.012 A 
ATOM      6  C   LIG    1       -0.021   0.009  -2.409  0.00  0.00    +0.024 A 
ENDROOT
BRANCH   4   7
ATOM      7  C   LIG    1       -0.006  -2.799  -4.900  0.00  0.00    +0.109 A 
ATOM      8  N   LIG    1       -0.001  -4.098  -5.109  0.00  0.00    -0.239 NA
ATOM      9  C   LIG    1       -0.004  -4.631  -6.346  0.00  0.00    +0.079 A 
ATOM     10  C   LIG    1        0.002  -6.000  -6.708  0.00  0.00    +0.029 A 
ATOM     11  C   LIG    1       -0.001  -6.375  -8.015  0.00  0.00    +0.002 A 
ATOM     12  C   LIG    1       -0.010  -5.441  -9.042  0.00  0.00    +0.001 A 
ATOM     13  C   LIG    1       -0.016  -4.094  -8.732  0.00  0.00    +0.017 A 
ATOM     14  C   LIG    1       -0.013  -3.704  -7.415  0.00  0.00    +0.040 A 
ATOM     15  S   LIG    1       -0.025  -2.145  -6.563  0.00  0.00    -0.067 S 
ENDBRANCH   4   7
BRANCH   1  17
ATOM     16  C   LIG    1       -0.018   1.461   0.010  0.00  0.00    +0.129 C 
ATOM     17  N   LIG    1        0.002  -0.004   0.002  0.00  0.00    -0.336 N 
ATOM     18  C   LIG    1        0.024  -0.743   1.267  0.00  0.00    +0.129 C 
ENDBRANCH   1  17
TORSDOF 2
