REMARK  Name = ZINC00030896
REMARK                            x       y       z     vdW  Elec       q    Type
REMARK                         _______ _______ _______ _____ _____    ______ ____
ROOT
ATOM      1  C   LIG    1        1.908  -4.291  -4.036  0.00  0.00    +0.034 A 
ATOM      2  C   LIG    1        1.397  -5.463  -4.577  0.00  0.00    +0.025 A 
ATOM      3  C   LIG    1        1.848  -5.909  -5.804  0.00  0.00    +0.030 A 
ATOM      4  C   LIG    1        2.807  -5.190  -6.494  0.00  0.00    +0.105 A 
ATOM      5  C   LIG    1        3.318  -4.022  -5.957  0.00  0.00    +0.030 A 
ATOM      6  C   LIG    1        2.867  -3.568  -4.733  0.00  0.00    +0.025 A 
ENDROOT
BRANCH   1   8
ATOM      7  C   LIG    1        1.332  -2.515  -2.562  0.00  0.00    +0.220 C 
ATOM      8  N   LIG    1        1.454  -3.837  -2.793  0.00  0.00    -0.285 N 
ATOM      9  H   LIG    1        1.226  -4.473  -2.097  0.00  0.00    +0.155 HD
ATOM     10  O   LIG    1        1.695  -1.717  -3.400  0.00  0.00    -0.275 OA
BRANCH   7  11
ATOM     11  C   LIG    1        0.745  -2.027  -1.262  0.00  0.00    +0.072 C 
ATOM     12  C   LIG    1        1.600  -2.529  -0.097  0.00  0.00    +0.017 C 
BRANCH  11  13
ATOM     13  C   LIG    1        0.721  -0.498  -1.255  0.00  0.00    +0.012 C 
BRANCH  13  15
ATOM     14  C   LIG    1       -0.012   1.525   0.015  0.00  0.00    +0.004 C 
ATOM     15  C   LIG    1        0.012  -0.005   0.008  0.00  0.00    -0.003 C 
ENDBRANCH  13  15
ENDBRANCH  11  13
ENDBRANCH   7  11
ENDBRANCH   1   8
BRANCH   4  16
ATOM     16  S   LIG    1        3.379  -5.762  -8.059  0.00  0.00    +0.056 S 
ATOM     17  O   LIG    1        3.144  -7.163  -8.090  0.00  0.00    -0.153 OA
ATOM     18  O   LIG    1        4.671  -5.202  -8.248  0.00  0.00    -0.153 OA
BRANCH  16  19
ATOM     19  N   LIG    1        2.399  -5.092  -9.213  0.00  0.00    -0.204 NA
ATOM     20  H   LIG    1        2.551  -5.286 -10.151  0.00  0.00    +0.144 HD
ATOM     21  H   LIG    1        1.672  -4.505  -8.951  0.00  0.00    +0.144 HD
ENDBRANCH  16  19
ENDBRANCH   4  16
TORSDOF 6
