REMARK  Name = ZINC00025765
REMARK                            x       y       z     vdW  Elec       q    Type
REMARK                         _______ _______ _______ _____ _____    ______ ____
ROOT
ATOM      1  C   LIG    1       -1.328   2.106   0.010  0.00  0.00    +0.207 C 
ENDROOT
BRANCH   1   2
ATOM      2  C   LIG    1       -1.542   2.558   1.456  0.00  0.00    +0.031 C 
ATOM      3  C   LIG    1       -1.632   1.331   2.367  0.00  0.00    -0.012 C 
ATOM      4  C   LIG    1       -1.909   1.786   3.802  0.00  0.00    -0.082 C 
ATOM      5  N   LIG    1       -3.176   2.541   3.850  0.00  0.00    +0.379 N 
ATOM      6  H   LIG    1       -3.937   1.945   3.503  0.00  0.00    -0.086 HD
ATOM      7  H   LIG    1       -3.370   2.814   4.821  0.00  0.00    -0.086 HD
ATOM      8  C   LIG    1       -3.086   3.752   3.013  0.00  0.00    -0.082 C 
ATOM      9  C   LIG    1       -2.846   3.355   1.555  0.00  0.00    -0.012 C 
ENDBRANCH   1   2
BRANCH   1  13
ATOM     10  C   LIG    1        2.304  -0.125  -0.273  0.00  0.00    +0.000 A 
ATOM     11  C   LIG    1        1.091  -0.785  -0.205  0.00  0.00    +0.000 A 
ATOM     12  C   LIG    1       -0.084  -0.063  -0.111  0.00  0.00    +0.007 A 
ATOM     13  C   LIG    1       -0.046   1.319  -0.086  0.00  0.00    -0.007 A 
ATOM     14  C   LIG    1        1.166   1.979  -0.154  0.00  0.00    +0.007 A 
ATOM     15  C   LIG    1        2.341   1.257  -0.248  0.00  0.00    +0.000 A 
ENDBRANCH   1  13
BRANCH   1  16
ATOM     16  O   LIG    1       -1.248   3.252  -0.840  0.00  0.00    -0.484 OA
BRANCH  16  17
ATOM     17  C   LIG    1       -2.371   3.591  -1.527  0.00  0.00    +0.124 A 
ATOM     18  C   LIG    1       -3.556   2.905  -1.302  0.00  0.00    +0.046 A 
ATOM     19  C   LIG    1       -4.698   3.253  -1.997  0.00  0.00    +0.006 A 
ATOM     20  C   LIG    1       -4.659   4.278  -2.924  0.00  0.00    +0.038 A 
ATOM     21  C   LIG    1       -3.477   4.961  -3.154  0.00  0.00    +0.127 A 
ATOM     22  F   LIG    1       -3.442   5.963  -4.061  0.00  0.00    -0.205 F 
ATOM     23  C   LIG    1       -2.332   4.619  -2.457  0.00  0.00    +0.084 A 
ENDBRANCH  16  17
ENDBRANCH   1  16
TORSDOF 4
