REMARK  Name = ZINC00056643
REMARK                            x       y       z     vdW  Elec       q    Type
REMARK                         _______ _______ _______ _____ _____    ______ ____
ROOT
ATOM      1  C   LIG    1        2.325  -4.667   0.596  0.00  0.00    +0.179 C 
ENDROOT
BRANCH   1   2
ATOM      2  C   LIG    1        2.535  -6.012  -0.051  0.00  0.00    -0.014 A 
ATOM      3  C   LIG    1        1.450  -6.735  -0.510  0.00  0.00    +0.006 A 
ATOM      4  C   LIG    1        1.643  -7.968  -1.104  0.00  0.00    +0.000 A 
ATOM      5  C   LIG    1        2.920  -8.479  -1.238  0.00  0.00    +0.000 A 
ATOM      6  C   LIG    1        4.005  -7.756  -0.779  0.00  0.00    +0.000 A 
ATOM      7  C   LIG    1        3.813  -6.520  -0.190  0.00  0.00    +0.006 A 
ENDBRANCH   1   2
BRANCH   1   8
ATOM      8  C   LIG    1        2.022  -4.856   2.060  0.00  0.00    -0.014 A 
ATOM      9  C   LIG    1        0.749  -5.215   2.462  0.00  0.00    +0.006 A 
ATOM     10  C   LIG    1        0.470  -5.388   3.804  0.00  0.00    +0.000 A 
ATOM     11  C   LIG    1        1.465  -5.203   4.746  0.00  0.00    +0.000 A 
ATOM     12  C   LIG    1        2.739  -4.845   4.345  0.00  0.00    +0.000 A 
ATOM     13  C   LIG    1        3.018  -4.676   3.002  0.00  0.00    +0.006 A 
ENDBRANCH   1   8
BRANCH   1  14
ATOM     14  O   LIG    1        1.230  -4.000  -0.035  0.00  0.00    -0.364 OA
BRANCH  14  20
ATOM     15  C   LIG    1       -0.018   1.465   0.010  0.00  0.00    -0.096 C 
ATOM     16  N   LIG    1        0.002  -0.004   0.002  0.00  0.00    +0.378 N 
ATOM     17  H   LIG    1       -0.945  -0.352   0.012  0.00  0.00    -0.082 HD
ATOM     18  C   LIG    1        0.681  -0.476  -1.210  0.00  0.00    -0.077 C 
ATOM     19  C   LIG    1        0.634  -2.005  -1.264  0.00  0.00    +0.013 C 
ATOM     20  C   LIG    1        1.336  -2.575  -0.029  0.00  0.00    +0.116 C 
ATOM     21  C   LIG    1        0.666  -2.018   1.230  0.00  0.00    +0.013 C 
ATOM     22  C   LIG    1        0.712  -0.489   1.192  0.00  0.00    -0.077 C 
ENDBRANCH  14  20
ENDBRANCH   1  14
TORSDOF 4
