REMARK  Name = ZINC00008667
REMARK                            x       y       z     vdW  Elec       q    Type
REMARK                         _______ _______ _______ _____ _____    ______ ____
ROOT
ATOM      1  C   LIG    1        0.707  -0.490  -1.238  0.00  0.00    -0.031 A 
ATOM      2  C   LIG    1        0.219  -0.149  -2.487  0.00  0.00    +0.005 A 
ATOM      3  C   LIG    1        0.860  -0.591  -3.626  0.00  0.00    +0.011 A 
ATOM      4  C   LIG    1        2.002  -1.382  -3.519  0.00  0.00    +0.017 A 
ATOM      5  C   LIG    1        2.491  -1.723  -2.257  0.00  0.00    +0.131 A 
ATOM      6  F   LIG    1        3.597  -2.490  -2.145  0.00  0.00    -0.205 F 
ATOM      7  C   LIG    1        1.843  -1.270  -1.123  0.00  0.00    +0.043 A 
ENDROOT
BRANCH   4   8
ATOM      8  C   LIG    1        2.695  -1.860  -4.741  0.00  0.00    -0.015 A 
ATOM      9  C   LIG    1        1.970  -2.475  -5.760  0.00  0.00    +0.008 A 
ATOM     10  C   LIG    1        2.620  -2.918  -6.894  0.00  0.00    +0.001 A 
ATOM     11  C   LIG    1        3.987  -2.752  -7.021  0.00  0.00    +0.000 A 
ATOM     12  C   LIG    1        4.711  -2.142  -6.012  0.00  0.00    +0.001 A 
ATOM     13  C   LIG    1        4.071  -1.690  -4.876  0.00  0.00    +0.008 A 
ENDBRANCH   4   8
BRANCH   1  15
ATOM     14  C   LIG    1       -0.019   1.526   0.010  0.00  0.00    +0.024 C 
ATOM     15  C   LIG    1        0.002  -0.004   0.002  0.00  0.00    +0.124 C 
BRANCH  15  16
ATOM     16  C   LIG    1       -1.412  -0.526   0.013  0.00  0.00    +0.312 C 
ATOM     17  O   LIG    1       -1.810  -1.227  -0.902  0.00  0.00    -0.250 OA
BRANCH  16  18
ATOM     18  O   LIG    1       -2.158  -0.246   0.936  0.00  0.00    -0.480 OA
ATOM     19  H   LIG    1       -1.852   0.293   1.639  0.00  0.00    +0.295 HD
ENDBRANCH  16  18
ENDBRANCH  15  16
ENDBRANCH   1  15
TORSDOF 4
