REMARK  Name = ZINC00004898
REMARK                            x       y       z     vdW  Elec       q    Type
REMARK                         _______ _______ _______ _____ _____    ______ ____
ROOT
ATOM      1  C   LIG    1       -1.207   3.296   0.030  0.00  0.00    +0.139 A 
ATOM      2  C   LIG    1       -1.231   1.933   0.018  0.00  0.00    +0.098 A 
ATOM      3  C   LIG    1       -0.015   1.216   0.009  0.00  0.00    +0.193 A 
ATOM      4  C   LIG    1        1.237   2.001   0.001  0.00  0.00    +0.067 A 
ATOM      5  C   LIG    1        2.482   1.376  -0.015  0.00  0.00    +0.060 A 
ATOM      6  C   LIG    1        3.631   2.145  -0.022  0.00  0.00    +0.118 A 
ATOM      7  C   LIG    1        3.542   3.534  -0.013  0.00  0.00    +0.049 A 
ATOM      8  C   LIG    1        2.313   4.159   0.002  0.00  0.00    +0.050 A 
ATOM      9  C   LIG    1        1.149   3.401   0.009  0.00  0.00    +0.139 A 
ATOM     10  O   LIG    1        0.002  -0.004   0.002  0.00  0.00    -0.287 OA
ATOM     11  O   LIG    1       -0.063   3.997   0.024  0.00  0.00    -0.455 OA
ENDROOT
BRANCH   1  17
ATOM     12  C   LIG    1       -3.696   3.324   0.048  0.00  0.00    +0.013 A 
ATOM     13  C   LIG    1       -4.889   4.010   0.067  0.00  0.00    +0.023 A 
ATOM     14  C   LIG    1       -4.893   5.402   0.075  0.00  0.00    +0.025 A 
ATOM     15  C   LIG    1       -3.692   6.105   0.069  0.00  0.00    +0.023 A 
ATOM     16  C   LIG    1       -2.495   5.425   0.054  0.00  0.00    +0.013 A 
ATOM     17  C   LIG    1       -2.487   4.027   0.046  0.00  0.00    +0.018 A 
BRANCH  14  18
ATOM     18  N   LIG    1       -6.101   6.093   0.090  0.00  0.00    -0.358 N 
ATOM     19  H   LIG    1       -6.939   5.604   0.095  0.00  0.00    +0.142 HD
ATOM     20  H   LIG    1       -6.106   7.063   0.095  0.00  0.00    +0.142 HD
ENDBRANCH  14  18
ENDBRANCH   1  17
BRANCH   6  21
ATOM     21  O   LIG    1        4.850   1.544  -0.038  0.00  0.00    -0.507 OA
ATOM     22  H   LIG    1        5.212   1.365   0.841  0.00  0.00    +0.292 HD
ENDBRANCH   6  21
TORSDOF 3
