REMARK  Name = ZINC00002041
REMARK                            x       y       z     vdW  Elec       q    Type
REMARK                         _______ _______ _______ _____ _____    ______ ____
ROOT
ATOM      1  C   LIG    1        2.350  -4.614  -3.633  0.00  0.00    -0.044 A 
ATOM      2  C   LIG    1        1.780  -4.856  -4.872  0.00  0.00    +0.004 A 
ATOM      3  C   LIG    1        2.564  -5.326  -5.909  0.00  0.00    +0.002 A 
ATOM      4  C   LIG    1        3.911  -5.555  -5.717  0.00  0.00    +0.023 A 
ATOM      5  C   LIG    1        4.492  -5.314  -4.474  0.00  0.00    +0.037 A 
ATOM      6  N   LIG    1        5.808  -5.466  -4.036  0.00  0.00    -0.285 N 
ATOM      7  H   LIG    1        6.531  -5.785  -4.599  0.00  0.00    +0.155 HD
ATOM      8  C   LIG    1        5.962  -5.104  -2.751  0.00  0.00    +0.222 C 
ATOM      9  O   LIG    1        6.994  -5.130  -2.115  0.00  0.00    -0.275 OA
ATOM     10  C   LIG    1        4.603  -4.672  -2.244  0.00  0.00    +0.133 C 
ATOM     11  C   LIG    1        3.695  -4.837  -3.441  0.00  0.00    -0.014 A 
ENDROOT
BRANCH   1  12
ATOM     12  C   LIG    1        1.500  -4.102  -2.499  0.00  0.00    +0.017 C 
BRANCH  12  13
ATOM     13  C   LIG    1        1.595  -2.576  -2.440  0.00  0.00    -0.074 C 
BRANCH  13  14
ATOM     14  N   LIG    1        0.681  -2.068  -1.408  0.00  0.00    +0.380 N 
ATOM     15  H   LIG    1       -0.252  -2.410  -1.587  0.00  0.00    -0.082 HD
BRANCH  14  16
ATOM     16  C   LIG    1        1.128  -2.531  -0.088  0.00  0.00    -0.079 C 
BRANCH  16  18
ATOM     17  C   LIG    1        0.575  -2.590   2.348  0.00  0.00    +0.002 C 
ATOM     18  C   LIG    1        0.109  -2.108   0.973  0.00  0.00    -0.022 C 
ENDBRANCH  16  18
ENDBRANCH  14  16
BRANCH  14  19
ATOM     19  C   LIG    1        0.677  -0.599  -1.437  0.00  0.00    -0.079 C 
BRANCH  19  20
ATOM     20  C   LIG    1        0.061  -0.116  -2.751  0.00  0.00    -0.022 C 
ATOM     21  C   LIG    1        0.111   1.412  -2.806  0.00  0.00    +0.002 C 
ENDBRANCH  19  20
ENDBRANCH  14  19
ENDBRANCH  13  14
ENDBRANCH  12  13
ENDBRANCH   1  12
TORSDOF 7
