REMARK  Name = ZINC00006785
REMARK                            x       y       z     vdW  Elec       q    Type
REMARK                         _______ _______ _______ _____ _____    ______ ____
ROOT
ATOM      1  C   LIG    1       -0.027   1.448  -0.076  0.00  0.00    +0.013 A 
ATOM      2  C   LIG    1        1.169   2.132  -0.074  0.00  0.00    +0.047 A 
ATOM      3  C   LIG    1        2.370   1.436  -0.023  0.00  0.00    +0.128 A 
ATOM      4  C   LIG    1        2.371   0.048   0.025  0.00  0.00    +0.047 A 
ATOM      5  C   LIG    1        1.180  -0.645   0.023  0.00  0.00    +0.013 A 
ATOM      6  C   LIG    1       -0.030   0.051  -0.028  0.00  0.00    -0.005 A 
ENDROOT
BRANCH   6   7
ATOM      7  C   LIG    1       -1.308  -0.686  -0.030  0.00  0.00    +0.138 C 
ATOM      8  N   LIG    1       -1.308  -1.982   0.015  0.00  0.00    -0.186 NA
BRANCH   8   9
ATOM      9  N   LIG    1       -2.522  -2.683   0.013  0.00  0.00    -0.191 N 
ATOM     10  H   LIG    1       -3.361  -2.198  -0.023  0.00  0.00    +0.179 HD
ATOM     11  C   LIG    1       -2.523  -4.029   0.060  0.00  0.00    +0.317 C 
ATOM     12  N   LIG    1       -1.356  -4.703   0.110  0.00  0.00    -0.312 N 
ATOM     13  H   LIG    1       -1.357  -5.672   0.144  0.00  0.00    +0.147 HD
ATOM     14  H   LIG    1       -0.516  -4.218   0.111  0.00  0.00    +0.147 HD
ATOM     15  O   LIG    1       -3.576  -4.637   0.058  0.00  0.00    -0.251 OA
ENDBRANCH   8   9
ENDBRANCH   6   7
BRANCH   3  16
ATOM     16  O   LIG    1        3.546   2.115  -0.020  0.00  0.00    -0.456 OA
BRANCH  16  17
ATOM     17  C   LIG    1        3.844   2.872   1.069  0.00  0.00    +0.129 A 
ATOM     18  C   LIG    1        3.025   2.832   2.187  0.00  0.00    +0.049 A 
ATOM     19  C   LIG    1        3.329   3.602   3.293  0.00  0.00    +0.042 A 
ATOM     20  C   LIG    1        4.450   4.414   3.285  0.00  0.00    +0.124 A 
ATOM     21  F   LIG    1        4.746   5.166   4.368  0.00  0.00    -0.205 F 
ATOM     22  C   LIG    1        5.269   4.455   2.169  0.00  0.00    +0.042 A 
ATOM     23  C   LIG    1        4.971   3.682   1.064  0.00  0.00    +0.049 A 
ENDBRANCH  16  17
ENDBRANCH   3  16
TORSDOF 4
