REMARK  Name = ZINC00007601
REMARK                            x       y       z     vdW  Elec       q    Type
REMARK                         _______ _______ _______ _____ _____    ______ ____
ROOT
ATOM      1  C   LIG    1        2.784  -0.463  -2.476  0.00  0.00    +0.128 C 
ENDROOT
BRANCH   1   2
ATOM      2  C   LIG    1        4.198   0.059  -2.486  0.00  0.00    -0.020 A 
ATOM      3  C   LIG    1        5.193  -0.630  -1.817  0.00  0.00    +0.009 A 
ATOM      4  C   LIG    1        6.489  -0.154  -1.825  0.00  0.00    +0.046 A 
ATOM      5  C   LIG    1        6.793   1.017  -2.506  0.00  0.00    +0.122 A 
ATOM      6  C   LIG    1        5.793   1.705  -3.177  0.00  0.00    +0.020 A 
ATOM      7  C   LIG    1        4.499   1.222  -3.170  0.00  0.00    +0.015 A 
BRANCH   5   8
ATOM      8  O   LIG    1        8.068   1.488  -2.515  0.00  0.00    -0.506 OA
ATOM      9  H   LIG    1        8.605   1.155  -3.247  0.00  0.00    +0.292 HD
ENDBRANCH   5   8
BRANCH   6  10
ATOM     10  C   LIG    1        6.120   2.977  -3.917  0.00  0.00    +0.194 C 
BRANCH  10  11
ATOM     11  O   LIG    1        4.933   3.494  -4.522  0.00  0.00    -0.390 OA
ATOM     12  H   LIG    1        5.069   4.314  -5.016  0.00  0.00    +0.210 HD
ENDBRANCH  10  11
ENDBRANCH   6  10
ENDBRANCH   1   2
BRANCH   1  13
ATOM     13  O   LIG    1        2.803  -1.892  -2.484  0.00  0.00    -0.389 OA
ATOM     14  H   LIG    1        3.258  -2.283  -1.725  0.00  0.00    +0.210 HD
ENDBRANCH   1  13
BRANCH   1  15
ATOM     15  C   LIG    1        2.068   0.031  -1.217  0.00  0.00    -0.045 C 
BRANCH  15  16
ATOM     16  N   LIG    1        0.690  -0.478  -1.207  0.00  0.00    +0.384 N 
ATOM     17  H   LIG    1        0.202  -0.144  -2.024  0.00  0.00    -0.085 HD
ATOM     18  H   LIG    1        0.703  -1.487  -1.212  0.00  0.00    -0.085 HD
BRANCH  16  20
ATOM     19  C   LIG    1       -0.019   1.526   0.010  0.00  0.00    -0.011 C 
ATOM     20  C   LIG    1        0.002  -0.004   0.002  0.00  0.00    -0.077 C 
ATOM     21  C   LIG    1       -1.433  -0.534   0.013  0.00  0.00    -0.011 C 
ATOM     22  C   LIG    1        0.742  -0.511   1.242  0.00  0.00    -0.011 C 
ENDBRANCH  16  20
ENDBRANCH  15  16
ENDBRANCH   1  15
TORSDOF 8
