REMARK  Name = ZINC00002698
REMARK                            x       y       z     vdW  Elec       q    Type
REMARK                         _______ _______ _______ _____ _____    ______ ____
ROOT
ATOM      1  N   LIG    1       -2.718   4.385   1.432  0.00  0.00    -0.321 N 
ATOM      2  C   LIG    1       -3.695   3.766   2.178  0.00  0.00    +0.108 A 
ATOM      3  C   LIG    1       -3.694   4.350   3.388  0.00  0.00    +0.131 A 
ATOM      4  N   LIG    1       -2.747   5.303   3.397  0.00  0.00    -0.230 NA
ATOM      5  C   LIG    1       -2.148   5.330   2.229  0.00  0.00    +0.166 A 
ENDROOT
BRANCH   5   6
ATOM      6  S   LIG    1       -0.834   6.410   1.769  0.00  0.00    -0.105 S 
ATOM      7  H   LIG    1       -1.576   7.495   1.257  0.00  0.00    +0.110 HD
ENDBRANCH   5   6
BRANCH   1   8
ATOM      8  C   LIG    1       -2.355   4.080   0.046  0.00  0.00    +0.166 C 
BRANCH   8  11
ATOM      9  C   LIG    1       -0.013   1.076   0.008  0.00  0.00    +0.008 A 
ATOM     10  C   LIG    1       -1.213   1.761   0.017  0.00  0.00    +0.013 A 
ATOM     11  C   LIG    1       -1.196   3.116   0.030  0.00  0.00    +0.009 A 
ATOM     12  S   LIG    1        0.555   3.464   0.015  0.00  0.00    -0.100 S 
ATOM     13  C   LIG    1        1.146   1.780   0.001  0.00  0.00    +0.045 A 
ENDBRANCH   8  11
ENDBRANCH   1   8
TORSDOF 3
