REMARK  Name = ZINC00056584
REMARK                            x       y       z     vdW  Elec       q    Type
REMARK                         _______ _______ _______ _____ _____    ______ ____
ROOT
ATOM      1  C   LIG    1       -1.746  -1.026  -1.429  0.00  0.00    -0.036 C 
ATOM      2  C   LIG    1       -3.106  -1.674  -1.416  0.00  0.00    -0.054 A 
ATOM      3  C   LIG    1       -4.049  -1.214  -0.509  0.00  0.00    +0.051 A 
ATOM      4  C   LIG    1       -5.311  -1.778  -0.465  0.00  0.00    +0.158 A 
ATOM      5  C   LIG    1       -5.635  -2.813  -1.336  0.00  0.00    +0.158 A 
ATOM      6  C   LIG    1       -4.691  -3.270  -2.238  0.00  0.00    +0.053 A 
ATOM      7  C   LIG    1       -3.427  -2.702  -2.278  0.00  0.00    -0.044 A 
ATOM      8  C   LIG    1       -2.427  -3.236  -3.272  0.00  0.00    +0.016 C 
ATOM      9  C   LIG    1       -1.276  -2.242  -3.433  0.00  0.00    -0.077 C 
ATOM     10  N   LIG    1       -0.769  -1.891  -2.098  0.00  0.00    +0.384 N 
ATOM     11  H   LIG    1       -0.636  -2.732  -1.556  0.00  0.00    -0.085 HD
ATOM     12  H   LIG    1        0.109  -1.403  -2.188  0.00  0.00    -0.085 HD
ENDROOT
BRANCH   4  13
ATOM     13  O   LIG    1       -6.231  -1.322   0.427  0.00  0.00    -0.503 OA
ATOM     14  H   LIG    1       -6.782  -0.602   0.090  0.00  0.00    +0.292 HD
ENDBRANCH   4  13
BRANCH   5  15
ATOM     15  O   LIG    1       -6.874  -3.373  -1.301  0.00  0.00    -0.503 OA
ATOM     16  H   LIG    1       -7.515  -2.946  -1.886  0.00  0.00    +0.292 HD
ENDBRANCH   5  15
BRANCH   1  17
ATOM     17  C   LIG    1       -1.294  -0.774   0.010  0.00  0.00    +0.024 C 
BRANCH  17  23
ATOM     18  C   LIG    1       -0.017   1.378   0.010  0.00  0.00    +0.007 A 
ATOM     19  C   LIG    1        1.170   2.089   0.002  0.00  0.00    +0.049 A 
ATOM     20  C   LIG    1        2.380   1.415  -0.013  0.00  0.00    +0.158 A 
ATOM     21  C   LIG    1        2.399   0.024  -0.021  0.00  0.00    +0.158 A 
ATOM     22  C   LIG    1        1.207  -0.682  -0.013  0.00  0.00    +0.052 A 
ATOM     23  C   LIG    1        0.002  -0.004   0.002  0.00  0.00    -0.045 A 
BRANCH  20  24
ATOM     24  O   LIG    1        3.548   2.113  -0.021  0.00  0.00    -0.503 OA
ATOM     25  H   LIG    1        3.894   2.310   0.860  0.00  0.00    +0.292 HD
ENDBRANCH  20  24
BRANCH  21  26
ATOM     26  O   LIG    1        3.585  -0.642  -0.036  0.00  0.00    -0.503 OA
ATOM     27  H   LIG    1        3.937  -0.839   0.843  0.00  0.00    +0.292 HD
ENDBRANCH  21  26
ENDBRANCH  17  23
ENDBRANCH   1  17
TORSDOF 6
