REMARK  Name = ZINC00004949
REMARK                            x       y       z     vdW  Elec       q    Type
REMARK                         _______ _______ _______ _____ _____    ______ ____
ROOT
ATOM      1  C   LIG    1        0.613   1.847   0.418  0.00  0.00    +0.000 C 
ATOM      2  C   LIG    1        2.122   2.037   0.251  0.00  0.00    +0.000 C 
ATOM      3  C   LIG    1        2.553   1.511  -1.120  0.00  0.00    +0.005 C 
ATOM      4  C   LIG    1        2.212   0.023  -1.226  0.00  0.00    -0.035 C 
ATOM      5  C   LIG    1        0.703  -0.167  -1.058  0.00  0.00    +0.005 C 
ATOM      6  C   LIG    1        0.272   0.359   0.312  0.00  0.00    +0.000 C 
ENDROOT
BRANCH   4   7
ATOM      7  C   LIG    1        2.643  -0.503  -2.596  0.00  0.00    -0.079 C 
BRANCH   7   8
ATOM      8  N   LIG    1        2.437  -1.957  -2.649  0.00  0.00    +0.378 N 
ATOM      9  H   LIG    1        2.980  -2.400  -1.923  0.00  0.00    -0.090 HD
ATOM     10  H   LIG    1        2.732  -2.305  -3.549  0.00  0.00    -0.090 HD
ATOM     11  H   LIG    1        1.459  -2.163  -2.512  0.00  0.00    -0.090 HD
ENDBRANCH   7   8
ENDBRANCH   4   7
BRANCH   4  12
ATOM     12  C   LIG    1        2.948  -0.748  -0.128  0.00  0.00    +0.125 C 
BRANCH  12  13
ATOM     13  C   LIG    1        4.435  -0.601  -0.322  0.00  0.00    +0.305 C 
ATOM     14  O   LIG    1        4.866   0.122  -1.204  0.00  0.00    -0.251 OA
BRANCH  13  15
ATOM     15  O   LIG    1        5.207  -1.206   0.402  0.00  0.00    -0.481 OA
ATOM     16  H   LIG    1        4.876  -1.762   1.080  0.00  0.00    +0.295 HD
ENDBRANCH  13  15
ENDBRANCH  12  13
ENDBRANCH   4  12
TORSDOF 5
