REMARK  Name = ZINC00073693
REMARK                            x       y       z     vdW  Elec       q    Type
REMARK                         _______ _______ _______ _____ _____    ______ ____
ROOT
ATOM      1  C   LIG    1        3.711  -0.707  -0.038  0.00  0.00    +0.211 C 
ATOM      2  C   LIG    1        4.081  -1.062  -1.485  0.00  0.00    +0.129 C 
ATOM      3  C   LIG    1        5.391  -1.828  -1.440  0.00  0.00    +0.174 C 
ATOM      4  C   LIG    1        5.544  -2.801  -0.352  0.00  0.00    +0.101 A 
ATOM      5  C   LIG    1        6.595  -3.732  -0.368  0.00  0.00    +0.134 A 
ATOM      6  C   LIG    1        6.724  -4.631   0.676  0.00  0.00    +0.091 A 
ATOM      7  C   LIG    1        5.817  -4.610   1.729  0.00  0.00    +0.124 A 
ATOM      8  C   LIG    1        4.772  -3.695   1.746  0.00  0.00    +0.092 A 
ATOM      9  C   LIG    1        4.623  -2.788   0.711  0.00  0.00    +0.139 A 
ATOM     10  O   LIG    1        6.266  -1.645  -2.260  0.00  0.00    -0.292 OA
ATOM     11  O   LIG    1        3.596  -1.906   0.728  0.00  0.00    -0.483 OA
ENDROOT
BRANCH   1  15
ATOM     12  C   LIG    1       -0.017   1.378   0.010  0.00  0.00    +0.000 A 
ATOM     13  C   LIG    1        1.171   2.086   0.002  0.00  0.00    +0.000 A 
ATOM     14  C   LIG    1        2.377   1.411  -0.013  0.00  0.00    +0.007 A 
ATOM     15  C   LIG    1        2.396   0.029  -0.020  0.00  0.00    -0.007 A 
ATOM     16  C   LIG    1        1.208  -0.679  -0.012  0.00  0.00    +0.007 A 
ATOM     17  C   LIG    1        0.002  -0.004   0.002  0.00  0.00    +0.000 A 
ENDBRANCH   1  15
BRANCH   5  18
ATOM     18  O   LIG    1        7.476  -3.751  -1.398  0.00  0.00    -0.506 OA
ATOM     19  H   LIG    1        8.247  -3.182  -1.267  0.00  0.00    +0.292 HD
ENDBRANCH   5  18
BRANCH   7  20
ATOM     20  O   LIG    1        5.953  -5.493   2.750  0.00  0.00    -0.507 OA
ATOM     21  H   LIG    1        6.505  -5.173   3.476  0.00  0.00    +0.292 HD
ENDBRANCH   7  20
TORSDOF 3
