REMARK  Name = ZINC00022708
REMARK                            x       y       z     vdW  Elec       q    Type
REMARK                         _______ _______ _______ _____ _____    ______ ____
ROOT
ATOM      1  S   LIG    1        0.157   1.808   2.839  0.00  0.00    +0.062 S 
ATOM      2  O   LIG    1       -0.522   1.422   1.652  0.00  0.00    -0.153 OA
ATOM      3  O   LIG    1        0.317   0.931   3.945  0.00  0.00    -0.153 OA
ENDROOT
BRANCH   1  13
ATOM      4  C   LIG    1       -1.869   0.602   3.838  0.00  0.00    +0.046 C 
ATOM      5  C   LIG    1       -2.513   1.872   4.329  0.00  0.00    -0.023 A 
ATOM      6  C   LIG    1       -3.702   1.837   4.993  0.00  0.00    +0.114 A 
ATOM      7  N   LIG    1       -4.290   2.940   5.435  0.00  0.00    -0.262 NA
ATOM      8  C   LIG    1       -3.775   4.136   5.268  0.00  0.00    +0.119 A 
ATOM      9  C   LIG    1       -2.551   4.282   4.597  0.00  0.00    +0.002 A 
ATOM     10  C   LIG    1       -1.958   5.539   4.393  0.00  0.00    +0.010 A 
ATOM     11  C   LIG    1       -0.761   5.619   3.749  0.00  0.00    +0.003 A 
ATOM     12  C   LIG    1       -0.121   4.475   3.273  0.00  0.00    +0.029 A 
ATOM     13  C   LIG    1       -0.669   3.240   3.448  0.00  0.00    +0.113 A 
ATOM     14  C   LIG    1       -1.896   3.118   4.117  0.00  0.00    +0.014 A 
ENDBRANCH   1  13
BRANCH   1  15
ATOM     15  N   LIG    1        1.678   2.277   2.383  0.00  0.00    -0.176 NA
ATOM     16  C   LIG    1        2.767   2.228   3.380  0.00  0.00    +0.108 C 
ATOM     17  C   LIG    1        4.065   1.684   2.755  0.00  0.00    -0.002 C 
ATOM     18  C   LIG    1        3.732   0.546   1.815  0.00  0.00    -0.081 C 
ATOM     19  N   LIG    1        3.583   1.069   0.459  0.00  0.00    +0.380 N 
ATOM     20  H   LIG    1        3.843   0.344  -0.192  0.00  0.00    -0.086 HD
ATOM     21  H   LIG    1        4.223   1.840   0.343  0.00  0.00    -0.086 HD
ATOM     22  C   LIG    1        2.283   1.516   0.133  0.00  0.00    -0.062 C 
ATOM     23  C   LIG    1        1.894   2.715   1.020  0.00  0.00    +0.060 C 
ATOM     24  C   LIG    1        0.609   3.345   0.478  0.00  0.00    +0.024 C 
ENDBRANCH   1  15
TORSDOF 2
