REMARK  Name = ZINC00058121
REMARK                            x       y       z     vdW  Elec       q    Type
REMARK                         _______ _______ _______ _____ _____    ______ ____
ROOT
ATOM      1  C   LIG    1       -0.018   1.503   0.010  0.00  0.00    +0.045 C 
ATOM      2  C   LIG    1        0.002  -0.004   0.002  0.00  0.00    -0.033 A 
ATOM      3  C   LIG    1        0.006  -0.695  -1.167  0.00  0.00    +0.096 A 
ATOM      4  C   LIG    1        0.026  -2.105  -1.149  0.00  0.00    +0.337 A 
ATOM      5  O   LIG    1        0.041  -2.795   0.003  0.00  0.00    -0.422 OA
ATOM      6  C   LIG    1        0.038  -2.169   1.199  0.00  0.00    +0.143 A 
ATOM      7  C   LIG    1        0.053  -2.897   2.379  0.00  0.00    +0.092 A 
ATOM      8  C   LIG    1        0.066  -2.234   3.596  0.00  0.00    +0.120 A 
ATOM      9  C   LIG    1        0.046  -0.842   3.644  0.00  0.00    +0.046 A 
ATOM     10  C   LIG    1        0.026  -0.111   2.492  0.00  0.00    +0.015 A 
ATOM     11  O   LIG    1        0.030  -2.712  -2.204  0.00  0.00    -0.245 OA
ATOM     12  C   LIG    1        0.024  -0.763   1.254  0.00  0.00    +0.021 A 
ENDROOT
BRANCH   8  13
ATOM     13  O   LIG    1        0.086  -2.948   4.751  0.00  0.00    -0.507 OA
ATOM     14  H   LIG    1       -0.791  -3.167   5.093  0.00  0.00    +0.292 HD
ENDBRANCH   8  13
TORSDOF 1
