REMARK  Name = ZINC00005882
REMARK                            x       y       z     vdW  Elec       q    Type
REMARK                         _______ _______ _______ _____ _____    ______ ____
ROOT
ATOM      1  N   LIG    1       -2.398  -2.854  -0.095  0.00  0.00    -0.229 N 
ATOM      2  C   LIG    1       -3.624  -2.301   0.016  0.00  0.00    +0.275 A 
ATOM      3  C   LIG    1       -3.737  -0.842   0.140  0.00  0.00    +0.050 A 
ATOM      4  C   LIG    1       -4.972  -0.206   0.258  0.00  0.00    +0.014 A 
ATOM      5  C   LIG    1       -5.022   1.166   0.370  0.00  0.00    +0.001 A 
ATOM      6  C   LIG    1       -3.856   1.919   0.366  0.00  0.00    +0.001 A 
ATOM      7  C   LIG    1       -2.625   1.312   0.251  0.00  0.00    +0.011 A 
ATOM      8  C   LIG    1       -2.551  -0.076   0.136  0.00  0.00    +0.015 A 
ATOM      9  C   LIG    1       -1.264  -0.774   0.009  0.00  0.00    +0.101 A 
ATOM     10  O   LIG    1       -4.620  -3.001   0.015  0.00  0.00    -0.266 OA
ATOM     11  N   LIG    1       -1.239  -2.078  -0.102  0.00  0.00    -0.168 NA
ENDROOT
BRANCH   9  12
ATOM     12  C   LIG    1        0.002  -0.004   0.002  0.00  0.00    +0.021 A 
ATOM     13  C   LIG    1        0.177   1.085   0.863  0.00  0.00    +0.013 A 
ATOM     14  C   LIG    1        1.377   1.771   0.817  0.00  0.00    +0.020 A 
ATOM     15  C   LIG    1        2.357   1.362  -0.070  0.00  0.00    +0.111 A 
ATOM     16  N   LIG    1        2.164   0.331  -0.869  0.00  0.00    -0.263 NA
ATOM     17  C   LIG    1        1.039  -0.353  -0.862  0.00  0.00    +0.120 A 
ENDBRANCH   9  12
BRANCH   1  19
ATOM     18  C   LIG    1       -2.321  -4.701  -1.696  0.00  0.00    +0.029 C 
ATOM     19  C   LIG    1       -2.282  -4.309  -0.217  0.00  0.00    +0.144 C 
ENDBRANCH   1  19
TORSDOF 2
