REMARK  Name = ZINC00007031
REMARK                            x       y       z     vdW  Elec       q    Type
REMARK                         _______ _______ _______ _____ _____    ______ ____
ROOT
ATOM      1  C   LIG    1       -4.429  -4.420   0.021  0.00  0.00    +0.021 C 
ATOM      2  C   LIG    1       -5.134  -4.085  -1.311  0.00  0.00    +0.013 C 
ATOM      3  C   LIG    1       -6.044  -5.313  -1.523  0.00  0.00    +0.036 C 
ATOM      4  C   LIG    1       -5.359  -6.445  -0.788  0.00  0.00    -0.043 A 
ATOM      5  C   LIG    1       -5.530  -7.815  -0.887  0.00  0.00    +0.007 A 
ATOM      6  C   LIG    1       -4.786  -8.673  -0.098  0.00  0.00    +0.046 A 
ATOM      7  C   LIG    1       -3.852  -8.165   0.801  0.00  0.00    +0.124 A 
ATOM      8  O   LIG    1       -3.034  -8.816   1.672  0.00  0.00    -0.491 OA
ATOM      9  C   LIG    1       -1.964  -7.938   2.062  0.00  0.00    +0.234 C 
ATOM     10  C   LIG    1       -2.601  -6.536   1.916  0.00  0.00    +0.080 C 
ATOM     11  C   LIG    1       -3.683  -6.789   0.884  0.00  0.00    +0.001 A 
ATOM     12  C   LIG    1       -4.431  -5.932   0.103  0.00  0.00    -0.034 A 
ENDROOT
BRANCH   1  13
ATOM     13  C   LIG    1       -2.994  -3.891   0.010  0.00  0.00    +0.027 C 
BRANCH  13  14
ATOM     14  C   LIG    1       -3.014  -2.361   0.018  0.00  0.00    +0.105 C 
BRANCH  14  16
ATOM     15  C   LIG    1       -1.412  -0.526   0.013  0.00  0.00    +0.213 C 
ATOM     16  N   LIG    1       -1.640  -1.854   0.008  0.00  0.00    -0.315 N 
ATOM     17  H   LIG    1       -0.894  -2.474  -0.003  0.00  0.00    +0.149 HD
ATOM     18  O   LIG    1       -2.344   0.250   0.026  0.00  0.00    -0.276 OA
BRANCH  15  20
ATOM     19  C   LIG    1       -0.019   1.526   0.010  0.00  0.00    +0.013 C 
ATOM     20  C   LIG    1        0.002  -0.004   0.002  0.00  0.00    +0.092 C 
ENDBRANCH  15  20
ENDBRANCH  14  16
ENDBRANCH  13  14
ENDBRANCH   1  13
TORSDOF 4
