REMARK  Name = ZINC00016356
REMARK                            x       y       z     vdW  Elec       q    Type
REMARK                         _______ _______ _______ _____ _____    ______ ____
ROOT
ATOM      1  C   LIG    1        1.173   2.163   0.003  0.00  0.00    +0.140 A 
ATOM      2  C   LIG    1       -0.017   1.428   0.010  0.00  0.00    +0.134 A 
ATOM      3  C   LIG    1       -1.236   2.135   0.019  0.00  0.00    +0.271 A 
ATOM      4  O   LIG    1       -2.416   1.474   0.021  0.00  0.00    -0.266 OA
ATOM      5  N   LIG    1       -1.205   3.461   0.031  0.00  0.00    -0.276 N 
ATOM      6  H   LIG    1       -2.145   4.033   0.046  0.00  0.00    +0.173 HD
ATOM      7  C   LIG    1       -0.054   4.113   0.024  0.00  0.00    +0.296 A 
ATOM      8  N   LIG    1        1.111   3.483   0.010  0.00  0.00    -0.204 NA
ENDROOT
BRANCH   2   9
ATOM      9  C   LIG    1        0.002  -0.004   0.002  0.00  0.00    +0.106 C 
ATOM     10  N   LIG    1        0.018  -1.140  -0.004  0.00  0.00    -0.191 NA
ENDBRANCH   2   9
BRANCH   7  11
ATOM     11  O   LIG    1       -0.067   5.466   0.031  0.00  0.00    -0.480 OA
ATOM     12  H   LIG    1       -0.883   5.927   0.041  0.00  0.00    +0.295 HD
ENDBRANCH   7  11
TORSDOF 2
