REMARK  Name = ZINC00016616
REMARK                            x       y       z     vdW  Elec       q    Type
REMARK                         _______ _______ _______ _____ _____    ______ ____
ROOT
ATOM      1  C   LIG    1        4.167   2.077  -1.804  0.00  0.00    +0.006 C 
ATOM      2  C   LIG    1        2.966   1.194  -1.460  0.00  0.00    -0.024 C 
ATOM      3  C   LIG    1        3.371  -0.295  -1.483  0.00  0.00    -0.079 C 
ATOM      4  N   LIG    1        3.668  -0.595  -0.081  0.00  0.00    +0.380 N 
ATOM      5  H   LIG    1        3.607  -1.607   0.086  0.00  0.00    -0.086 HD
ATOM      6  H   LIG    1        4.610  -0.265   0.160  0.00  0.00    -0.086 HD
ATOM      7  C   LIG    1        2.665   0.111   0.717  0.00  0.00    -0.073 C 
ATOM      8  C   LIG    1        2.502   1.462  -0.013  0.00  0.00    +0.021 C 
ENDROOT
BRANCH   8   9
ATOM      9  C   LIG    1        1.058   1.893   0.002  0.00  0.00    +0.035 A 
ATOM     10  N   LIG    1        0.613   3.158   0.012  0.00  0.00    -0.350 N 
ATOM     11  H   LIG    1        1.206   3.996   0.011  0.00  0.00    +0.166 HD
ATOM     12  C   LIG    1       -0.692   3.157   0.024  0.00  0.00    +0.171 A 
ATOM     13  N   LIG    1       -1.123   1.877   0.017  0.00  0.00    -0.352 N 
ATOM     14  H   LIG    1       -2.075   1.571   0.018  0.00  0.00    +0.166 HD
ATOM     15  C   LIG    1       -0.013   1.076   0.008  0.00  0.00    +0.105 A 
ENDBRANCH   8   9
TORSDOF 1
