REMARK  Name = ZINC00074709
REMARK                            x       y       z     vdW  Elec       q    Type
REMARK                         _______ _______ _______ _____ _____    ______ ____
ROOT
ATOM      1  C   LIG    1       -0.017   1.362   0.009  0.00  0.00    +0.001 A 
ATOM      2  C   LIG    1        1.169   2.083   0.002  0.00  0.00    +0.004 A 
ATOM      3  C   LIG    1        2.386   1.434  -0.013  0.00  0.00    +0.047 A 
ATOM      4  C   LIG    1        2.429   0.046  -0.021  0.00  0.00    +0.139 A 
ATOM      5  C   LIG    1        1.226  -0.681  -0.013  0.00  0.00    +0.018 A 
ATOM      6  C   LIG    1        1.280  -2.146  -0.022  0.00  0.00    +0.018 A 
ATOM      7  C   LIG    1        2.499  -2.742  -0.037  0.00  0.00    +0.092 A 
ATOM      8  C   LIG    1        3.667  -1.950  -0.044  0.00  0.00    +0.337 A 
ATOM      9  O   LIG    1        4.755  -2.497  -0.057  0.00  0.00    -0.245 OA
ATOM     10  O   LIG    1        3.610  -0.609  -0.036  0.00  0.00    -0.422 OA
ATOM     11  C   LIG    1        0.002  -0.004   0.002  0.00  0.00    +0.011 A 
ENDROOT
TORSDOF 0
