REMARK  Name = ZINC00056645
REMARK                            x       y       z     vdW  Elec       q    Type
REMARK                         _______ _______ _______ _____ _____    ______ ____
ROOT
ATOM      1  C   LIG    1       -2.777  -4.029  -0.239  0.00  0.00    +0.258 C 
ENDROOT
BRANCH   1   2
ATOM      2  C   LIG    1       -2.795  -2.505  -0.105  0.00  0.00    +0.135 C 
BRANCH   2   3
ATOM      3  O   LIG    1       -3.427  -2.143   1.124  0.00  0.00    -0.390 OA
ATOM      4  H   LIG    1       -2.987  -2.493   1.911  0.00  0.00    +0.210 HD
ENDBRANCH   2   3
BRANCH   2   5
ATOM      5  C   LIG    1       -1.359  -1.976  -0.116  0.00  0.00    -0.047 C 
BRANCH   5   6
ATOM      6  N   LIG    1       -1.376  -0.512   0.012  0.00  0.00    +0.382 N 
ATOM      7  H   LIG    1       -1.888  -0.113  -0.760  0.00  0.00    -0.085 HD
ATOM      8  H   LIG    1       -1.823  -0.256   0.880  0.00  0.00    -0.085 HD
BRANCH   6  10
ATOM      9  C   LIG    1       -0.019   1.526   0.010  0.00  0.00    -0.014 C 
ATOM     10  C   LIG    1        0.002  -0.004   0.002  0.00  0.00    -0.078 C 
ATOM     11  C   LIG    1        0.742  -0.511   1.242  0.00  0.00    -0.014 C 
ENDBRANCH   6  10
ENDBRANCH   5   6
ENDBRANCH   2   5
ENDBRANCH   1   2
BRANCH   1  12
ATOM     12  O   LIG    1       -4.117  -4.514  -0.346  0.00  0.00    -0.489 OA
BRANCH  12  13
ATOM     13  C   LIG    1       -4.279  -5.857  -0.473  0.00  0.00    +0.130 A 
ATOM     14  C   LIG    1       -3.179  -6.692  -0.489  0.00  0.00    +0.046 A 
ATOM     15  C   LIG    1       -3.342  -8.064  -0.617  0.00  0.00    +0.006 A 
ATOM     16  C   LIG    1       -4.599  -8.615  -0.732  0.00  0.00    +0.026 A 
ATOM     17  C   LIG    1       -5.723  -7.794  -0.719  0.00  0.00    +0.050 A 
ATOM     18  N   LIG    1       -7.075  -8.040  -0.812  0.00  0.00    -0.361 N 
ATOM     19  H   LIG    1       -7.477  -8.918  -0.910  0.00  0.00    +0.165 HD
ATOM     20  C   LIG    1       -7.769  -6.862  -0.729  0.00  0.00    +0.084 A 
ATOM     21  C   LIG    1       -6.914  -5.836  -0.598  0.00  0.00    +0.031 A 
ATOM     22  C   LIG    1       -5.563  -6.404  -0.583  0.00  0.00    +0.041 A 
ENDBRANCH  12  13
ENDBRANCH   1  12
TORSDOF 7
