REMARK  Name = ZINC00003761
REMARK                            x       y       z     vdW  Elec       q    Type
REMARK                         _______ _______ _______ _____ _____    ______ ____
ROOT
ATOM      1  C   LIG    1        0.731  -0.503   1.223  0.00  0.00    -0.001 A 
ATOM      2  C   LIG    1        2.051  -0.148   1.435  0.00  0.00    +0.007 A 
ATOM      3  C   LIG    1        2.723  -0.603   2.554  0.00  0.00    +0.002 A 
ATOM      4  C   LIG    1        2.081  -1.421   3.466  0.00  0.00    +0.027 A 
ATOM      5  C   LIG    1        0.763  -1.788   3.255  0.00  0.00    +0.077 A 
ATOM      6  N   LIG    1        0.099  -2.621   4.164  0.00  0.00    -0.281 N 
ATOM      7  C   LIG    1       -1.107  -3.126   3.838  0.00  0.00    +0.097 C 
ATOM      8  S   LIG    1       -1.948  -3.961   4.912  0.00  0.00    -0.036 S 
ATOM      9  C   LIG    1       -1.655  -2.911   2.450  0.00  0.00    +0.228 C 
ATOM     10  O   LIG    1       -1.230  -1.638   1.958  0.00  0.00    -0.480 OA
ATOM     11  C   LIG    1        0.079  -1.313   2.136  0.00  0.00    +0.146 A 
ENDROOT
BRANCH   1  13
ATOM     12  C   LIG    1       -0.019   1.526   0.010  0.00  0.00    +0.012 C 
ATOM     13  C   LIG    1        0.002  -0.004   0.002  0.00  0.00    +0.016 C 
ATOM     14  C   LIG    1        0.718  -0.497  -1.257  0.00  0.00    +0.012 C 
ENDBRANCH   1  13
BRANCH   9  15
ATOM     15  C   LIG    1       -1.138  -4.013   1.523  0.00  0.00    +0.030 C 
ATOM     16  C   LIG    1        0.391  -3.967   1.479  0.00  0.00    +0.011 C 
ATOM     17  C   LIG    1       -1.695  -3.798   0.114  0.00  0.00    +0.011 C 
ENDBRANCH   9  15
BRANCH   6  18
ATOM     18  C   LIG    1        0.700  -2.927   5.465  0.00  0.00    +0.231 C 
BRANCH  18  19
ATOM     19  C   LIG    1        0.260  -1.899   6.476  0.00  0.00    +0.323 C 
ATOM     20  O   LIG    1       -0.487  -0.996   6.141  0.00  0.00    -0.249 OA
BRANCH  19  21
ATOM     21  O   LIG    1        0.651  -1.972   7.628  0.00  0.00    -0.480 OA
ATOM     22  H   LIG    1        1.225  -2.666   7.885  0.00  0.00    +0.295 HD
ENDBRANCH  19  21
ENDBRANCH  18  19
ENDBRANCH   6  18
TORSDOF 5
