REMARK  Name = ZINC00006097
REMARK                            x       y       z     vdW  Elec       q    Type
REMARK                         _______ _______ _______ _____ _____    ______ ____
ROOT
ATOM      1  C   LIG    1        0.425  -0.515   0.780  0.00  0.00    +0.136 A 
ATOM      2  C   LIG    1        1.009   0.302   1.732  0.00  0.00    +0.070 A 
ATOM      3  C   LIG    1        1.722  -0.259   2.783  0.00  0.00    +0.047 A 
ATOM      4  C   LIG    1        1.852  -1.645   2.883  0.00  0.00    +0.063 A 
ATOM      5 CL   LIG    1        2.746  -2.335   4.201  0.00  0.00    -0.082 Cl
ATOM      6  C   LIG    1        1.280  -2.460   1.949  0.00  0.00    +0.040 A 
ATOM      7  C   LIG    1        0.553  -1.909   0.887  0.00  0.00    +0.102 A 
ENDROOT
BRANCH   3   8
ATOM      8  N   LIG    1        2.308   0.562   3.740  0.00  0.00    -0.357 N 
ATOM      9  H   LIG    1        2.807   0.172   4.475  0.00  0.00    +0.142 HD
ATOM     10  H   LIG    1        2.219   1.526   3.672  0.00  0.00    +0.142 HD
ENDBRANCH   3   8
BRANCH   1  12
ATOM     11  C   LIG    1       -0.360   1.454  -0.293  0.00  0.00    +0.277 C 
ATOM     12  O   LIG    1       -0.273   0.028  -0.249  0.00  0.00    -0.494 OA
ENDBRANCH   1  12
BRANCH   7  13
ATOM     13  C   LIG    1       -0.069  -2.787  -0.115  0.00  0.00    +0.343 C 
ATOM     14  O   LIG    1       -0.695  -2.306  -1.040  0.00  0.00    -0.245 OA
BRANCH  13  15
ATOM     15  O   LIG    1        0.056  -4.125  -0.010  0.00  0.00    -0.463 OA
BRANCH  15  16
ATOM     16  C   LIG    1       -0.573  -4.917  -1.019  0.00  0.00    +0.214 C 
BRANCH  16  17
ATOM     17  C   LIG    1       -0.324  -6.399  -0.733  0.00  0.00    -0.037 C 
BRANCH  17  18
ATOM     18  N   LIG    1       -0.960  -6.766   0.540  0.00  0.00    +0.382 N 
ATOM     19  H   LIG    1       -0.644  -6.140   1.265  0.00  0.00    -0.082 HD
ATOM     20  C   LIG    1       -0.591  -8.143   0.890  0.00  0.00    -0.079 C 
ATOM     21  C   LIG    1       -1.185  -8.502   2.254  0.00  0.00    -0.019 C 
ATOM     22  C   LIG    1       -2.710  -8.382   2.189  0.00  0.00    -0.004 C 
ATOM     23  C   LIG    1       -3.081  -6.962   1.750  0.00  0.00    -0.019 C 
ATOM     24  C   LIG    1       -2.418  -6.660   0.405  0.00  0.00    -0.079 C 
ENDBRANCH  17  18
ENDBRANCH  16  17
ENDBRANCH  15  16
ENDBRANCH  13  15
ENDBRANCH   7  13
TORSDOF 7
