REMARK  Name = ZINC00056647
REMARK                            x       y       z     vdW  Elec       q    Type
REMARK                         _______ _______ _______ _____ _____    ______ ____
ROOT
ATOM      1  N   LIG    1       -0.780  -2.025  -0.243  0.00  0.00    -0.300 N 
ATOM      2  C   LIG    1       -0.674  -2.549  -1.536  0.00  0.00    +0.048 A 
ATOM      3  C   LIG    1       -1.427  -2.015  -2.570  0.00  0.00    +0.024 A 
ATOM      4  C   LIG    1       -1.318  -2.539  -3.846  0.00  0.00    +0.002 A 
ATOM      5  C   LIG    1       -0.463  -3.594  -4.100  0.00  0.00    +0.001 A 
ATOM      6  C   LIG    1        0.294  -4.135  -3.074  0.00  0.00    +0.017 A 
ATOM      7  C   LIG    1        0.190  -3.615  -1.798  0.00  0.00    +0.034 A 
ATOM      8  S   LIG    1        1.141  -4.284  -0.469  0.00  0.00    -0.086 S 
ATOM      9  C   LIG    1        0.121  -3.947   0.932  0.00  0.00    +0.034 A 
ATOM     10  C   LIG    1        0.165  -4.758   2.050  0.00  0.00    +0.017 A 
ATOM     11  C   LIG    1       -0.629  -4.473   3.137  0.00  0.00    +0.001 A 
ATOM     12  C   LIG    1       -1.477  -3.382   3.106  0.00  0.00    +0.002 A 
ATOM     13  C   LIG    1       -1.531  -2.568   1.988  0.00  0.00    +0.024 A 
ATOM     14  C   LIG    1       -0.730  -2.843   0.891  0.00  0.00    +0.048 A 
ENDROOT
BRANCH   1  15
ATOM     15  C   LIG    1       -0.941  -0.580  -0.071  0.00  0.00    +0.095 C 
BRANCH  15  17
ATOM     16  C   LIG    1        1.307  -0.109  -1.056  0.00  0.00    -0.012 C 
ATOM     17  C   LIG    1        0.426   0.059   0.184  0.00  0.00    -0.055 C 
BRANCH  17  18
ATOM     18  N   LIG    1        0.252   1.490   0.470  0.00  0.00    +0.379 N 
ATOM     19  H   LIG    1       -0.206   1.936  -0.311  0.00  0.00    -0.082 HD
ATOM     20  C   LIG    1        1.566   2.109   0.686  0.00  0.00    -0.096 C 
ATOM     21  C   LIG    1       -0.570   1.651   1.677  0.00  0.00    -0.096 C 
ENDBRANCH  17  18
ENDBRANCH  15  17
ENDBRANCH   1  15
TORSDOF 3
