REMARK  Name = ZINC00008046
REMARK                            x       y       z     vdW  Elec       q    Type
REMARK                         _______ _______ _______ _____ _____    ______ ____
ROOT
ATOM      1  C   LIG    1       -3.689   1.921   0.030  0.00  0.00    -0.021 A 
ATOM      2  C   LIG    1       -3.710   3.321   0.038  0.00  0.00    +0.012 A 
ATOM      3  C   LIG    1       -4.913   3.990   0.047  0.00  0.00    +0.050 A 
ATOM      4  C   LIG    1       -6.107   3.281   0.049  0.00  0.00    +0.158 A 
ATOM      5  C   LIG    1       -6.095   1.886   0.041  0.00  0.00    +0.162 A 
ATOM      6  C   LIG    1       -4.894   1.206   0.026  0.00  0.00    +0.057 A 
ENDROOT
BRANCH   1   8
ATOM      7  C   LIG    1       -1.243   1.898   0.018  0.00  0.00    +0.046 C 
ATOM      8  C   LIG    1       -2.408   1.204   0.020  0.00  0.00    +0.011 C 
BRANCH   7  10
ATOM      9  C   LIG    1        1.280   1.982   0.001  0.00  0.00    +0.091 C 
ATOM     10  C   LIG    1       -0.014   1.210   0.009  0.00  0.00    +0.153 C 
ATOM     11  O   LIG    1        0.002  -0.004   0.002  0.00  0.00    -0.293 OA
ENDBRANCH   7  10
ENDBRANCH   1   8
BRANCH   4  12
ATOM     12  O   LIG    1       -7.291   3.947   0.057  0.00  0.00    -0.503 OA
ATOM     13  H   LIG    1       -7.637   4.144  -0.824  0.00  0.00    +0.292 HD
ENDBRANCH   4  12
BRANCH   5  14
ATOM     14  O   LIG    1       -7.266   1.196   0.042  0.00  0.00    -0.491 OA
ATOM     15  C   LIG    1       -7.179  -0.231   0.034  0.00  0.00    +0.277 C 
ENDBRANCH   5  14
TORSDOF 4
