REMARK  Name = ZINC00035804
REMARK                            x       y       z     vdW  Elec       q    Type
REMARK                         _______ _______ _______ _____ _____    ______ ____
ROOT
ATOM      1  C   LIG    1        5.468   0.599   1.585  0.00  0.00    +0.043 A 
ATOM      2  C   LIG    1        6.360   0.484   0.527  0.00  0.00    +0.045 A 
ATOM      3  C   LIG    1        7.718   0.426   0.770  0.00  0.00    +0.069 A 
ATOM      4 CL   LIG    1        8.827   0.282  -0.558  0.00  0.00    -0.081 Cl
ATOM      5  C   LIG    1        8.203   0.483   2.070  0.00  0.00    +0.124 A 
ATOM      6  C   LIG    1        7.335   0.596   3.131  0.00  0.00    +0.046 A 
ATOM      7  C   LIG    1        5.955   0.662   2.902  0.00  0.00    +0.082 A 
ENDROOT
BRANCH   5   8
ATOM      8  S   LIG    1        9.939   0.407   2.362  0.00  0.00    +0.057 S 
ATOM      9  O   LIG    1       10.116   0.460   3.771  0.00  0.00    -0.153 OA
ATOM     10  O   LIG    1       10.540   1.348   1.483  0.00  0.00    -0.153 OA
BRANCH   8  11
ATOM     11  N   LIG    1       10.453  -1.090   1.875  0.00  0.00    -0.203 NA
ATOM     12  H   LIG    1        9.851  -1.849   1.927  0.00  0.00    +0.144 HD
ATOM     13  H   LIG    1       11.355  -1.208   1.540  0.00  0.00    +0.144 HD
ENDBRANCH   8  11
ENDBRANCH   5   8
BRANCH   1  14
ATOM     14  N   LIG    1        4.103   0.657   1.343  0.00  0.00    -0.336 N 
ATOM     15  H   LIG    1        3.478   0.654   2.085  0.00  0.00    +0.147 HD
BRANCH  14  16
ATOM     16  C   LIG    1        3.605   0.722  -0.033  0.00  0.00    +0.176 C 
BRANCH  16  19
ATOM     17  C   LIG    1       -0.000   1.484   0.019  0.00  0.00    +0.041 A 
ATOM     18  C   LIG    1        1.353   1.894   0.024  0.00  0.00    +0.046 A 
ATOM     19  C   LIG    1        2.099   0.776  -0.020  0.00  0.00    +0.122 A 
ATOM     20  O   LIG    1        1.274  -0.284  -0.051  0.00  0.00    -0.466 OA
ATOM     21  C   LIG    1        0.000   0.140  -0.028  0.00  0.00    +0.195 A 
ENDBRANCH  16  19
ENDBRANCH  14  16
ENDBRANCH   1  14
BRANCH   7  22
ATOM     22  C   LIG    1        5.023   0.790   4.030  0.00  0.00    +0.339 C 
ATOM     23  O   LIG    1        5.453   0.953   5.164  0.00  0.00    -0.245 OA
BRANCH  22  24
ATOM     24  O   LIG    1        3.816   0.733   3.837  0.00  0.00    -0.477 OA
ATOM     25  H   LIG    1        3.486   0.607   2.968  0.00  0.00    +0.295 HD
ENDBRANCH  22  24
ENDBRANCH   7  22
TORSDOF 7
