REMARK  Name = ZINC00007981
REMARK                            x       y       z     vdW  Elec       q    Type
REMARK                         _______ _______ _______ _____ _____    ______ ____
ROOT
ATOM      1  C   LIG    1        4.775   5.426   0.304  0.00  0.00    +0.001 A 
ATOM      2  C   LIG    1        4.742   4.046   0.188  0.00  0.00    +0.004 A 
ATOM      3  C   LIG    1        3.536   3.382   0.089  0.00  0.00    +0.047 A 
ATOM      4  C   LIG    1        2.346   4.096   0.106  0.00  0.00    +0.143 A 
ATOM      5  C   LIG    1        2.376   5.491   0.216  0.00  0.00    +0.103 A 
ATOM      6  C   LIG    1        3.602   6.150   0.322  0.00  0.00    +0.019 A 
ENDROOT
BRANCH   5   7
ATOM      7  C   LIG    1        1.115   6.263   0.228  0.00  0.00    +0.274 C 
ATOM      8  N   LIG    1       -0.050   5.703   0.134  0.00  0.00    -0.271 N 
ATOM      9  H   LIG    1       -0.214   4.694   0.041  0.00  0.00    +0.304 HD
ATOM     10  C   LIG    1       -1.103   6.731   0.179  0.00  0.00    +0.276 C 
ATOM     11  C   LIG    1       -0.330   8.058   0.314  0.00  0.00    +0.268 C 
ATOM     12  N   LIG    1        1.078   7.630   0.335  0.00  0.00    -0.233 N 
ATOM     13  H   LIG    1        1.849   8.214   0.410  0.00  0.00    +0.291 HD
ENDBRANCH   5   7
BRANCH   4  14
ATOM     14  O   LIG    1        1.160   3.445   0.009  0.00  0.00    -0.455 OA
BRANCH  14  15
ATOM     15  C   LIG    1        1.174   2.086   0.027  0.00  0.00    +0.129 A 
ATOM     16  C   LIG    1        1.538   1.411   1.183  0.00  0.00    +0.048 A 
ATOM     17  C   LIG    1        1.552   0.030   1.200  0.00  0.00    +0.023 A 
ATOM     18  C   LIG    1        1.202  -0.680   0.065  0.00  0.00    +0.041 A 
ATOM     19 CL   LIG    1        1.219  -2.416   0.089  0.00  0.00    -0.084 Cl
ATOM     20  C   LIG    1        0.838  -0.009  -1.089  0.00  0.00    +0.023 A 
ATOM     21  C   LIG    1        0.824   1.373  -1.110  0.00  0.00    +0.048 A 
ENDBRANCH  14  15
ENDBRANCH   4  14
TORSDOF 3
