REMARK  Name = ZINC00030668
REMARK                            x       y       z     vdW  Elec       q    Type
REMARK                         _______ _______ _______ _____ _____    ______ ____
ROOT
ATOM      1  C   LIG    1        0.868  -2.011   1.171  0.00  0.00    +0.225 C 
ATOM      2  N   LIG    1        1.526  -2.584   0.144  0.00  0.00    -0.285 N 
ATOM      3  H   LIG    1        1.854  -2.038  -0.587  0.00  0.00    +0.155 HD
ATOM      4  O   LIG    1        0.385  -2.702   2.042  0.00  0.00    -0.275 OA
ENDROOT
BRANCH   2   5
ATOM      5  C   LIG    1        1.736  -3.964   0.132  0.00  0.00    +0.036 A 
ATOM      6  C   LIG    1        0.779  -4.837   0.649  0.00  0.00    +0.043 A 
ATOM      7  C   LIG    1        1.024  -6.194   0.618  0.00  0.00    +0.112 A 
ATOM      8  N   LIG    1        2.146  -6.668   0.109  0.00  0.00    -0.263 NA
ATOM      9  C   LIG    1        3.075  -5.874  -0.389  0.00  0.00    +0.112 A 
ATOM     10  C   LIG    1        2.904  -4.505  -0.402  0.00  0.00    +0.043 A 
ENDBRANCH   2   5
BRANCH   1  11
ATOM     11  C   LIG    1        0.734  -0.511   1.237  0.00  0.00    +0.105 C 
BRANCH  11  12
ATOM     12  C   LIG    1       -0.038  -0.130   2.473  0.00  0.00    -0.036 A 
ATOM     13  C   LIG    1       -1.328  -0.594   2.653  0.00  0.00    +0.004 A 
ATOM     14  C   LIG    1       -2.037  -0.244   3.788  0.00  0.00    +0.000 A 
ATOM     15  C   LIG    1       -1.455   0.569   4.742  0.00  0.00    +0.000 A 
ATOM     16  C   LIG    1       -0.165   1.032   4.563  0.00  0.00    +0.000 A 
ATOM     17  C   LIG    1        0.545   0.679   3.431  0.00  0.00    +0.004 A 
ENDBRANCH  11  12
BRANCH  11  19
ATOM     18  C   LIG    1       -0.037   1.518   0.001  0.00  0.00    +0.005 C 
ATOM     19  C   LIG    1       -0.010  -0.011  -0.003  0.00  0.00    +0.014 C 
ENDBRANCH  11  19
ENDBRANCH   1  11
TORSDOF 4
