REMARK  Name = ZINC00073672
REMARK                            x       y       z     vdW  Elec       q    Type
REMARK                         _______ _______ _______ _____ _____    ______ ____
ROOT
ATOM      1  C   LIG    1       -0.195   1.490   0.028  0.00  0.00    +0.045 C 
ATOM      2  C   LIG    1       -0.081  -0.012   0.012  0.00  0.00    -0.030 A 
ATOM      3  C   LIG    1       -0.182  -0.761  -1.243  0.00  0.00    +0.021 A 
ATOM      4  C   LIG    1       -0.388  -0.102  -2.461  0.00  0.00    +0.015 A 
ATOM      5  C   LIG    1       -0.478  -0.824  -3.615  0.00  0.00    +0.046 A 
ATOM      6  C   LIG    1       -0.368  -2.213  -3.590  0.00  0.00    +0.120 A 
ATOM      7  C   LIG    1       -0.164  -2.881  -2.394  0.00  0.00    +0.092 A 
ATOM      8  C   LIG    1       -0.070  -2.163  -1.211  0.00  0.00    +0.143 A 
ATOM      9  O   LIG    1        0.129  -2.795  -0.035  0.00  0.00    -0.422 OA
ATOM     10  C   LIG    1        0.223  -2.115   1.119  0.00  0.00    +0.341 A 
ATOM     11  O   LIG    1        0.402  -2.728   2.156  0.00  0.00    -0.245 OA
ATOM     12  C   LIG    1        0.124  -0.709   1.160  0.00  0.00    +0.045 A 
ENDROOT
BRANCH   6  13
ATOM     13  O   LIG    1       -0.460  -2.916  -4.747  0.00  0.00    -0.507 OA
ATOM     14  H   LIG    1        0.387  -3.053  -5.194  0.00  0.00    +0.292 HD
ENDBRANCH   6  13
BRANCH  12  15
ATOM     15  C   LIG    1        0.242   0.019   2.474  0.00  0.00    +0.077 C 
BRANCH  15  16
ATOM     16  C   LIG    1        1.695   0.280   2.776  0.00  0.00    -0.043 A 
ATOM     17  C   LIG    1        2.460  -0.694   3.389  0.00  0.00    +0.004 A 
ATOM     18  C   LIG    1        3.793  -0.454   3.666  0.00  0.00    +0.000 A 
ATOM     19  C   LIG    1        4.361   0.760   3.328  0.00  0.00    +0.000 A 
ATOM     20  C   LIG    1        3.596   1.734   2.713  0.00  0.00    +0.000 A 
ATOM     21  C   LIG    1        2.264   1.493   2.433  0.00  0.00    +0.004 A 
ENDBRANCH  15  16
ENDBRANCH  12  15
TORSDOF 3
