REMARK  Name = ZINC00014037
REMARK                            x       y       z     vdW  Elec       q    Type
REMARK                         _______ _______ _______ _____ _____    ______ ____
ROOT
ATOM      1  C   LIG    1       -1.636  -0.519  -2.559  0.00  0.00    +0.073 C 
ATOM      2  C   LIG    1       -2.428  -1.828  -2.502  0.00  0.00    +0.024 C 
ATOM      3  C   LIG    1       -2.497  -0.945  -3.750  0.00  0.00    -0.008 C 
ENDROOT
BRANCH   1   4
ATOM      4  C   LIG    1       -2.130   0.630  -1.719  0.00  0.00    -0.032 A 
ATOM      5  C   LIG    1       -3.104   1.478  -2.212  0.00  0.00    +0.004 A 
ATOM      6  C   LIG    1       -3.557   2.533  -1.442  0.00  0.00    +0.000 A 
ATOM      7  C   LIG    1       -3.036   2.739  -0.178  0.00  0.00    +0.000 A 
ATOM      8  C   LIG    1       -2.063   1.890   0.316  0.00  0.00    +0.000 A 
ATOM      9  C   LIG    1       -1.613   0.833  -0.453  0.00  0.00    +0.004 A 
ENDBRANCH   1   4
BRANCH   1  11
ATOM     10  N   LIG    1        0.540   0.368  -3.330  0.00  0.00    -0.301 N 
ATOM     11  C   LIG    1       -0.140  -0.617  -2.711  0.00  0.00    +0.226 C 
ATOM     12  O   LIG    1        0.452  -1.583  -2.277  0.00  0.00    -0.275 OA
BRANCH  10  14
ATOM     13  C   LIG    1       -0.732   1.374  -5.160  0.00  0.00    +0.024 C 
ATOM     14  C   LIG    1       -0.158   1.583  -3.758  0.00  0.00    +0.104 C 
ENDBRANCH  10  14
BRANCH  10  15
ATOM     15  C   LIG    1        1.978   0.224  -3.574  0.00  0.00    +0.104 C 
ATOM     16  C   LIG    1        2.756   0.784  -2.382  0.00  0.00    +0.024 C 
ENDBRANCH  10  15
ENDBRANCH   1  11
BRANCH   3  17
ATOM     17  C   LIG    1       -1.773  -1.437  -5.005  0.00  0.00    -0.082 C 
BRANCH  17  18
ATOM     18  N   LIG    1       -2.752  -1.678  -6.073  0.00  0.00    +0.378 N 
ATOM     19  H   LIG    1       -3.415  -2.377  -5.770  0.00  0.00    -0.090 HD
ATOM     20  H   LIG    1       -2.275  -2.003  -6.900  0.00  0.00    -0.090 HD
ATOM     21  H   LIG    1       -3.240  -0.820  -6.281  0.00  0.00    -0.090 HD
ENDBRANCH  17  18
ENDBRANCH   3  17
TORSDOF 6
