REMARK  Name = ZINC00003876
REMARK                            x       y       z     vdW  Elec       q    Type
REMARK                         _______ _______ _______ _____ _____    ______ ____
ROOT
ATOM      1  C   LIG    1       -0.089  -4.276   0.111  0.00  0.00    +0.093 A 
ATOM      2  C   LIG    1        0.780  -5.049   0.820  0.00  0.00    +0.060 A 
ATOM      3  N   LIG    1        0.664  -6.325   0.343  0.00  0.00    -0.302 N 
ATOM      4  C   LIG    1        1.286  -7.493   0.679  0.00  0.00    +0.096 A 
ATOM      5  C   LIG    1        0.983  -8.642   0.040  0.00  0.00    -0.034 A 
ATOM      6  C   LIG    1        1.680  -9.921   0.425  0.00  0.00    +0.045 C 
ATOM      7  C   LIG    1        0.021  -8.651  -0.984  0.00  0.00    +0.008 A 
ATOM      8  C   LIG    1       -0.607  -7.494  -1.329  0.00  0.00    +0.047 A 
ATOM      9  C   LIG    1       -0.279  -6.302  -0.652  0.00  0.00    +0.138 A 
ATOM     10  N   LIG    1       -0.726  -5.060  -0.773  0.00  0.00    -0.228 NA
ENDROOT
BRANCH   1  15
ATOM     11  C   LIG    1       -0.912   1.382   0.805  0.00  0.00    +0.044 C 
ATOM     12  C   LIG    1       -0.697  -0.099   0.624  0.00  0.00    -0.050 A 
ATOM     13  C   LIG    1        0.586  -0.616   0.644  0.00  0.00    +0.004 A 
ATOM     14  C   LIG    1        0.789  -1.971   0.478  0.00  0.00    +0.010 A 
ATOM     15  C   LIG    1       -0.301  -2.818   0.290  0.00  0.00    +0.002 A 
ATOM     16  C   LIG    1       -1.591  -2.292   0.271  0.00  0.00    +0.010 A 
ATOM     17  C   LIG    1       -1.783  -0.936   0.443  0.00  0.00    +0.004 A 
ENDBRANCH   1  15
BRANCH   2  18
ATOM     18  C   LIG    1        1.698  -4.585   1.922  0.00  0.00    +0.151 C 
BRANCH  18  19
ATOM     19  C   LIG    1        3.061  -4.293   1.350  0.00  0.00    +0.221 C 
ATOM     20  N   LIG    1        4.051  -3.861   2.156  0.00  0.00    -0.307 N 
ATOM     21  C   LIG    1        3.802  -3.676   3.588  0.00  0.00    +0.131 C 
ATOM     22  C   LIG    1        5.377  -3.577   1.601  0.00  0.00    +0.131 C 
ATOM     23  O   LIG    1        3.268  -4.447   0.165  0.00  0.00    -0.275 OA
ENDBRANCH  18  19
ENDBRANCH   2  18
TORSDOF 3
