REMARK  Name = ZINC00004009
REMARK                            x       y       z     vdW  Elec       q    Type
REMARK                         _______ _______ _______ _____ _____    ______ ____
ROOT
ATOM      1  C   LIG    1        3.487   2.085  -0.258  0.00  0.00    +0.132 C 
ENDROOT
BRANCH   1   4
ATOM      2  C   LIG    1       -0.219   1.366  -0.204  0.00  0.00    +0.039 A 
ATOM      3  C   LIG    1        0.985   2.043  -0.268  0.00  0.00    +0.012 A 
ATOM      4  C   LIG    1        2.175   1.346  -0.188  0.00  0.00    +0.023 A 
ATOM      5  C   LIG    1        2.164  -0.032  -0.045  0.00  0.00    +0.132 A 
ATOM      6  F   LIG    1        3.328  -0.713   0.031  0.00  0.00    -0.205 F 
ATOM      7  C   LIG    1        0.960  -0.710   0.019  0.00  0.00    +0.077 A 
ATOM      8  C   LIG    1       -0.233  -0.011  -0.061  0.00  0.00    +0.126 A 
ATOM      9  F   LIG    1       -1.409  -0.672   0.002  0.00  0.00    -0.205 F 
ENDBRANCH   1   4
BRANCH   1  10
ATOM     10  O   LIG    1        3.237   3.485  -0.405  0.00  0.00    -0.380 OA
ATOM     11  H   LIG    1        2.729   3.872   0.321  0.00  0.00    +0.211 HD
ENDBRANCH   1  10
BRANCH   1  12
ATOM     12  C   LIG    1        4.293   1.582  -1.457  0.00  0.00    +0.186 C 
BRANCH  12  13
ATOM     13  N   LIG    1        5.561   2.312  -1.534  0.00  0.00    -0.249 N 
ATOM     14  C   LIG    1        6.795   1.780  -1.571  0.00  0.00    +0.219 A 
ATOM     15  N   LIG    1        7.658   2.762  -1.639  0.00  0.00    -0.223 NA
ATOM     16  C   LIG    1        7.015   3.929  -1.647  0.00  0.00    +0.244 A 
ATOM     17  N   LIG    1        5.728   3.705  -1.590  0.00  0.00    -0.158 NA
ENDBRANCH  12  13
ENDBRANCH   1  12
BRANCH   1  18
ATOM     18  C   LIG    1        4.279   1.841   1.028  0.00  0.00    +0.186 C 
BRANCH  18  19
ATOM     19  N   LIG    1        3.455   2.203   2.185  0.00  0.00    -0.249 N 
ATOM     20  C   LIG    1        3.119   1.407   3.215  0.00  0.00    +0.219 A 
ATOM     21  N   LIG    1        2.378   2.101   4.039  0.00  0.00    -0.223 NA
ATOM     22  C   LIG    1        2.220   3.339   3.572  0.00  0.00    +0.244 A 
ATOM     23  N   LIG    1        2.866   3.451   2.441  0.00  0.00    -0.158 NA
ENDBRANCH  18  19
ENDBRANCH   1  18
TORSDOF 6
