REMARK  Name = ZINC00023894
REMARK                            x       y       z     vdW  Elec       q    Type
REMARK                         _______ _______ _______ _____ _____    ______ ____
ROOT
ATOM      1  C   LIG    1       -1.217   1.745   0.017  0.00  0.00    +0.001 A 
ATOM      2  C   LIG    1       -1.236   3.129   0.029  0.00  0.00    +0.002 A 
ATOM      3  C   LIG    1       -0.057   3.841   0.035  0.00  0.00    +0.024 A 
ATOM      4  C   LIG    1        1.175   3.183   0.036  0.00  0.00    +0.043 A 
ATOM      5  C   LIG    1        1.192   1.788   0.000  0.00  0.00    +0.020 A 
ATOM      6  C   LIG    1        2.452   1.019  -0.094  0.00  0.00    +0.053 A 
ATOM      7  C   LIG    1        3.544   1.406  -0.798  0.00  0.00    -0.006 A 
ATOM      8  C   LIG    1        3.667   2.704  -1.557  0.00  0.00    +0.134 C 
ATOM      9  C   LIG    1        3.455   3.828  -0.574  0.00  0.00    +0.222 C 
ATOM     10  O   LIG    1        4.348   4.628  -0.390  0.00  0.00    -0.275 OA
ATOM     11  C   LIG    1        4.532   0.358  -0.665  0.00  0.00    +0.006 A 
ATOM     12  C   LIG    1        5.823   0.204  -1.184  0.00  0.00    +0.043 A 
ATOM     13  C   LIG    1        6.497  -0.942  -0.841  0.00  0.00    +0.122 A 
ATOM     14  C   LIG    1        5.935  -1.908  -0.021  0.00  0.00    +0.034 A 
ATOM     15  C   LIG    1        4.660  -1.782   0.504  0.00  0.00    +0.028 A 
ATOM     16  C   LIG    1        3.951  -0.630   0.173  0.00  0.00    +0.047 A 
ATOM     17  N   LIG    1        2.700  -0.199   0.508  0.00  0.00    -0.354 N 
ATOM     18  H   LIG    1        2.079  -0.676   1.081  0.00  0.00    +0.166 HD
ATOM     19  N   LIG    1        2.314   3.966   0.098  0.00  0.00    -0.285 N 
ATOM     20  H   LIG    1        2.276   4.715   0.713  0.00  0.00    +0.155 HD
ATOM     21  C   LIG    1       -0.013   1.076   0.008  0.00  0.00    +0.012 A 
ENDROOT
BRANCH  13  22
ATOM     22  N   LIG    1        7.866  -1.152  -1.363  0.00  0.00    +0.006 N 
ATOM     23  O   LIG    1        8.480  -2.162  -1.070  0.00  0.00    -0.130 OA
BRANCH  22  24
ATOM     24  O   LIG    1        8.378  -0.315  -2.084  0.00  0.00    -0.396 OA
ATOM     25  H   LIG    1        7.905   0.462  -2.309  0.00  0.00    +0.329 HD
ENDBRANCH  22  24
ENDBRANCH  13  22
TORSDOF 2
