REMARK  Name = ZINC00009357
REMARK                            x       y       z     vdW  Elec       q    Type
REMARK                         _______ _______ _______ _____ _____    ______ ____
ROOT
ATOM      1  C   LIG    1       -0.834   3.026   0.026  0.00  0.00    +0.154 A 
ATOM      2  C   LIG    1        0.624   3.104   0.013  0.00  0.00    +0.045 A 
ATOM      3  C   LIG    1        1.558   4.144   0.010  0.00  0.00    +0.041 A 
ATOM      4  C   LIG    1        2.907   3.824  -0.004  0.00  0.00    +0.072 A 
ATOM      5  N   LIG    1        3.311   2.555  -0.015  0.00  0.00    -0.253 NA
ATOM      6  C   LIG    1        2.468   1.547  -0.013  0.00  0.00    +0.139 A 
ATOM      7  C   LIG    1        1.094   1.774   0.001  0.00  0.00    +0.086 A 
ATOM      8  N   LIG    1       -0.011   0.966   0.007  0.00  0.00    -0.274 N 
ATOM      9  H   LIG    1        0.003  -0.034   0.006  0.00  0.00    +0.189 HD
ATOM     10  N   LIG    1       -1.163   1.760   0.017  0.00  0.00    -0.157 NA
ENDROOT
BRANCH   4  11
ATOM     11  C   LIG    1        3.916   4.912  -0.008  0.00  0.00    +0.000 A 
ATOM     12  C   LIG    1        3.508   6.244  -0.003  0.00  0.00    +0.010 A 
ATOM     13  C   LIG    1        4.450   7.252  -0.003  0.00  0.00    +0.001 A 
ATOM     14  C   LIG    1        5.798   6.942  -0.017  0.00  0.00    +0.000 A 
ATOM     15  C   LIG    1        6.209   5.621  -0.026  0.00  0.00    +0.001 A 
ATOM     16  C   LIG    1        5.275   4.605  -0.022  0.00  0.00    +0.010 A 
ENDBRANCH   4  11
BRANCH   1  18
ATOM     17  C   LIG    1       -3.050   3.892   0.052  0.00  0.00    +0.218 C 
ATOM     18  N   LIG    1       -1.720   4.109   0.041  0.00  0.00    -0.268 N 
ATOM     19  H   LIG    1       -1.377   5.016   0.042  0.00  0.00    +0.156 HD
ATOM     20  O   LIG    1       -3.479   2.758   0.050  0.00  0.00    -0.275 OA
BRANCH  17  21
ATOM     21  C   LIG    1       -4.004   5.059   0.068  0.00  0.00    +0.096 C 
BRANCH  21  23
ATOM     22  C   LIG    1       -6.412   5.725   0.094  0.00  0.00    +0.004 C 
ATOM     23  C   LIG    1       -5.444   4.540   0.079  0.00  0.00    +0.006 C 
ENDBRANCH  21  23
ENDBRANCH  17  21
ENDBRANCH   1  18
TORSDOF 4
