REMARK  Name = ZINC00005569
REMARK                            x       y       z     vdW  Elec       q    Type
REMARK                         _______ _______ _______ _____ _____    ______ ____
ROOT
ATOM      1  C   LIG    1       -4.290   2.023  -1.030  0.00  0.00    +0.048 C 
ATOM      2  C   LIG    1       -3.848   3.183  -1.884  0.00  0.00    -0.003 A 
ATOM      3  C   LIG    1       -3.153   4.214  -1.307  0.00  0.00    -0.010 A 
ATOM      4  C   LIG    1       -2.728   5.320  -2.077  0.00  0.00    +0.084 A 
ATOM      5  C   LIG    1       -3.049   5.286  -3.453  0.00  0.00    +0.047 A 
ATOM      6  S   LIG    1       -2.348   6.809  -4.043  0.00  0.00    -0.052 S 
ATOM      7  C   LIG    1       -1.688   7.373  -2.482  0.00  0.00    +0.159 A 
ATOM      8  C   LIG    1       -3.744   4.252  -4.027  0.00  0.00    +0.007 A 
ATOM      9  C   LIG    1       -4.062   4.276  -5.500  0.00  0.00    +0.049 C 
ATOM     10  N   LIG    1       -2.034   6.406  -1.664  0.00  0.00    -0.225 NA
ATOM     11  C   LIG    1       -4.152   3.183  -3.241  0.00  0.00    +0.124 A 
ENDROOT
BRANCH   7  12
ATOM     12  N   LIG    1       -0.991   8.533  -2.205  0.00  0.00    -0.327 N 
ATOM     13  H   LIG    1       -0.689   8.713  -1.301  0.00  0.00    +0.148 HD
ATOM     14  C   LIG    1       -0.708   9.491  -3.276  0.00  0.00    +0.127 C 
ENDBRANCH   7  12
BRANCH  11  15
ATOM     15  O   LIG    1       -4.843   2.149  -3.792  0.00  0.00    -0.506 OA
ATOM     16  H   LIG    1       -5.803   2.266  -3.780  0.00  0.00    +0.292 HD
ENDBRANCH  11  15
BRANCH   3  17
ATOM     17  C   LIG    1       -2.846   4.171   0.168  0.00  0.00    +0.074 C 
BRANCH  17  18
ATOM     18  C   LIG    1       -3.964   4.830   0.933  0.00  0.00    -0.025 A 
ATOM     19  C   LIG    1       -3.987   6.208   1.095  0.00  0.00    +0.007 A 
ATOM     20  C   LIG    1       -5.033   6.770   1.811  0.00  0.00    +0.020 A 
ATOM     21  C   LIG    1       -6.016   5.947   2.327  0.00  0.00    +0.111 A 
ATOM     22  N   LIG    1       -5.963   4.641   2.150  0.00  0.00    -0.263 NA
ATOM     23  C   LIG    1       -4.981   4.071   1.479  0.00  0.00    +0.114 A 
ENDBRANCH  17  18
ENDBRANCH   3  17
TORSDOF 4
