REMARK  Name = ZINC00001600
REMARK                            x       y       z     vdW  Elec       q    Type
REMARK                         _______ _______ _______ _____ _____    ______ ____
ROOT
ATOM      1  C   LIG    1       -0.065   5.351   0.031  0.00  0.00    +0.051 C 
ATOM      2  C   LIG    1       -0.801   5.861  -1.211  0.00  0.00    +0.000 C 
ATOM      3  C   LIG    1       -0.760   7.391  -1.229  0.00  0.00    -0.078 C 
ATOM      4  N   LIG    1        0.651   7.834  -1.267  0.00  0.00    +0.378 N 
ATOM      5  H   LIG    1        1.113   7.406  -2.077  0.00  0.00    -0.082 HD
ATOM      6  C   LIG    1        0.714   9.304  -1.399  0.00  0.00    -0.096 C 
ATOM      7  C   LIG    1        1.349   7.407  -0.036  0.00  0.00    -0.078 C 
ATOM      8  C   LIG    1        1.372   5.878   0.017  0.00  0.00    +0.000 C 
ENDROOT
BRANCH   1   9
ATOM      9  C   LIG    1       -0.049   3.844   0.023  0.00  0.00    -0.031 A 
ATOM     10  C   LIG    1        1.156   3.166   0.008  0.00  0.00    +0.005 A 
ATOM     11  C   LIG    1        1.174   1.783   0.000  0.00  0.00    +0.004 A 
ATOM     12  C   LIG    1       -0.013   1.076   0.008  0.00  0.00    +0.045 A 
ATOM     13  C   LIG    1       -1.223   1.754   0.017  0.00  0.00    +0.117 A 
ATOM     14  C   LIG    1       -1.238   3.141   0.030  0.00  0.00    +0.050 A 
BRANCH  13  15
ATOM     15  O   LIG    1       -2.391   1.060   0.019  0.00  0.00    -0.507 OA
ATOM     16  H   LIG    1       -2.725   0.854   0.903  0.00  0.00    +0.292 HD
ENDBRANCH  13  15
ENDBRANCH   1   9
BRANCH   1  17
ATOM     17  C   LIG    1       -0.769   5.840   1.270  0.00  0.00    +0.143 C 
ATOM     18  O   LIG    1       -0.182   6.537   2.063  0.00  0.00    -0.296 OA
BRANCH  17  20
ATOM     19  C   LIG    1       -2.677   6.082   2.836  0.00  0.00    +0.012 C 
ATOM     20  C   LIG    1       -2.206   5.460   1.520  0.00  0.00    +0.072 C 
ENDBRANCH  17  20
ENDBRANCH   1  17
TORSDOF 4
