REMARK  Name = ZINC00009295
REMARK                            x       y       z     vdW  Elec       q    Type
REMARK                         _______ _______ _______ _____ _____    ______ ____
ROOT
ATOM      1  C   LIG    1       -0.017   1.362   0.002  0.00  0.00    +0.002 A 
ATOM      2  C   LIG    1        1.167   2.086   0.018  0.00  0.00    +0.002 A 
ATOM      3  C   LIG    1        2.385   1.437   0.014  0.00  0.00    +0.028 A 
ATOM      4  C   LIG    1        2.424   0.051  -0.007  0.00  0.00    +0.077 A 
ATOM      5  C   LIG    1        1.225  -0.684  -0.023  0.00  0.00    +0.090 A 
ATOM      6  N   LIG    1        1.559  -1.995  -0.041  0.00  0.00    -0.227 NA
ATOM      7  C   LIG    1        2.867  -2.125  -0.037  0.00  0.00    +0.149 A 
ATOM      8  C   LIG    1        3.714  -3.336  -0.051  0.00  0.00    +0.026 A 
ATOM      9  C   LIG    1        3.155  -4.604  -0.073  0.00  0.00    +0.013 A 
ATOM     10  C   LIG    1        3.952  -5.738  -0.086  0.00  0.00    +0.016 A 
ATOM     11  C   LIG    1        5.341  -5.642  -0.077  0.00  0.00    +0.067 A 
ATOM     12  C   LIG    1        5.957  -4.317  -0.053  0.00  0.00    -0.003 A 
ATOM     13  C   LIG    1        7.348  -4.141  -0.043  0.00  0.00    +0.009 A 
ATOM     14  C   LIG    1        7.878  -2.882  -0.022  0.00  0.00    +0.001 A 
ATOM     15  C   LIG    1        7.065  -1.755  -0.010  0.00  0.00    +0.014 A 
ATOM     16  C   LIG    1        5.684  -1.888  -0.019  0.00  0.00    +0.048 A 
ATOM     17  C   LIG    1        4.790  -0.722  -0.007  0.00  0.00    +0.265 A 
ATOM     18  O   LIG    1        5.262   0.398   0.012  0.00  0.00    -0.267 OA
ATOM     19  C   LIG    1        5.119  -3.184  -0.041  0.00  0.00    +0.006 A 
ATOM     20  N   LIG    1        3.451  -0.881  -0.016  0.00  0.00    -0.258 N 
ATOM     21  C   LIG    1        0.002  -0.004  -0.019  0.00  0.00    +0.030 A 
ENDROOT
BRANCH  11  22
ATOM     22  C   LIG    1        6.175  -6.855  -0.090  0.00  0.00    +0.337 C 
ATOM     23  O   LIG    1        5.652  -7.958   0.001  0.00  0.00    -0.245 OA
BRANCH  22  24
ATOM     24  O   LIG    1        7.390  -6.761  -0.192  0.00  0.00    -0.477 OA
ATOM     25  H   LIG    1        7.790  -5.917  -0.262  0.00  0.00    +0.295 HD
ENDBRANCH  22  24
ENDBRANCH  11  22
TORSDOF 2
