REMARK  Name = ZINC00056659
REMARK                            x       y       z     vdW  Elec       q    Type
REMARK                         _______ _______ _______ _____ _____    ______ ____
ROOT
ATOM      1  S   LIG    1        3.650  -1.486  -0.043  0.00  0.00    +0.102 S 
ATOM      2  O   LIG    1        3.579  -2.161  -1.291  0.00  0.00    -0.146 OA
ATOM      3  O   LIG    1        3.604  -2.173   1.200  0.00  0.00    -0.146 OA
ENDROOT
BRANCH   1  12
ATOM      4  C   LIG    1       -0.018   1.503   0.010  0.00  0.00    +0.051 C 
ATOM      5  C   LIG    1        0.002  -0.004   0.002  0.00  0.00    +0.037 A 
ATOM      6  C   LIG    1       -1.080  -0.808   0.003  0.00  0.00    +0.055 A 
ATOM      7  C   LIG    1       -2.515  -0.348   0.013  0.00  0.00    +0.067 C 
ATOM      8  N   LIG    1       -0.663  -2.098  -0.006  0.00  0.00    -0.223 N 
ATOM      9  H   LIG    1       -1.234  -2.882  -0.008  0.00  0.00    +0.207 HD
ATOM     10  O   LIG    1        0.754  -2.102  -0.013  0.00  0.00    -0.358 OA
ATOM     11  C   LIG    1        1.159  -0.816  -0.014  0.00  0.00    +0.270 A 
ATOM     12  N   LIG    1        2.405  -0.393  -0.025  0.00  0.00    -0.088 NA
ENDBRANCH   1  12
BRANCH   1  13
ATOM     13  C   LIG    1        5.151  -0.564  -0.054  0.00  0.00    +0.113 A 
ATOM     14  C   LIG    1        5.724  -0.192  -1.256  0.00  0.00    +0.031 A 
ATOM     15  C   LIG    1        6.901   0.530  -1.269  0.00  0.00    +0.024 A 
ATOM     16  C   LIG    1        7.510   0.883  -0.071  0.00  0.00    +0.025 A 
ATOM     17  C   LIG    1        6.932   0.508   1.135  0.00  0.00    +0.024 A 
ATOM     18  C   LIG    1        5.752  -0.209   1.140  0.00  0.00    +0.031 A 
BRANCH  16  19
ATOM     19  N   LIG    1        8.700   1.613  -0.080  0.00  0.00    -0.358 N 
ATOM     20  H   LIG    1        9.124   1.860   0.757  0.00  0.00    +0.142 HD
ATOM     21  H   LIG    1        9.103   1.874  -0.923  0.00  0.00    +0.142 HD
ENDBRANCH  16  19
ENDBRANCH   1  13
TORSDOF 3
