REMARK  Name = ZINC00057255
REMARK                            x       y       z     vdW  Elec       q    Type
REMARK                         _______ _______ _______ _____ _____    ______ ____
ROOT
ATOM      1  C   LIG    1       -0.017   1.375   0.010  0.00  0.00    +0.001 A 
ATOM      2  C   LIG    1        1.168   2.090   0.002  0.00  0.00    +0.000 A 
ATOM      3  C   LIG    1        2.383   1.425  -0.013  0.00  0.00    +0.009 A 
ATOM      4  C   LIG    1        2.413   0.049  -0.021  0.00  0.00    +0.019 A 
ATOM      5  C   LIG    1        1.223  -0.682  -0.013  0.00  0.00    +0.045 A 
ATOM      6  C   LIG    1        1.562  -2.118  -0.024  0.00  0.00    +0.247 C 
ATOM      7  N   LIG    1        2.896  -2.281  -0.038  0.00  0.00    -0.276 N 
ATOM      8  H   LIG    1        3.361  -3.133  -0.047  0.00  0.00    +0.152 HD
ATOM      9  O   LIG    1        0.751  -3.023  -0.021  0.00  0.00    -0.270 OA
ATOM     10  C   LIG    1        3.533  -0.960  -0.038  0.00  0.00    +0.187 C 
ATOM     11  C   LIG    1        0.002  -0.004   0.002  0.00  0.00    +0.013 A 
ENDROOT
BRANCH  10  12
ATOM     12  C   LIG    1        4.392  -0.800   1.190  0.00  0.00    +0.009 A 
ATOM     13  C   LIG    1        5.413   0.133   1.203  0.00  0.00    +0.010 A 
ATOM     14  C   LIG    1        6.201   0.280   2.328  0.00  0.00    +0.022 A 
ATOM     15  C   LIG    1        5.969  -0.506   3.443  0.00  0.00    +0.067 A 
ATOM     16 CL   LIG    1        6.959  -0.323   4.857  0.00  0.00    -0.082 Cl
ATOM     17  C   LIG    1        4.947  -1.439   3.430  0.00  0.00    +0.124 A 
ATOM     18  C   LIG    1        4.156  -1.581   2.305  0.00  0.00    +0.038 A 
BRANCH  17  19
ATOM     19  S   LIG    1        4.651  -2.441   4.849  0.00  0.00    +0.057 S 
ATOM     20  O   LIG    1        3.571  -3.304   4.518  0.00  0.00    -0.153 OA
ATOM     21  O   LIG    1        4.610  -1.562   5.965  0.00  0.00    -0.153 OA
BRANCH  19  22
ATOM     22  N   LIG    1        5.981  -3.405   5.054  0.00  0.00    -0.203 NA
ATOM     23  H   LIG    1        6.505  -3.679   4.285  0.00  0.00    +0.144 HD
ATOM     24  H   LIG    1        6.237  -3.696   5.943  0.00  0.00    +0.144 HD
ENDBRANCH  19  22
ENDBRANCH  17  19
ENDBRANCH  10  12
BRANCH  10  25
ATOM     25  O   LIG    1        4.325  -0.795  -1.216  0.00  0.00    -0.364 OA
ATOM     26  H   LIG    1        5.062  -1.417  -1.284  0.00  0.00    +0.213 HD
ENDBRANCH  10  25
TORSDOF 4
