REMARK  Name = ZINC00041847
REMARK                            x       y       z     vdW  Elec       q    Type
REMARK                         _______ _______ _______ _____ _____    ______ ____
ROOT
ATOM      1  C   LIG    1        0.299  -0.855  -1.162  0.00  0.00    +0.177 A 
ATOM      2  N   LIG    1        0.751  -0.282  -2.264  0.00  0.00    -0.206 NA
ATOM      3  C   LIG    1        1.603  -0.965  -3.006  0.00  0.00    +0.154 A 
ATOM      4  N   LIG    1        1.945  -2.179  -2.593  0.00  0.00    -0.261 N 
ATOM      5  S   LIG    1        1.076  -2.345  -1.169  0.00  0.00    +0.031 S 
ENDROOT
BRANCH   3   6
ATOM      6  C   LIG    1        2.157  -0.397  -4.257  0.00  0.00    +0.018 A 
ATOM      7  C   LIG    1        2.458  -1.232  -5.332  0.00  0.00    +0.011 A 
ATOM      8  C   LIG    1        2.973  -0.696  -6.495  0.00  0.00    +0.001 A 
ATOM      9  C   LIG    1        3.192   0.666  -6.595  0.00  0.00    +0.000 A 
ATOM     10  C   LIG    1        2.896   1.500  -5.531  0.00  0.00    +0.001 A 
ATOM     11  C   LIG    1        2.375   0.977  -4.365  0.00  0.00    +0.011 A 
ENDBRANCH   3   6
BRANCH   4  12
ATOM     12  C   LIG    1        2.801  -3.074  -3.182  0.00  0.00    +0.055 A 
ATOM     13  C   LIG    1        4.104  -2.688  -3.506  0.00  0.00    +0.027 A 
ATOM     14  C   LIG    1        4.960  -3.593  -4.098  0.00  0.00    +0.002 A 
ATOM     15  C   LIG    1        4.531  -4.880  -4.370  0.00  0.00    +0.000 A 
ATOM     16  C   LIG    1        3.242  -5.268  -4.053  0.00  0.00    +0.002 A 
ATOM     17  C   LIG    1        2.377  -4.375  -3.455  0.00  0.00    +0.027 A 
ENDBRANCH   4  12
BRANCH   1  19
ATOM     18  C   LIG    1       -1.160   0.986  -0.411  0.00  0.00    +0.127 C 
ATOM     19  N   LIG    1       -0.589  -0.351  -0.230  0.00  0.00    -0.325 N 
ATOM     20  H   LIG    1       -0.834  -0.883   0.543  0.00  0.00    +0.148 HD
ENDBRANCH   1  19
TORSDOF 3
