REMARK  Name = ZINC00005452
REMARK                            x       y       z     vdW  Elec       q    Type
REMARK                         _______ _______ _______ _____ _____    ______ ____
ROOT
ATOM      1  C   LIG    1        0.368   5.374   0.050  0.00  0.00    -0.024 A 
ATOM      2  C   LIG    1        1.689   5.593   0.154  0.00  0.00    +0.087 A 
ATOM      3  N   LIG    1        2.363   4.403   0.125  0.00  0.00    -0.360 N 
ATOM      4  C   LIG    1        1.469   3.361  -0.002  0.00  0.00    +0.047 A 
ATOM      5  C   LIG    1        1.616   1.980  -0.080  0.00  0.00    +0.030 A 
ATOM      6  C   LIG    1        0.506   1.176  -0.207  0.00  0.00    +0.047 A 
ATOM      7  C   LIG    1       -0.769   1.731  -0.265  0.00  0.00    +0.121 A 
ATOM      8  C   LIG    1       -0.937   3.099  -0.184  0.00  0.00    +0.056 A 
ATOM      9  H   LIG    1        3.326   4.307   0.186  0.00  0.00    +0.165 HD
ATOM     10  C   LIG    1        0.181   3.925  -0.055  0.00  0.00    +0.006 A 
ENDROOT
BRANCH   7  11
ATOM     11  O   LIG    1       -1.855   0.922  -0.396  0.00  0.00    -0.495 OA
ATOM     12  C   LIG    1       -1.611  -0.484  -0.468  0.00  0.00    +0.277 C 
ENDBRANCH   7  11
BRANCH   1  13
ATOM     13  C   LIG    1       -0.716   6.420   0.042  0.00  0.00    +0.022 C 
BRANCH  13  17
ATOM     14  C   LIG    1       -1.684   9.030   1.503  0.00  0.00    -0.096 C 
ATOM     15  N   LIG    1       -2.281   7.657   1.509  0.00  0.00    +0.380 N 
ATOM     16  H   LIG    1       -2.900   7.555   0.696  0.00  0.00    -0.082 HD
ATOM     17  C   LIG    1       -1.225   6.639   1.468  0.00  0.00    -0.065 C 
ATOM     18  C   LIG    1       -1.930   5.368   1.988  0.00  0.00    -0.017 C 
ATOM     19  C   LIG    1       -3.119   5.884   2.826  0.00  0.00    -0.020 C 
ATOM     20  C   LIG    1       -3.031   7.423   2.740  0.00  0.00    -0.079 C 
ENDBRANCH  13  17
ENDBRANCH   1  13
TORSDOF 3
