REMARK  Name = ZINC00007343
REMARK                            x       y       z     vdW  Elec       q    Type
REMARK                         _______ _______ _______ _____ _____    ______ ____
ROOT
ATOM      1  C   LIG    1        0.802  -1.823   1.306  0.00  0.00    +0.138 A 
ATOM      2  C   LIG    1        0.250  -2.671   0.358  0.00  0.00    +0.049 A 
ATOM      3  C   LIG    1        0.365  -4.039   0.501  0.00  0.00    +0.031 A 
ATOM      4  C   LIG    1        1.023  -4.577   1.602  0.00  0.00    +0.067 A 
ATOM      5  C   LIG    1        1.574  -3.743   2.559  0.00  0.00    +0.050 A 
ATOM      6  C   LIG    1        1.467  -2.357   2.417  0.00  0.00    +0.095 A 
ENDROOT
BRANCH   4   7
ATOM      7  N   LIG    1        1.130  -5.969   1.742  0.00  0.00    -0.239 N 
ATOM      8  C   LIG    1        0.636  -6.884   0.890  0.00  0.00    +0.129 A 
ATOM      9  C   LIG    1        0.959  -8.131   1.391  0.00  0.00    +0.097 A 
ATOM     10  C   LIG    1        1.667  -7.924   2.597  0.00  0.00    +0.149 A 
ATOM     11  N   LIG    1        1.763  -6.638   2.795  0.00  0.00    -0.174 NA
BRANCH   9  12
ATOM     12  C   LIG    1        0.623  -9.431   0.786  0.00  0.00    +0.340 C 
ATOM     13  O   LIG    1        0.006  -9.472  -0.260  0.00  0.00    -0.245 OA
BRANCH  12  14
ATOM     14  O   LIG    1        1.000 -10.574   1.392  0.00  0.00    -0.477 OA
ATOM     15  H   LIG    1        1.476 -10.541   2.198  0.00  0.00    +0.295 HD
ENDBRANCH  12  14
ENDBRANCH   9  12
ENDBRANCH   4   7
BRANCH   6  16
ATOM     16  C   LIG    1        2.034  -1.487   3.404  0.00  0.00    +0.103 C 
ATOM     17  N   LIG    1        2.483  -0.797   4.186  0.00  0.00    -0.191 NA
ENDBRANCH   6  16
BRANCH   1  18
ATOM     18  O   LIG    1        0.693  -0.477   1.160  0.00  0.00    -0.490 OA
BRANCH  18  19
ATOM     19  C   LIG    1        0.002  -0.004   0.002  0.00  0.00    +0.235 C 
BRANCH  19  21
ATOM     20  C   LIG    1        1.417   2.055  -0.000  0.00  0.00    +0.014 C 
ATOM     21  C   LIG    1       -0.019   1.526   0.010  0.00  0.00    -0.004 C 
ATOM     22  C   LIG    1       -0.735   2.019   1.269  0.00  0.00    +0.014 C 
ATOM     23  C   LIG    1       -0.759   2.033  -1.229  0.00  0.00    +0.014 C 
ENDBRANCH  19  21
ENDBRANCH  18  19
ENDBRANCH   1  18
TORSDOF 7
