REMARK  Name = ZINC00006559
REMARK                            x       y       z     vdW  Elec       q    Type
REMARK                         _______ _______ _______ _____ _____    ______ ____
ROOT
ATOM      1  C   LIG    1       -0.013   1.086   0.008  0.00  0.00    +0.086 C 
ATOM      2  C   LIG    1       -0.718   1.572   1.248  0.00  0.00    +0.105 A 
ATOM      3  N   LIG    1       -0.139   1.817   2.389  0.00  0.00    -0.341 N 
ATOM      4  C   LIG    1       -1.056   2.230   3.286  0.00  0.00    +0.078 A 
ATOM      5  C   LIG    1       -0.985   2.621   4.640  0.00  0.00    +0.062 A 
ATOM      6  C   LIG    1       -2.147   3.004   5.304  0.00  0.00    +0.015 A 
ATOM      7  C   LIG    1       -3.362   3.002   4.644  0.00  0.00    +0.003 A 
ATOM      8  C   LIG    1       -3.442   2.622   3.319  0.00  0.00    +0.030 A 
ATOM      9  C   LIG    1       -2.299   2.241   2.632  0.00  0.00    +0.090 A 
ATOM     10  H   LIG    1        0.839   1.715   2.572  0.00  0.00    +0.167 HD
ATOM     11  N   LIG    1       -2.051   1.818   1.340  0.00  0.00    -0.233 NA
ENDROOT
BRANCH   5  12
ATOM     12  C   LIG    1        0.309   2.622   5.346  0.00  0.00    +0.244 C 
ATOM     13  N   LIG    1        0.371   2.997   6.639  0.00  0.00    -0.325 N 
ATOM     14  H   LIG    1        1.223   2.998   7.104  0.00  0.00    +0.145 HD
ATOM     15  H   LIG    1       -0.436   3.265   7.106  0.00  0.00    +0.145 HD
ATOM     16  O   LIG    1        1.321   2.286   4.761  0.00  0.00    -0.270 OA
ENDBRANCH   5  12
TORSDOF 1
