REMARK  Name = ZINC00027793
REMARK                            x       y       z     vdW  Elec       q    Type
REMARK                         _______ _______ _______ _____ _____    ______ ____
ROOT
ATOM      1  C   LIG    1       -1.220   1.642   0.017  0.00  0.00    +0.085 A 
ATOM      2  C   LIG    1       -2.504   1.114   0.014  0.00  0.00    +0.068 A 
ATOM      3  C   LIG    1       -3.615   2.050   0.030  0.00  0.00    -0.023 A 
ATOM      4  C   LIG    1       -3.267   3.355   0.035  0.00  0.00    -0.004 A 
ATOM      5  C   LIG    1       -4.189   4.536   0.044  0.00  0.00    +0.043 C 
ATOM      6  C   LIG    1       -5.598   4.052  -0.331  0.00  0.00    +0.005 C 
ATOM      7  C   LIG    1       -5.930   2.810   0.501  0.00  0.00    +0.005 C 
ATOM      8  C   LIG    1       -5.079   1.628   0.035  0.00  0.00    +0.037 C 
ATOM      9  S   LIG    1       -1.497   3.352   0.027  0.00  0.00    -0.077 S 
ENDROOT
BRANCH   2  10
ATOM     10  C   LIG    1       -2.730  -0.334   0.001  0.00  0.00    +0.244 C 
ATOM     11  N   LIG    1       -2.836  -0.989  -1.173  0.00  0.00    -0.325 N 
ATOM     12  H   LIG    1       -2.986  -1.947  -1.182  0.00  0.00    +0.145 HD
ATOM     13  H   LIG    1       -2.763  -0.502  -2.008  0.00  0.00    +0.145 HD
ATOM     14  O   LIG    1       -2.822  -0.946   1.049  0.00  0.00    -0.270 OA
ENDBRANCH   2  10
BRANCH   1  16
ATOM     15  C   LIG    1        1.147   1.655   0.000  0.00  0.00    +0.284 C 
ATOM     16  N   LIG    1       -0.011   0.966   0.007  0.00  0.00    -0.273 N 
ATOM     17  H   LIG    1        0.002  -0.004   0.002  0.00  0.00    +0.156 HD
ATOM     18  O   LIG    1        1.130   2.873   0.007  0.00  0.00    -0.266 OA
BRANCH  15  21
ATOM     19  C   LIG    1        4.596   0.461  -0.039  0.00  0.00    +0.042 A 
ATOM     20  C   LIG    1        3.666   1.513  -0.025  0.00  0.00    +0.054 A 
ATOM     21  C   LIG    1        2.426   0.940  -0.016  0.00  0.00    +0.189 A 
ATOM     22  O   LIG    1        2.585  -0.400  -0.019  0.00  0.00    -0.458 OA
ATOM     23  C   LIG    1        3.892  -0.692  -0.038  0.00  0.00    +0.196 A 
ENDBRANCH  15  21
ENDBRANCH   1  16
TORSDOF 3
