REMARK  Name = ZINC00033357
REMARK                            x       y       z     vdW  Elec       q    Type
REMARK                         _______ _______ _______ _____ _____    ______ ____
ROOT
ATOM      1  C   LIG    1       -0.017   1.372   0.010  0.00  0.00    +0.001 A 
ATOM      2  C   LIG    1        1.161   2.099   0.002  0.00  0.00    +0.002 A 
ATOM      3  C   LIG    1        2.377   1.432  -0.013  0.00  0.00    +0.029 A 
ATOM      4  C   LIG    1        2.399   0.066  -0.021  0.00  0.00    +0.121 A 
ATOM      5  C   LIG    1        1.225  -0.698  -0.013  0.00  0.00    +0.065 A 
ATOM      6  C   LIG    1        1.491  -2.142  -0.025  0.00  0.00    +0.272 C 
ATOM      7  N   LIG    1        2.769  -2.550  -0.040  0.00  0.00    -0.129 N 
ATOM      8  O   LIG    1        0.579  -2.945  -0.021  0.00  0.00    -0.268 OA
ATOM      9  S   LIG    1        3.687  -1.151  -0.040  0.00  0.00    +0.082 S 
ATOM     10  O   LIG    1        4.367  -1.081   1.205  0.00  0.00    -0.149 OA
ATOM     11  O   LIG    1        4.343  -1.066  -1.298  0.00  0.00    -0.149 OA
ATOM     12  C   LIG    1        0.002  -0.004   0.002  0.00  0.00    +0.015 A 
ENDROOT
BRANCH   7  13
ATOM     13  C   LIG    1        3.236  -3.867  -0.051  0.00  0.00    +0.139 A 
ATOM     14  C   LIG    1        3.480  -4.550   1.140  0.00  0.00    +0.203 A 
ATOM     15  F   LIG    1        3.270  -3.947   2.330  0.00  0.00    -0.199 F 
ATOM     16  C   LIG    1        3.942  -5.854   1.086  0.00  0.00    +0.253 A 
ATOM     17  F   LIG    1        4.182  -6.524   2.234  0.00  0.00    -0.181 F 
ATOM     18  N   LIG    1        4.150  -6.451  -0.075  0.00  0.00    -0.186 NA
ATOM     19  C   LIG    1        3.930  -5.837  -1.224  0.00  0.00    +0.253 A 
ATOM     20  F   LIG    1        4.159  -6.490  -2.384  0.00  0.00    -0.181 F 
ATOM     21  C   LIG    1        3.463  -4.535  -1.255  0.00  0.00    +0.203 A 
ATOM     22  F   LIG    1        3.235  -3.916  -2.434  0.00  0.00    -0.199 F 
ENDBRANCH   7  13
TORSDOF 1
