REMARK  Name = ZINC00004840
REMARK                            x       y       z     vdW  Elec       q    Type
REMARK                         _______ _______ _______ _____ _____    ______ ____
ROOT
ATOM      1  C   LIG    1       -3.130  -2.482  -0.582  0.00  0.00    +0.253 C 
ATOM      2  N   LIG    1       -3.484  -1.324   0.011  0.00  0.00    -0.281 N 
ATOM      3  H   LIG    1       -2.823  -0.805   0.494  0.00  0.00    +0.155 HD
ATOM      4  O   LIG    1       -3.975  -3.174  -1.116  0.00  0.00    -0.270 OA
ENDROOT
BRANCH   1   7
ATOM      5  C   LIG    1       -2.005  -5.103  -1.870  0.00  0.00    +0.090 C 
ATOM      6  C   LIG    1       -1.214  -4.047  -1.141  0.00  0.00    +0.146 A 
ATOM      7  C   LIG    1       -1.720  -2.908  -0.584  0.00  0.00    +0.098 A 
ATOM      8  C   LIG    1       -0.591  -2.191   0.012  0.00  0.00    +0.170 A 
ATOM      9  N   LIG    1        0.475  -2.903  -0.209  0.00  0.00    -0.086 NA
ATOM     10  O   LIG    1        0.103  -4.066  -0.922  0.00  0.00    -0.359 OA
ENDBRANCH   1   7
BRANCH   2  11
ATOM     11  C   LIG    1       -4.805  -0.872  -0.071  0.00  0.00    +0.034 A 
ATOM     12  C   LIG    1       -5.070   0.488  -0.164  0.00  0.00    +0.024 A 
ATOM     13  C   LIG    1       -6.376   0.932  -0.245  0.00  0.00    +0.014 A 
ATOM     14  C   LIG    1       -7.418   0.024  -0.234  0.00  0.00    +0.055 A 
ATOM     15  C   LIG    1       -7.157  -1.331  -0.141  0.00  0.00    +0.014 A 
ATOM     16  C   LIG    1       -5.854  -1.782  -0.065  0.00  0.00    +0.024 A 
BRANCH  14  17
ATOM     17  C   LIG    1       -8.841   0.511  -0.322  0.00  0.00    +0.417 C 
ATOM     18  F   LIG    1       -8.937   1.780   0.259  0.00  0.00    -0.166 F 
ATOM     19  F   LIG    1       -9.682  -0.377   0.357  0.00  0.00    -0.166 F 
ATOM     20  F   LIG    1       -9.227   0.583  -1.665  0.00  0.00    -0.166 F 
ENDBRANCH  14  17
ENDBRANCH   2  11
TORSDOF 3
