REMARK  Name = ZINC00031969
REMARK                            x       y       z     vdW  Elec       q    Type
REMARK                         _______ _______ _______ _____ _____    ______ ____
ROOT
ATOM      1  N   LIG    1       -2.543  -4.062   0.018  0.00  0.00    -0.298 N 
ATOM      2  H   LIG    1       -3.329  -4.515  -0.328  0.00  0.00    +0.154 HD
ENDROOT
BRANCH   1   3
ATOM      3  C   LIG    1       -1.482  -4.800   0.515  0.00  0.00    +0.154 A 
ATOM      4  C   LIG    1       -1.476  -6.203   0.423  0.00  0.00    +0.148 A 
ATOM      5  C   LIG    1       -0.372  -6.897   0.946  0.00  0.00    +0.163 A 
ATOM      6  N   LIG    1        0.619  -6.208   1.505  0.00  0.00    -0.216 NA
ATOM      7  C   LIG    1        0.570  -4.894   1.569  0.00  0.00    +0.225 A 
ATOM      8  N   LIG    1       -0.623  -8.227   0.726  0.00  0.00    -0.329 N 
ATOM      9  C   LIG    1       -1.828  -8.317   0.097  0.00  0.00    +0.198 A 
ATOM     10  H   LIG    1       -0.047  -8.968   0.974  0.00  0.00    +0.168 HD
ATOM     11  N   LIG    1       -2.327  -7.128  -0.080  0.00  0.00    -0.231 NA
ATOM     12  N   LIG    1       -0.444  -4.198   1.087  0.00  0.00    -0.218 NA
ENDBRANCH   1   3
BRANCH   1  17
ATOM     13  C   LIG    1       -1.206  -0.640  -0.167  0.00  0.00    +0.122 A 
ATOM     14  C   LIG    1       -2.367   0.102   0.004  0.00  0.00    +0.046 A 
ATOM     15  C   LIG    1       -3.579  -0.538   0.179  0.00  0.00    +0.005 A 
ATOM     16  C   LIG    1       -3.640  -1.918   0.183  0.00  0.00    +0.023 A 
ATOM     17  C   LIG    1       -2.482  -2.666   0.012  0.00  0.00    +0.036 A 
ATOM     18  C   LIG    1       -1.264  -2.025  -0.169  0.00  0.00    +0.069 A 
BRANCH  13  20
ATOM     19  C   LIG    1       -0.030   1.420  -0.325  0.00  0.00    +0.277 C 
ATOM     20  O   LIG    1       -0.015  -0.009  -0.338  0.00  0.00    -0.495 OA
ENDBRANCH  13  20
ENDBRANCH   1  17
TORSDOF 3
