REMARK  Name = ZINC00005910
REMARK                            x       y       z     vdW  Elec       q    Type
REMARK                         _______ _______ _______ _____ _____    ______ ____
ROOT
ATOM      1  C   LIG    1        3.697  -0.687  -0.037  0.00  0.00    +0.089 A 
ATOM      2  C   LIG    1        4.059  -1.475  -1.158  0.00  0.00    +0.201 A 
ATOM      3  O   LIG    1        3.318  -1.575  -2.122  0.00  0.00    -0.286 OA
ATOM      4  C   LIG    1        5.358  -2.170  -1.123  0.00  0.00    +0.046 A 
ATOM      5  C   LIG    1        5.782  -2.963  -2.190  0.00  0.00    +0.015 A 
ATOM      6  C   LIG    1        6.992  -3.594  -2.128  0.00  0.00    +0.021 A 
ATOM      7  C   LIG    1        7.804  -3.452  -1.010  0.00  0.00    +0.043 A 
ATOM      8 CL   LIG    1        9.338  -4.264  -0.953  0.00  0.00    -0.083 Cl
ATOM      9  C   LIG    1        7.404  -2.673   0.055  0.00  0.00    +0.046 A 
ATOM     10  C   LIG    1        6.175  -2.022   0.011  0.00  0.00    +0.054 A 
ATOM     11  N   LIG    1        5.753  -1.237   1.065  0.00  0.00    -0.325 N 
ATOM     12  H   LIG    1        6.326  -1.143   1.842  0.00  0.00    +0.169 HD
ATOM     13  C   LIG    1        4.562  -0.589   1.039  0.00  0.00    +0.202 A 
ENDROOT
BRANCH   1  17
ATOM     14  C   LIG    1       -0.017   1.379   0.010  0.00  0.00    +0.000 A 
ATOM     15  C   LIG    1        1.169   2.093   0.002  0.00  0.00    +0.001 A 
ATOM     16  C   LIG    1        2.377   1.427  -0.013  0.00  0.00    +0.009 A 
ATOM     17  C   LIG    1        2.403   0.033  -0.021  0.00  0.00    -0.009 A 
ATOM     18  C   LIG    1        1.205  -0.680  -0.013  0.00  0.00    +0.009 A 
ATOM     19  C   LIG    1        0.002  -0.004   0.002  0.00  0.00    +0.001 A 
ENDBRANCH   1  17
BRANCH  13  20
ATOM     20  O   LIG    1        4.206   0.169   2.098  0.00  0.00    -0.493 OA
ATOM     21  H   LIG    1        3.386   0.623   2.095  0.00  0.00    +0.294 HD
ENDBRANCH  13  20
TORSDOF 2
