REMARK  Name = ZINC00040831
REMARK                            x       y       z     vdW  Elec       q    Type
REMARK                         _______ _______ _______ _____ _____    ______ ____
ROOT
ATOM      1  C   LIG    1       -3.671  -0.978   0.333  0.00  0.00    +0.066 A 
ATOM      2  C   LIG    1       -4.864  -0.256   0.318  0.00  0.00    +0.068 A 
ATOM      3  N   LIG    1       -4.870   1.029   0.031  0.00  0.00    -0.229 NA
ATOM      4  C   LIG    1       -3.720   1.646  -0.250  0.00  0.00    +0.185 A 
ATOM      5  C   LIG    1       -2.511   0.907  -0.234  0.00  0.00    +0.148 A 
ATOM      6  C   LIG    1       -1.270   1.619  -0.547  0.00  0.00    +0.149 A 
ATOM      7  N   LIG    1       -1.355   2.913  -0.820  0.00  0.00    -0.198 NA
ATOM      8  C   LIG    1       -2.525   3.543  -0.822  0.00  0.00    +0.216 A 
ATOM      9  N   LIG    1       -3.670   2.951  -0.548  0.00  0.00    -0.193 NA
ATOM     10  N   LIG    1       -2.527  -0.389   0.059  0.00  0.00    -0.243 NA
ENDROOT
BRANCH   1  12
ATOM     11  C   LIG    1       -2.939  -3.227  -0.414  0.00  0.00    +0.014 C 
ATOM     12  C   LIG    1       -3.694  -2.448   0.665  0.00  0.00    +0.033 C 
ATOM     13  C   LIG    1       -3.022  -2.675   2.021  0.00  0.00    +0.014 C 
ENDBRANCH   1  12
BRANCH   2  14
ATOM     14  C   LIG    1       -6.162  -0.954   0.635  0.00  0.00    +0.033 C 
ATOM     15  C   LIG    1       -6.897  -1.279  -0.666  0.00  0.00    +0.014 C 
ATOM     16  C   LIG    1       -7.034  -0.041   1.500  0.00  0.00    +0.014 C 
ENDBRANCH   2  14
BRANCH   6  17
ATOM     17  N   LIG    1       -0.057   0.967  -0.551  0.00  0.00    -0.341 N 
ATOM     18  H   LIG    1        0.754   1.454  -0.765  0.00  0.00    +0.144 HD
ATOM     19  H   LIG    1       -0.014   0.020  -0.345  0.00  0.00    +0.144 HD
ENDBRANCH   6  17
BRANCH   8  20
ATOM     20  N   LIG    1       -2.542   4.892  -1.121  0.00  0.00    -0.327 N 
ATOM     21  H   LIG    1       -1.714   5.354  -1.327  0.00  0.00    +0.145 HD
ATOM     22  H   LIG    1       -3.382   5.378  -1.126  0.00  0.00    +0.145 HD
ENDBRANCH   8  20
TORSDOF 4
