REMARK  Name = ZINC00002101
REMARK                            x       y       z     vdW  Elec       q    Type
REMARK                         _______ _______ _______ _____ _____    ______ ____
ROOT
ATOM      1  C   LIG    1       -0.017   1.385   0.010  0.00  0.00    +0.024 A 
ATOM      2  C   LIG    1        1.171   2.090   0.002  0.00  0.00    +0.030 A 
ATOM      3  C   LIG    1        2.377   1.415  -0.013  0.00  0.00    +0.105 A 
ATOM      4  C   LIG    1        2.400   0.032  -0.021  0.00  0.00    +0.030 A 
ATOM      5  C   LIG    1        1.216  -0.679  -0.014  0.00  0.00    +0.024 A 
ATOM      6  C   LIG    1        0.002  -0.004   0.002  0.00  0.00    +0.025 A 
ENDROOT
BRANCH   3   7
ATOM      7  S   LIG    1        3.890   2.319  -0.024  0.00  0.00    +0.056 S 
ATOM      8  O   LIG    1        3.595   3.599  -0.566  0.00  0.00    -0.153 OA
ATOM      9  O   LIG    1        4.872   1.461  -0.589  0.00  0.00    -0.153 OA
BRANCH   7  10
ATOM     10  N   LIG    1        4.326   2.562   1.555  0.00  0.00    -0.204 NA
ATOM     11  H   LIG    1        5.141   3.046   1.764  0.00  0.00    +0.144 HD
ATOM     12  H   LIG    1        3.768   2.220   2.270  0.00  0.00    +0.144 HD
ENDBRANCH   7  10
ENDBRANCH   3   7
BRANCH   6  13
ATOM     13  N   LIG    1       -1.197  -0.720   0.010  0.00  0.00    -0.358 N 
ATOM     14  H   LIG    1       -1.183  -1.690   0.005  0.00  0.00    +0.142 HD
ATOM     15  H   LIG    1       -2.044  -0.248   0.021  0.00  0.00    +0.142 HD
ENDBRANCH   6  13
TORSDOF 3
