REMARK  Name = ZINC00005986
REMARK                            x       y       z     vdW  Elec       q    Type
REMARK                         _______ _______ _______ _____ _____    ______ ____
ROOT
ATOM      1  C   LIG    1        1.771   2.021  -0.108  0.00  0.00    +0.062 A 
ATOM      2  C   LIG    1        2.264   0.742  -0.157  0.00  0.00    +0.025 A 
ATOM      3  C   LIG    1        1.374  -0.309  -0.173  0.00  0.00    +0.013 A 
ATOM      4  C   LIG    1        0.041  -0.048  -0.139  0.00  0.00    -0.005 A 
ATOM      5  S   LIG    1        0.009   1.736  -0.083  0.00  0.00    -0.084 S 
ENDROOT
BRANCH   1   7
ATOM      6  C   LIG    1        3.070   4.280  -0.063  0.00  0.00    -0.072 C 
ATOM      7  C   LIG    1        2.485   3.262  -0.083  0.00  0.00    -0.057 C 
BRANCH   6   9
ATOM      8  C   LIG    1        5.308   5.280  -0.075  0.00  0.00    +0.045 C 
ATOM      9  C   LIG    1        3.803   5.556  -0.037  0.00  0.00    +0.178 C 
BRANCH   9  10
ATOM     10  N   LIG    1        3.425   6.360  -1.202  0.00  0.00    -0.153 N 
ATOM     11  C   LIG    1        3.638   5.887  -2.445  0.00  0.00    +0.324 C 
ATOM     12  N   LIG    1        3.202   6.582  -3.515  0.00  0.00    -0.312 N 
ATOM     13  H   LIG    1        3.290   6.207  -4.405  0.00  0.00    +0.147 HD
ATOM     14  H   LIG    1        2.800   7.456  -3.394  0.00  0.00    +0.147 HD
ATOM     15  O   LIG    1        4.224   4.833  -2.603  0.00  0.00    -0.251 OA
BRANCH  10  16
ATOM     16  O   LIG    1        2.835   7.635  -1.020  0.00  0.00    -0.290 OA
ATOM     17  H   LIG    1        2.550   8.056  -1.843  0.00  0.00    +0.242 HD
ENDBRANCH  10  16
ENDBRANCH   9  10
ENDBRANCH   6   9
ENDBRANCH   1   7
BRANCH   4  18
ATOM     18  C   LIG    1       -1.114  -1.017  -0.147  0.00  0.00    +0.077 C 
BRANCH  18  19
ATOM     19  C   LIG    1       -1.472  -1.384   1.270  0.00  0.00    -0.042 A 
ATOM     20  C   LIG    1       -0.871  -2.473   1.874  0.00  0.00    +0.007 A 
ATOM     21  C   LIG    1       -1.194  -2.808   3.175  0.00  0.00    +0.038 A 
ATOM     22  C   LIG    1       -2.128  -2.059   3.870  0.00  0.00    +0.123 A 
ATOM     23  F   LIG    1       -2.449  -2.388   5.140  0.00  0.00    -0.205 F 
ATOM     24  C   LIG    1       -2.734  -0.972   3.262  0.00  0.00    +0.038 A 
ATOM     25  C   LIG    1       -2.405  -0.636   1.963  0.00  0.00    +0.007 A 
ENDBRANCH  18  19
ENDBRANCH   4  18
TORSDOF 6
