REMARK  Name = ZINC00024727
REMARK                            x       y       z     vdW  Elec       q    Type
REMARK                         _______ _______ _______ _____ _____    ______ ____
ROOT
ATOM      1  N   LIG    1        4.101   0.606   1.347  0.00  0.00    -0.320 N 
ATOM      2  C   LIG    1        4.497   1.696   2.088  0.00  0.00    +0.106 A 
ATOM      3  C   LIG    1        4.884   1.233   3.289  0.00  0.00    +0.102 A 
ATOM      4  N   LIG    1        4.734  -0.102   3.295  0.00  0.00    -0.341 N 
ATOM      5  H   LIG    1        4.956  -0.720   4.084  0.00  0.00    +0.167 HD
ATOM      6  C   LIG    1        4.258  -0.491   2.136  0.00  0.00    +0.144 A 
ENDROOT
BRANCH   6   7
ATOM      7  S   LIG    1        3.890  -2.152   1.678  0.00  0.00    -0.107 S 
ATOM      8  H   LIG    1        5.135  -2.539   1.139  0.00  0.00    +0.110 HD
ENDBRANCH   6   7
BRANCH   1   9
ATOM      9  C   LIG    1        3.599   0.625  -0.030  0.00  0.00    +0.197 C 
BRANCH   9  12
ATOM     10  C   LIG    1       -0.016   1.341   0.009  0.00  0.00    +0.041 A 
ATOM     11  C   LIG    1        1.331   1.769  -0.001  0.00  0.00    +0.046 A 
ATOM     12  C   LIG    1        2.092   0.660  -0.014  0.00  0.00    +0.124 A 
ATOM     13  O   LIG    1        1.282  -0.411  -0.012  0.00  0.00    -0.466 OA
ATOM     14  C   LIG    1        0.002  -0.004   0.002  0.00  0.00    +0.195 A 
ENDBRANCH   9  12
ENDBRANCH   1   9
TORSDOF 3
