REMARK  Name = ZINC00053303
REMARK                            x       y       z     vdW  Elec       q    Type
REMARK                         _______ _______ _______ _____ _____    ______ ____
ROOT
ATOM      1  C   LIG    1        1.297  -0.596   3.396  0.00  0.00    +0.001 A 
ATOM      2  C   LIG    1        2.466   0.148   3.340  0.00  0.00    +0.004 A 
ATOM      3  C   LIG    1        3.245   0.147   2.202  0.00  0.00    +0.047 A 
ATOM      4  C   LIG    1        2.861  -0.604   1.099  0.00  0.00    +0.141 A 
ATOM      5  C   LIG    1        1.678  -1.357   1.155  0.00  0.00    +0.039 A 
ATOM      6  C   LIG    1        1.282  -2.149  -0.022  0.00  0.00    +0.047 A 
ATOM      7  C   LIG    1        2.096  -2.111  -1.125  0.00  0.00    +0.115 A 
ATOM      8  C   LIG    1        3.261  -1.334  -1.102  0.00  0.00    +0.339 A 
ATOM      9  O   LIG    1        3.975  -1.309  -2.089  0.00  0.00    -0.245 OA
ATOM     10  O   LIG    1        3.612  -0.615  -0.024  0.00  0.00    -0.422 OA
ATOM     11  C   LIG    1        0.898  -1.348   2.313  0.00  0.00    +0.013 A 
ENDROOT
BRANCH   6  12
ATOM     12  N   LIG    1        0.130  -2.904  -0.015  0.00  0.00    -0.329 N 
ATOM     13  C   LIG    1       -1.185  -2.262   0.106  0.00  0.00    +0.105 C 
ATOM     14  C   LIG    1       -2.071  -2.731  -1.052  0.00  0.00    +0.019 C 
ATOM     15  C   LIG    1       -2.118  -4.260  -1.067  0.00  0.00    +0.003 C 
ATOM     16  C   LIG    1       -0.707  -4.813  -1.283  0.00  0.00    +0.019 C 
ATOM     17  C   LIG    1        0.194  -4.367  -0.133  0.00  0.00    +0.105 C 
ENDBRANCH   6  12
TORSDOF 1
