REMARK  Name = ZINC00011012
REMARK                            x       y       z     vdW  Elec       q    Type
REMARK                         _______ _______ _______ _____ _____    ______ ____
ROOT
ATOM      1  C   LIG    1        3.723  -2.145   0.065  0.00  0.00    +0.090 A 
ATOM      2  C   LIG    1        2.626  -2.982   0.079  0.00  0.00    +0.031 A 
ATOM      3  C   LIG    1        3.106  -4.287   0.190  0.00  0.00    +0.024 A 
ATOM      4  C   LIG    1        4.464  -4.231   0.243  0.00  0.00    +0.033 A 
ATOM      5  C   LIG    1        5.679  -5.129   0.361  0.00  0.00    +0.146 C 
ATOM      6  C   LIG    1        6.824  -4.174   0.753  0.00  0.00    +0.042 C 
ATOM      7  C   LIG    1        6.321  -2.825   0.199  0.00  0.00    +0.123 C 
ATOM      8  N   LIG    1        4.853  -2.936   0.160  0.00  0.00    -0.340 N 
ENDROOT
BRANCH   1   9
ATOM      9  C   LIG    1        3.696  -0.685  -0.037  0.00  0.00    +0.209 C 
ATOM     10  O   LIG    1        4.736  -0.064  -0.163  0.00  0.00    -0.285 OA
BRANCH   9  14
ATOM     11  C   LIG    1       -0.011   1.386   0.104  0.00  0.00    +0.000 A 
ATOM     12  C   LIG    1        1.057   1.932  -0.586  0.00  0.00    +0.001 A 
ATOM     13  C   LIG    1        2.264   1.265  -0.635  0.00  0.00    +0.012 A 
ATOM     14  C   LIG    1        2.406   0.036   0.012  0.00  0.00    +0.024 A 
ATOM     15  C   LIG    1        1.324  -0.509   0.707  0.00  0.00    +0.012 A 
ATOM     16  C   LIG    1        0.123   0.169   0.749  0.00  0.00    +0.001 A 
ENDBRANCH   9  14
ENDBRANCH   1   9
BRANCH   5  17
ATOM     17  C   LIG    1        5.985  -5.778  -0.965  0.00  0.00    +0.314 C 
ATOM     18  O   LIG    1        7.134  -6.066  -1.252  0.00  0.00    -0.250 OA
BRANCH  17  19
ATOM     19  O   LIG    1        5.082  -6.015  -1.750  0.00  0.00    -0.480 OA
ATOM     20  H   LIG    1        4.199  -5.794  -1.529  0.00  0.00    +0.295 HD
ENDBRANCH  17  19
ENDBRANCH   5  17
TORSDOF 4
