REMARK  Name = ZINC00002675
REMARK                            x       y       z     vdW  Elec       q    Type
REMARK                         _______ _______ _______ _____ _____    ______ ____
ROOT
ATOM      1  C   LIG    1       -0.018   1.503   0.010  0.00  0.00    +0.067 C 
ATOM      2  C   LIG    1        0.002  -0.004   0.002  0.00  0.00    +0.061 A 
ATOM      3  C   LIG    1        0.008  -0.787  -1.100  0.00  0.00    +0.060 A 
ATOM      4  N   LIG    1        0.027  -2.086  -0.672  0.00  0.00    -0.299 N 
ATOM      5  C   LIG    1        0.040  -3.278  -1.340  0.00  0.00    +0.093 A 
ATOM      6  C   LIG    1        0.059  -4.446  -0.665  0.00  0.00    +0.022 A 
ATOM      7  C   LIG    1        0.065  -4.453   0.740  0.00  0.00    +0.051 A 
ATOM      8  C   LIG    1        0.052  -3.271   1.421  0.00  0.00    +0.164 A 
ATOM      9  C   LIG    1        0.033  -2.057   0.697  0.00  0.00    +0.181 A 
ATOM     10  N   LIG    1        0.024  -0.789   1.081  0.00  0.00    -0.229 NA
ENDROOT
BRANCH   3  11
ATOM     11  C   LIG    1       -0.005  -0.316  -2.531  0.00  0.00    +0.174 C 
BRANCH  11  12
ATOM     12  C   LIG    1       -1.397  -0.181  -2.991  0.00  0.00    +0.069 C 
ATOM     13  N   LIG    1       -2.471  -0.077  -3.346  0.00  0.00    -0.196 NA
ENDBRANCH  11  12
ENDBRANCH   3  11
BRANCH   8  14
ATOM     14  O   LIG    1        0.058  -3.261   2.780  0.00  0.00    -0.484 OA
BRANCH  14  15
ATOM     15  C   LIG    1        0.078  -4.529   3.438  0.00  0.00    +0.264 C 
BRANCH  15  16
ATOM     16  C   LIG    1        0.082  -4.321   4.931  0.00  0.00    -0.010 A 
ATOM     17  C   LIG    1        1.281  -4.203   5.609  0.00  0.00    +0.007 A 
ATOM     18  C   LIG    1        1.285  -4.012   6.978  0.00  0.00    +0.000 A 
ATOM     19  C   LIG    1        0.089  -3.937   7.669  0.00  0.00    +0.000 A 
ATOM     20  C   LIG    1       -1.109  -4.053   6.990  0.00  0.00    +0.000 A 
ATOM     21  C   LIG    1       -1.113  -4.241   5.621  0.00  0.00    +0.007 A 
ENDBRANCH  15  16
ENDBRANCH  14  15
ENDBRANCH   8  14
TORSDOF 5
