REMARK  Name = ZINC00006923
REMARK                            x       y       z     vdW  Elec       q    Type
REMARK                         _______ _______ _______ _____ _____    ______ ____
ROOT
ATOM      1  C   LIG    1        2.566  -2.141   4.505  0.00  0.00    +0.230 C 
ENDROOT
BRANCH   1   2
ATOM      2  C   LIG    1        1.465  -2.394   5.537  0.00  0.00    +0.146 C 
ATOM      3  C   LIG    1        0.344  -3.216   4.896  0.00  0.00    -0.046 C 
ATOM      4  N   LIG    1       -0.738  -3.409   5.872  0.00  0.00    +0.382 N 
ATOM      5  H   LIG    1       -0.380  -3.897   6.679  0.00  0.00    -0.086 HD
ATOM      6  H   LIG    1       -1.478  -3.951   5.451  0.00  0.00    -0.086 HD
ATOM      7  C   LIG    1       -1.263  -2.100   6.283  0.00  0.00    -0.054 C 
ATOM      8  C   LIG    1       -0.139  -1.279   6.921  0.00  0.00    +0.141 C 
ATOM      9  O   LIG    1        0.936  -1.144   5.987  0.00  0.00    -0.376 OA
ENDBRANCH   1   2
BRANCH   1  10
ATOM     10  C   LIG    1        3.609  -1.228   5.097  0.00  0.00    -0.005 A 
ATOM     11  C   LIG    1        3.385   0.135   5.150  0.00  0.00    +0.007 A 
ATOM     12  C   LIG    1        4.341   0.973   5.693  0.00  0.00    +0.000 A 
ATOM     13  C   LIG    1        5.521   0.447   6.184  0.00  0.00    +0.000 A 
ATOM     14  C   LIG    1        5.745  -0.916   6.133  0.00  0.00    +0.000 A 
ATOM     15  C   LIG    1        4.787  -1.754   5.593  0.00  0.00    +0.007 A 
ENDBRANCH   1  10
BRANCH   1  16
ATOM     16  O   LIG    1        2.000  -1.528   3.345  0.00  0.00    -0.478 OA
BRANCH  16  22
ATOM     17  C   LIG    1        1.072  -1.826   1.170  0.00  0.00    +0.162 A 
ATOM     18  C   LIG    1        0.746  -2.665   0.116  0.00  0.00    +0.049 A 
ATOM     19  C   LIG    1        1.014  -4.019   0.202  0.00  0.00    +0.004 A 
ATOM     20  C   LIG    1        1.607  -4.538   1.338  0.00  0.00    +0.004 A 
ATOM     21  C   LIG    1        1.934  -3.707   2.393  0.00  0.00    +0.049 A 
ATOM     22  C   LIG    1        1.674  -2.348   2.311  0.00  0.00    +0.163 A 
BRANCH  17  23
ATOM     23  O   LIG    1        0.810  -0.494   1.086  0.00  0.00    -0.489 OA
BRANCH  23  25
ATOM     24  C   LIG    1       -0.024   1.483  -0.025  0.00  0.00    +0.048 C 
ATOM     25  C   LIG    1        0.191  -0.029  -0.115  0.00  0.00    +0.226 C 
ENDBRANCH  23  25
ENDBRANCH  17  23
ENDBRANCH  16  22
ENDBRANCH   1  16
TORSDOF 6
