REMARK  Name = ZINC00038887
REMARK                            x       y       z     vdW  Elec       q    Type
REMARK                         _______ _______ _______ _____ _____    ______ ____
ROOT
ATOM      1  C   LIG    1        4.249  -0.443   0.492  0.00  0.00    +0.255 C 
ATOM      2  N   LIG    1        4.196  -1.786   0.386  0.00  0.00    -0.282 N 
ATOM      3  H   LIG    1        3.361  -2.253   0.544  0.00  0.00    +0.155 HD
ATOM      4  O   LIG    1        5.311   0.132   0.387  0.00  0.00    -0.272 OA
ENDROOT
BRANCH   2   5
ATOM      5  C   LIG    1        5.347  -2.506   0.048  0.00  0.00    +0.039 A 
ATOM      6  C   LIG    1        6.412  -1.865  -0.572  0.00  0.00    +0.024 A 
ATOM      7  C   LIG    1        7.547  -2.579  -0.904  0.00  0.00    +0.004 A 
ATOM      8  C   LIG    1        7.623  -3.930  -0.620  0.00  0.00    +0.033 A 
ATOM      9  C   LIG    1        6.565  -4.571  -0.003  0.00  0.00    +0.126 A 
ATOM     10  C   LIG    1        5.429  -3.862   0.337  0.00  0.00    +0.001 A 
ATOM     11  C   LIG    1        4.279  -4.560   1.015  0.00  0.00    +0.048 C 
BRANCH   9  12
ATOM     12  N   LIG    1        6.651  -6.018   0.299  0.00  0.00    +0.006 N 
ATOM     13  O   LIG    1        7.700  -6.614   0.131  0.00  0.00    -0.130 OA
BRANCH  12  14
ATOM     14  O   LIG    1        5.673  -6.612   0.716  0.00  0.00    -0.396 OA
ATOM     15  H   LIG    1        4.866  -6.154   0.845  0.00  0.00    +0.329 HD
ENDBRANCH  12  14
ENDBRANCH   9  12
ENDBRANCH   2   5
BRANCH   1  16
ATOM     16  C   LIG    1        2.987   0.342   0.743  0.00  0.00    +0.324 C 
BRANCH  16  17
ATOM     17  O   LIG    1        3.300   1.735   0.815  0.00  0.00    -0.483 OA
BRANCH  17  25
ATOM     18  C   LIG    1        3.897   4.491   0.963  0.00  0.00    +0.047 C 
ATOM     19  C   LIG    1        2.498   3.954   1.120  0.00  0.00    -0.007 A 
ATOM     20  C   LIG    1        1.446   4.820   1.346  0.00  0.00    +0.027 A 
ATOM     21  C   LIG    1        0.161   4.327   1.490  0.00  0.00    +0.041 A 
ATOM     22 CL   LIG    1       -1.159   5.417   1.774  0.00  0.00    -0.084 Cl
ATOM     23  C   LIG    1       -0.073   2.965   1.404  0.00  0.00    +0.023 A 
ATOM     24  C   LIG    1        0.977   2.096   1.183  0.00  0.00    +0.047 A 
ATOM     25  C   LIG    1        2.266   2.588   1.038  0.00  0.00    +0.124 A 
ENDBRANCH  17  25
ENDBRANCH  16  17
ENDBRANCH   1  16
TORSDOF 6
