REMARK  Name = ZINC00001963
REMARK                            x       y       z     vdW  Elec       q    Type
REMARK                         _______ _______ _______ _____ _____    ______ ____
ROOT
ATOM      1  C   LIG    1       -0.033  -4.181   2.384  0.00  0.00    +0.129 A 
ATOM      2  C   LIG    1       -0.123  -4.891   3.582  0.00  0.00    +0.084 A 
ATOM      3  C   LIG    1       -0.208  -6.271   3.527  0.00  0.00    +0.135 A 
ATOM      4 CL   LIG    1       -0.321  -7.202   4.987  0.00  0.00    -0.062 Cl
ATOM      5  N   LIG    1       -0.201  -6.874   2.346  0.00  0.00    -0.210 NA
ATOM      6  C   LIG    1       -0.114  -6.173   1.224  0.00  0.00    +0.192 A 
ATOM      7  N   LIG    1       -0.037  -4.850   1.235  0.00  0.00    -0.207 NA
ENDROOT
BRANCH   1   8
ATOM      8  N   LIG    1        0.052  -2.797   2.391  0.00  0.00    -0.299 N 
ATOM      9  H   LIG    1        0.142  -2.321   3.232  0.00  0.00    +0.154 HD
BRANCH   8  15
ATOM     10  C   LIG    1        1.163   1.242  -0.182  0.00  0.00    +0.044 C 
ATOM     11  C   LIG    1        0.540  -0.127  -0.088  0.00  0.00    -0.046 A 
ATOM     12  C   LIG    1       -0.076  -0.683  -1.195  0.00  0.00    +0.004 A 
ATOM     13  C   LIG    1       -0.649  -1.939  -1.114  0.00  0.00    +0.002 A 
ATOM     14  C   LIG    1       -0.608  -2.643   0.074  0.00  0.00    +0.023 A 
ATOM     15  C   LIG    1        0.009  -2.087   1.188  0.00  0.00    +0.036 A 
ATOM     16  C   LIG    1        0.589  -0.828   1.101  0.00  0.00    -0.026 A 
ATOM     17  C   LIG    1        1.264  -0.224   2.305  0.00  0.00    +0.046 C 
ENDBRANCH   8  15
ENDBRANCH   1   8
BRANCH   6  18
ATOM     18  S   LIG    1       -0.108  -7.021  -0.320  0.00  0.00    -0.075 S 
BRANCH  18  19
ATOM     19  C   LIG    1       -0.234  -8.771   0.140  0.00  0.00    +0.197 C 
BRANCH  19  20
ATOM     20  C   LIG    1       -0.240  -9.619  -1.106  0.00  0.00    +0.315 C 
ATOM     21  O   LIG    1       -0.165  -9.091  -2.203  0.00  0.00    -0.250 OA
BRANCH  20  22
ATOM     22  O   LIG    1       -0.319 -10.832  -1.018  0.00  0.00    -0.480 OA
ATOM     23  H   LIG    1       -0.376 -11.238  -0.175  0.00  0.00    +0.295 HD
ENDBRANCH  20  22
ENDBRANCH  19  20
ENDBRANCH  18  19
ENDBRANCH   6  18
TORSDOF 6
