REMARK  Name = ZINC00001261
REMARK                            x       y       z     vdW  Elec       q    Type
REMARK                         _______ _______ _______ _____ _____    ______ ____
ROOT
ATOM      1  C   LIG    1       -0.211   0.976   0.561  0.00  0.00    +0.020 A 
ATOM      2  C   LIG    1        0.887   1.791   0.369  0.00  0.00    +0.007 A 
ATOM      3  C   LIG    1        2.153   1.223   0.173  0.00  0.00    -0.021 A 
ATOM      4  C   LIG    1        2.246  -0.155   0.192  0.00  0.00    +0.075 A 
ATOM      5  C   LIG    1        3.524  -0.888   0.055  0.00  0.00    +0.007 C 
ATOM      6  C   LIG    1        4.748  -0.446   0.759  0.00  0.00    -0.013 A 
ATOM      7  C   LIG    1        5.371  -1.251   1.708  0.00  0.00    +0.010 A 
ATOM      8  C   LIG    1        6.518  -0.792   2.328  0.00  0.00    +0.020 A 
ATOM      9  C   LIG    1        7.031   0.452   2.000  0.00  0.00    +0.041 A 
ATOM     10 CL   LIG    1        8.475   1.019   2.778  0.00  0.00    -0.084 Cl
ATOM     11  C   LIG    1        6.402   1.248   1.057  0.00  0.00    +0.024 A 
ATOM     12  C   LIG    1        5.249   0.792   0.437  0.00  0.00    -0.038 A 
ATOM     13  C   LIG    1        4.546   1.653  -0.566  0.00  0.00    +0.040 C 
ATOM     14  C   LIG    1        3.573  -1.977  -0.723  0.00  0.00    -0.063 C 
ATOM     15  C   LIG    1        2.388  -2.389  -1.571  0.00  0.00    +0.012 C 
ATOM     16  C   LIG    1        2.892  -2.676  -2.990  0.00  0.00    -0.078 C 
ATOM     17  N   LIG    1        3.975  -3.665  -2.934  0.00  0.00    +0.379 N 
ATOM     18  H   LIG    1        4.228  -3.938  -3.872  0.00  0.00    -0.086 HD
ATOM     19  H   LIG    1        3.660  -4.477  -2.426  0.00  0.00    -0.086 HD
ATOM     20  C   LIG    1        5.148  -3.095  -2.261  0.00  0.00    -0.078 C 
ATOM     21  C   LIG    1        4.819  -2.836  -0.791  0.00  0.00    +0.012 C 
ATOM     22  N   LIG    1        1.154  -0.909   0.366  0.00  0.00    -0.255 NA
ATOM     23  C   LIG    1        3.253   2.225  -0.049  0.00  0.00    +0.042 C 
ATOM     24  C   LIG    1       -0.040  -0.397   0.548  0.00  0.00    +0.111 A 
ENDROOT
TORSDOF 0
