REMARK  Name = ZINC00005560
REMARK                            x       y       z     vdW  Elec       q    Type
REMARK                         _______ _______ _______ _____ _____    ______ ____
ROOT
ATOM      1  C   LIG    1        0.651  -0.132  -1.504  0.00  0.00    -0.033 A 
ATOM      2  C   LIG    1        2.034  -0.077  -1.524  0.00  0.00    +0.004 A 
ATOM      3  C   LIG    1        2.750  -0.834  -2.435  0.00  0.00    +0.001 A 
ATOM      4  C   LIG    1        2.089  -1.649  -3.330  0.00  0.00    +0.012 A 
ATOM      5  C   LIG    1        0.694  -1.710  -3.315  0.00  0.00    +0.023 A 
ATOM      6  C   LIG    1       -0.022  -0.947  -2.390  0.00  0.00    +0.016 A 
ENDROOT
BRANCH   1   8
ATOM      7  C   LIG    1        0.184   2.178  -0.735  0.00  0.00    +0.024 C 
ATOM      8  C   LIG    1       -0.120   0.696  -0.509  0.00  0.00    +0.124 C 
BRANCH   8   9
ATOM      9  C   LIG    1        0.287   0.307   0.889  0.00  0.00    +0.312 C 
ATOM     10  O   LIG    1       -0.223   0.862   1.848  0.00  0.00    -0.250 OA
BRANCH   9  11
ATOM     11  O   LIG    1        1.125  -0.561   1.062  0.00  0.00    -0.480 OA
ATOM     12  H   LIG    1        1.516  -0.988   0.324  0.00  0.00    +0.295 HD
ENDBRANCH   9  11
ENDBRANCH   8   9
ENDBRANCH   1   8
BRANCH   5  13
ATOM     13  C   LIG    1       -0.021  -2.581  -4.271  0.00  0.00    +0.193 C 
ATOM     14  O   LIG    1        0.603  -3.349  -4.978  0.00  0.00    -0.287 OA
BRANCH  13  15
ATOM     15  C   LIG    1       -1.494  -2.520  -4.367  0.00  0.00    +0.022 A 
ATOM     16  C   LIG    1       -2.159  -1.307  -4.175  0.00  0.00    +0.012 A 
ATOM     17  C   LIG    1       -3.535  -1.256  -4.267  0.00  0.00    +0.001 A 
ATOM     18  C   LIG    1       -4.255  -2.404  -4.548  0.00  0.00    +0.000 A 
ATOM     19  C   LIG    1       -3.602  -3.609  -4.739  0.00  0.00    +0.001 A 
ATOM     20  C   LIG    1       -2.227  -3.673  -4.656  0.00  0.00    +0.012 A 
ENDBRANCH  13  15
ENDBRANCH   5  13
TORSDOF 5
