REMARK  Name = ZINC00001407
REMARK                            x       y       z     vdW  Elec       q    Type
REMARK                         _______ _______ _______ _____ _____    ______ ____
ROOT
ATOM      1  C   LIG    1       -1.213   4.484  -1.724  0.00  0.00    +0.124 A 
ATOM      2  C   LIG    1       -1.694   3.933  -2.904  0.00  0.00    +0.046 A 
ATOM      3  C   LIG    1       -2.307   4.741  -3.841  0.00  0.00    +0.004 A 
ATOM      4  C   LIG    1       -2.442   6.097  -3.605  0.00  0.00    +0.001 A 
ATOM      5  C   LIG    1       -1.965   6.647  -2.431  0.00  0.00    +0.007 A 
ATOM      6  C   LIG    1       -1.355   5.843  -1.487  0.00  0.00    -0.001 A 
ENDROOT
BRANCH   1   7
ATOM      7  O   LIG    1       -0.610   3.691  -0.800  0.00  0.00    -0.494 OA
BRANCH   7   8
ATOM      8  C   LIG    1       -0.504   2.300  -1.108  0.00  0.00    +0.210 C 
BRANCH   8   9
ATOM      9  C   LIG    1        0.199   1.575   0.042  0.00  0.00    -0.037 C 
BRANCH   9  10
ATOM     10  N   LIG    1       -0.644   1.671   1.252  0.00  0.00    +0.382 N 
ATOM     11  H   LIG    1       -0.892   2.655   1.409  0.00  0.00    -0.082 HD
BRANCH  10  13
ATOM     12  C   LIG    1       -1.555  -0.583   0.797  0.00  0.00    -0.017 C 
ATOM     13  C   LIG    1       -1.884   0.887   1.067  0.00  0.00    -0.082 C 
ENDBRANCH  10  13
BRANCH  10  14
ATOM     14  C   LIG    1        0.100   1.170   2.427  0.00  0.00    -0.082 C 
ATOM     15  C   LIG    1       -0.631   1.611   3.696  0.00  0.00    -0.017 C 
ENDBRANCH  10  14
ENDBRANCH   9  10
ENDBRANCH   8   9
ENDBRANCH   7   8
ENDBRANCH   1   7
BRANCH   6  16
ATOM     16  C   LIG    1       -0.839   6.443  -0.205  0.00  0.00    +0.074 C 
BRANCH  16  17
ATOM     17  C   LIG    1        0.624   6.769  -0.355  0.00  0.00    -0.043 A 
ATOM     18  C   LIG    1        1.580   5.827  -0.022  0.00  0.00    +0.004 A 
ATOM     19  C   LIG    1        2.922   6.124  -0.164  0.00  0.00    +0.000 A 
ATOM     20  C   LIG    1        3.309   7.366  -0.631  0.00  0.00    +0.000 A 
ATOM     21  C   LIG    1        2.354   8.310  -0.959  0.00  0.00    +0.000 A 
ATOM     22  C   LIG    1        1.012   8.011  -0.821  0.00  0.00    +0.004 A 
ENDBRANCH  16  17
ENDBRANCH   6  16
TORSDOF 8
