REMARK  Name = ZINC00004448
REMARK                            x       y       z     vdW  Elec       q    Type
REMARK                         _______ _______ _______ _____ _____    ______ ____
ROOT
ATOM      1  C   LIG    1       -1.657  -0.237   2.866  0.00  0.00    +0.080 C 
ATOM      2  C   LIG    1       -1.770   0.246   4.311  0.00  0.00    +0.019 C 
ATOM      3  C   LIG    1       -3.242   0.329   4.735  0.00  0.00    +0.055 C 
ATOM      4  C   LIG    1       -3.962   1.225   3.756  0.00  0.00    +0.030 A 
ATOM      5  C   LIG    1       -3.522   1.387   2.446  0.00  0.00    +0.046 A 
ATOM      6  C   LIG    1       -4.444   2.315   1.813  0.00  0.00    +0.011 A 
ATOM      7  C   LIG    1       -4.519   2.857   0.531  0.00  0.00    +0.011 A 
ATOM      8  C   LIG    1       -5.563   3.730   0.280  0.00  0.00    +0.001 A 
ATOM      9  C   LIG    1       -6.493   4.056   1.252  0.00  0.00    +0.002 A 
ATOM     10  C   LIG    1       -6.437   3.530   2.531  0.00  0.00    +0.026 A 
ATOM     11  C   LIG    1       -5.396   2.647   2.810  0.00  0.00    +0.050 A 
ATOM     12  N   LIG    1       -5.064   1.967   3.953  0.00  0.00    -0.346 N 
ATOM     13  C   LIG    1       -5.808   2.039   5.213  0.00  0.00    +0.149 C 
ATOM     14  C   LIG    1       -2.380   0.719   1.943  0.00  0.00    +0.170 C 
ATOM     15  O   LIG    1       -1.996   0.905   0.807  0.00  0.00    -0.292 OA
ENDROOT
BRANCH   1  16
ATOM     16  C   LIG    1       -0.181  -0.308   2.468  0.00  0.00    +0.134 C 
BRANCH  16  23
ATOM     17  C   LIG    1       -0.439  -3.338   1.872  0.00  0.00    +0.084 C 
ATOM     18  C   LIG    1       -0.170  -2.247   0.868  0.00  0.00    +0.084 A 
ATOM     19  N   LIG    1       -0.009  -2.417  -0.415  0.00  0.00    -0.350 N 
ATOM     20  H   LIG    1       -0.044  -3.269  -0.877  0.00  0.00    +0.166 HD
ATOM     21  C   LIG    1        0.212  -1.228  -0.995  0.00  0.00    +0.101 A 
ATOM     22  C   LIG    1        0.187  -0.285  -0.034  0.00  0.00    +0.104 A 
ATOM     23  N   LIG    1       -0.060  -0.930   1.147  0.00  0.00    -0.335 N 
ENDBRANCH  16  23
ENDBRANCH   1  16
TORSDOF 2
