REMARK  Name = ZINC00030895
REMARK                            x       y       z     vdW  Elec       q    Type
REMARK                         _______ _______ _______ _____ _____    ______ ____
ROOT
ATOM      1  C   LIG    1        2.370  -4.286  -3.796  0.00  0.00    +0.034 A 
ATOM      2  C   LIG    1        1.960  -5.457  -4.421  0.00  0.00    +0.025 A 
ATOM      3  C   LIG    1        2.616  -5.900  -5.553  0.00  0.00    +0.030 A 
ATOM      4  C   LIG    1        3.681  -5.180  -6.063  0.00  0.00    +0.105 A 
ATOM      5  C   LIG    1        4.092  -4.014  -5.443  0.00  0.00    +0.030 A 
ATOM      6  C   LIG    1        3.436  -3.562  -4.315  0.00  0.00    +0.025 A 
ENDROOT
BRANCH   1   8
ATOM      7  C   LIG    1        1.548  -2.512  -2.440  0.00  0.00    +0.220 C 
ATOM      8  N   LIG    1        1.707  -3.834  -2.650  0.00  0.00    -0.285 N 
ATOM      9  H   LIG    1        1.361  -4.472  -2.006  0.00  0.00    +0.155 HD
ATOM     10  O   LIG    1        2.052  -1.713  -3.201  0.00  0.00    -0.275 OA
BRANCH   7  11
ATOM     11  C   LIG    1        0.744  -2.027  -1.261  0.00  0.00    +0.072 C 
ATOM     12  C   LIG    1       -0.686  -2.560  -1.366  0.00  0.00    +0.017 C 
BRANCH  11  13
ATOM     13  C   LIG    1        0.720  -0.498  -1.255  0.00  0.00    +0.012 C 
BRANCH  13  15
ATOM     14  C   LIG    1       -0.013   1.526   0.014  0.00  0.00    +0.004 C 
ATOM     15  C   LIG    1        0.011  -0.004   0.008  0.00  0.00    -0.003 C 
ENDBRANCH  13  15
ENDBRANCH  11  13
ENDBRANCH   7  11
ENDBRANCH   1   8
BRANCH   4  16
ATOM     16  S   LIG    1        4.516  -5.749  -7.506  0.00  0.00    +0.056 S 
ATOM     17  O   LIG    1        4.288  -7.150  -7.581  0.00  0.00    -0.153 OA
ATOM     18  O   LIG    1        5.821  -5.190  -7.467  0.00  0.00    -0.153 OA
BRANCH  16  19
ATOM     19  N   LIG    1        3.751  -5.075  -8.812  0.00  0.00    -0.204 NA
ATOM     20  H   LIG    1        4.064  -5.268  -9.710  0.00  0.00    +0.144 HD
ATOM     21  H   LIG    1        2.991  -4.488  -8.679  0.00  0.00    +0.144 HD
ENDBRANCH  16  19
ENDBRANCH   4  16
TORSDOF 6
