REMARK  Name = ZINC00057624
REMARK                            x       y       z     vdW  Elec       q    Type
REMARK                         _______ _______ _______ _____ _____    ______ ____
ROOT
ATOM      1  C   LIG    1       -0.017   1.378   0.010  0.00  0.00    +0.010 A 
ATOM      2  C   LIG    1        1.170   2.089   0.002  0.00  0.00    +0.049 A 
ATOM      3  C   LIG    1        2.380   1.415  -0.013  0.00  0.00    +0.158 A 
ATOM      4  C   LIG    1        2.399   0.024  -0.021  0.00  0.00    +0.159 A 
ATOM      5  C   LIG    1        1.207  -0.682  -0.013  0.00  0.00    +0.055 A 
ATOM      6  C   LIG    1        0.002  -0.004   0.002  0.00  0.00    -0.017 A 
ENDROOT
BRANCH   3   7
ATOM      7  O   LIG    1        3.548   2.113  -0.021  0.00  0.00    -0.503 OA
ATOM      8  H   LIG    1        3.894   2.310   0.860  0.00  0.00    +0.292 HD
ENDBRANCH   3   7
BRANCH   4   9
ATOM      9  O   LIG    1        3.585  -0.642  -0.036  0.00  0.00    -0.503 OA
ATOM     10  H   LIG    1        3.937  -0.839   0.843  0.00  0.00    +0.292 HD
ENDBRANCH   4   9
BRANCH   6  11
ATOM     11  C   LIG    1       -1.294  -0.774   0.010  0.00  0.00    +0.127 C 
BRANCH  11  12
ATOM     12  O   LIG    1       -2.259  -0.072   0.796  0.00  0.00    -0.389 OA
ATOM     13  H   LIG    1       -2.458   0.818   0.473  0.00  0.00    +0.210 HD
ENDBRANCH  11  12
BRANCH  11  14
ATOM     14  C   LIG    1       -1.810  -0.918  -1.423  0.00  0.00    -0.050 C 
BRANCH  14  15
ATOM     15  N   LIG    1       -3.073  -1.668  -1.415  0.00  0.00    +0.380 N 
ATOM     16  H   LIG    1       -3.413  -1.764  -2.360  0.00  0.00    -0.090 HD
ATOM     17  H   LIG    1       -3.755  -1.173  -0.860  0.00  0.00    -0.090 HD
ATOM     18  H   LIG    1       -2.918  -2.583  -1.019  0.00  0.00    -0.090 HD
ENDBRANCH  14  15
ENDBRANCH  11  14
ENDBRANCH   6  11
TORSDOF 6
