REMARK  Name = ZINC00007360
REMARK                            x       y       z     vdW  Elec       q    Type
REMARK                         _______ _______ _______ _____ _____    ______ ____
ROOT
ATOM      1  C   LIG    1       -1.233  -4.975   1.120  0.00  0.00    +0.179 C 
ENDROOT
BRANCH   1   2
ATOM      2  C   LIG    1       -0.786  -5.463   2.474  0.00  0.00    -0.014 A 
ATOM      3  C   LIG    1        0.555  -5.696   2.716  0.00  0.00    +0.009 A 
ATOM      4  C   LIG    1        0.966  -6.143   3.958  0.00  0.00    +0.039 A 
ATOM      5  C   LIG    1        0.034  -6.358   4.959  0.00  0.00    +0.123 A 
ATOM      6  F   LIG    1        0.434  -6.796   6.173  0.00  0.00    -0.205 F 
ATOM      7  C   LIG    1       -1.309  -6.125   4.715  0.00  0.00    +0.039 A 
ATOM      8  C   LIG    1       -1.717  -5.673   3.474  0.00  0.00    +0.009 A 
ENDBRANCH   1   2
BRANCH   1   9
ATOM      9  C   LIG    1       -1.425  -6.152   0.199  0.00  0.00    -0.014 A 
ATOM     10  C   LIG    1       -0.331  -6.741  -0.406  0.00  0.00    +0.009 A 
ATOM     11  C   LIG    1       -0.505  -7.822  -1.250  0.00  0.00    +0.039 A 
ATOM     12  C   LIG    1       -1.777  -8.314  -1.489  0.00  0.00    +0.123 A 
ATOM     13  F   LIG    1       -1.949  -9.370  -2.314  0.00  0.00    -0.205 F 
ATOM     14  C   LIG    1       -2.873  -7.723  -0.882  0.00  0.00    +0.039 A 
ATOM     15  C   LIG    1       -2.695  -6.646  -0.034  0.00  0.00    +0.009 A 
ENDBRANCH   1   9
BRANCH   1  16
ATOM     16  O   LIG    1       -0.240  -4.103   0.577  0.00  0.00    -0.364 OA
BRANCH  16  24
ATOM     17  C   LIG    1       -0.018   1.465   0.010  0.00  0.00    -0.095 C 
ATOM     18  N   LIG    1        0.002  -0.004   0.002  0.00  0.00    +0.382 N 
ATOM     19  H   LIG    1        0.429  -0.349  -0.845  0.00  0.00    -0.081 HD
ATOM     20  C   LIG    1       -1.374  -0.547   0.157  0.00  0.00    -0.066 C 
ATOM     21  C   LIG    1       -1.682  -0.375   1.663  0.00  0.00    -0.017 C 
ATOM     22  C   LIG    1       -0.301  -0.360   2.350  0.00  0.00    -0.017 C 
ATOM     23  C   LIG    1       -1.308  -2.051  -0.154  0.00  0.00    +0.016 C 
ATOM     24  C   LIG    1       -0.424  -2.727   0.918  0.00  0.00    +0.117 C 
ATOM     25  C   LIG    1        0.938  -2.030   0.977  0.00  0.00    +0.016 C 
ATOM     26  C   LIG    1        0.717  -0.525   1.198  0.00  0.00    -0.066 C 
ENDBRANCH  16  24
ENDBRANCH   1  16
TORSDOF 4
